@<TRIPOS>MOLECULE
*****
 27 29 0 0 0
SMALL
GASTEIGER

@<TRIPOS>ATOM
      1 N          -8.3159  -17.0559   22.7628 N.pl3   1  UNL1       -0.3037
      2 C          -9.7338  -17.3847   23.1253 C.ar    1  UNL1        0.0490
      3 C         -10.0222  -18.4871   24.1007 C.ar    1  UNL1        0.0153
      4 C         -11.4401  -18.8159   24.4633 C.ar    1  UNL1        0.0124
      5 C         -12.5696  -18.0422   23.8504 C.ar    1  UNL1        0.0791
      6 C         -12.2812  -16.9398   22.8749 C.ar    1  UNL1        0.0685
      7 CL        -13.4107  -16.1662   22.2620 Cl      1  UNL1       -0.0815
      8 C         -10.8633  -16.6110   22.5124 C.ar    1  UNL1        0.0266
      9 C         -13.9875  -18.3710   24.2129 C.1     1  UNL1        0.1013
     10 N         -15.4054  -18.6998   24.5754 N.1     1  UNL1       -0.1908
     11 N          -5.6343  -19.2370   20.9970 N.3     1  UNL1       -0.1576
     12 C          -6.8937  -19.7716   20.3819 C.3     1  UNL1        0.0972
     13 C          -8.0515  -19.0196   20.9686 C.3     1  UNL1        0.0403
     14 C          -7.5076  -18.0203   21.9461 C.3     1  UNL1        0.0922
     15 C          -6.0138  -18.1546   21.9637 C.3     1  UNL1        0.1151
     16 C          -2.8463  -20.1688   20.3986 C.3     1  UNL1        0.1960
     17 S          -4.2403  -19.7029   20.6978 S.O2    1  UNL1        0.0457
     18 O          -4.7899  -20.9669   20.1059 O.2     1  UNL1       -0.1572
     19 O          -3.6908  -18.4389   21.2897 O.2     1  UNL1       -0.1572
     20 C          -7.7062  -15.7629   23.2168 C.3     1  UNL1        0.1199
     21 C          -7.3668  -15.5610   24.6639 C.ar    1  UNL1        0.0251
     22 C          -8.4575  -15.5328   25.6932 C.ar    1  UNL1       -0.0004
     23 C          -8.1180  -15.3309   27.1403 C.ar    1  UNL1       -0.0001
     24 C          -6.6879  -15.1574   27.5581 C.ar    1  UNL1        0.0023
     25 C          -5.5971  -15.1856   26.5288 C.ar    1  UNL1        0.0294
     26 C          -5.9365  -15.3874   25.0817 C.ar    1  UNL1        0.1377
     27 F          -4.8458  -15.4157   24.0524 F       1  UNL1       -0.2044
@<TRIPOS>BOND
     1    16    17    1
     2    17    18    2
     3    17    19    2
     4    17    11    1
     5    11    12    1
     6    12    13    1
     7    13    14    1
     8    14     1    1
     9     1    20    1
    10    20    21    1
    11    21    22   ar
    12    22    23   ar
    13    23    24   ar
    14    24    25   ar
    15    25    26   ar
    16    26    27    1
    17     1     2    1
    18     2     3   ar
    19     3     4   ar
    20     4     5   ar
    21     5     9    1
    22     9    10    3
    23     5     6   ar
    24     6     7    1
    25     6     8   ar
    26    14    15    1
    27    15    11    1
    28    26    21   ar
    29     8     2   ar
@<TRIPOS>MOLECULE
*****
 27 29 0 0 0
SMALL
GASTEIGER

@<TRIPOS>ATOM
      1 N          -7.9210  -18.8872   21.4539 N.pl3   1  UNL1       -0.3037
      2 C          -8.0604  -18.0778   22.7090 C.ar    1  UNL1        0.0490
      3 C          -9.0777  -18.4640   23.7414 C.ar    1  UNL1        0.0153
      4 C          -9.2172  -17.6546   24.9965 C.ar    1  UNL1        0.0124
      5 C          -8.3393  -16.4589   25.2193 C.ar    1  UNL1        0.0791
      6 C          -7.3220  -16.0726   24.1868 C.ar    1  UNL1        0.0685
      7 CL         -6.4441  -14.8769   24.4096 Cl      1  UNL1       -0.0815
      8 C          -7.1825  -16.8820   22.9317 C.ar    1  UNL1        0.0266
      9 C          -8.4788  -15.6495   26.4744 C.1     1  UNL1        0.1013
     10 N          -8.6182  -14.8400   27.7295 N.1     1  UNL1       -0.1908
     11 N          -4.1928  -19.4435   20.5279 N.3     1  UNL1       -0.1576
     12 C          -4.7828  -20.7748   20.1675 C.3     1  UNL1        0.0972
     13 C          -6.2512  -20.7284   20.4705 C.3     1  UNL1        0.0403
     14 C          -6.5687  -19.3685   21.0182 C.3     1  UNL1        0.0922
     15 C          -5.2966  -18.5744   21.0537 C.3     1  UNL1        0.1151
     16 C          -1.3114  -18.6574   20.2467 C.3     1  UNL1        0.1960
     17 S          -2.7522  -19.0505   20.3873 S.O2    1  UNL1        0.0457
     18 O          -3.1579  -17.8517   19.5820 O.2     1  UNL1       -0.1572
     19 O          -2.3464  -20.2492   21.1926 O.2     1  UNL1       -0.1572
     20 C          -9.1337  -19.2154   20.6344 C.3     1  UNL1        0.1199
     21 C         -10.3518  -18.3437   20.7152 C.ar    1  UNL1        0.0251
     22 C         -10.3885  -17.0363   19.9809 C.ar    1  UNL1       -0.0004
     23 C         -11.6065  -16.1646   20.0616 C.ar    1  UNL1       -0.0001
     24 C         -12.7879  -16.6004   20.8767 C.ar    1  UNL1        0.0023
     25 C         -12.7513  -17.9079   21.6110 C.ar    1  UNL1        0.0294
     26 C         -11.5332  -18.7795   21.5303 C.ar    1  UNL1        0.1377
     27 F         -11.4965  -20.0870   22.2646 F       1  UNL1       -0.2044
@<TRIPOS>BOND
     1    16    17    1
     2    17    18    2
     3    17    19    2
     4    17    11    1
     5    11    12    1
     6    12    13    1
     7    13    14    1
     8    14     1    1
     9     1    20    1
    10    20    21    1
    11    21    22   ar
    12    22    23   ar
    13    23    24   ar
    14    24    25   ar
    15    25    26   ar
    16    26    27    1
    17     1     2    1
    18     2     3   ar
    19     3     4   ar
    20     4     5   ar
    21     5     9    1
    22     9    10    3
    23     5     6   ar
    24     6     7    1
    25     6     8   ar
    26    14    15    1
    27    15    11    1
    28    26    21   ar
    29     8     2   ar
@<TRIPOS>MOLECULE
*****
 27 29 0 0 0
SMALL
GASTEIGER

@<TRIPOS>ATOM
      1 N          -8.5002  -16.8973   22.3511 N.pl3   1  UNL1       -0.3037
      2 C          -9.9020  -17.2292   22.7692 C.ar    1  UNL1        0.0490
      3 C         -11.0613  -16.5150   22.1400 C.ar    1  UNL1        0.0153
      4 C         -12.4631  -16.8470   22.5581 C.ar    1  UNL1        0.0124
      5 C         -12.7056  -17.8931   23.6053 C.ar    1  UNL1        0.0791
      6 C         -11.5463  -18.6073   24.2346 C.ar    1  UNL1        0.0685
      7 CL        -11.7887  -19.6534   25.2819 Cl      1  UNL1       -0.0815
      8 C         -10.1445  -18.2754   23.8165 C.ar    1  UNL1        0.0266
      9 C         -14.1074  -18.2250   24.0234 C.1     1  UNL1        0.1013
     10 N         -15.5092  -18.5569   24.4415 N.1     1  UNL1       -0.1908
     11 N          -5.9063  -19.1513   20.5465 N.3     1  UNL1       -0.1576
     12 C          -7.1632  -19.5091   19.8100 C.3     1  UNL1        0.0972
     13 C          -8.2879  -18.7082   20.3964 C.3     1  UNL1        0.0403
     14 C          -7.7260  -17.8556   21.4952 C.3     1  UNL1        0.0922
     15 C          -6.2542  -18.1294   21.5880 C.3     1  UNL1        0.1151
     16 C          -3.1762  -20.2813   20.0275 C.3     1  UNL1        0.1960
     17 S          -4.5413  -19.7163   20.2870 S.O2    1  UNL1        0.0457
     18 O          -3.9487  -18.3445   20.4178 O.2     1  UNL1       -0.1572
     19 O          -5.1338  -21.0881   20.1562 O.2     1  UNL1       -0.1572
     20 C          -7.8726  -15.6071   22.7888 C.3     1  UNL1        0.1199
     21 C          -7.2929  -15.4847   24.1667 C.ar    1  UNL1        0.0251
     22 C          -5.8061  -15.5260   24.3613 C.ar    1  UNL1       -0.0004
     23 C          -5.2264  -15.4036   25.7393 C.ar    1  UNL1       -0.0001
     24 C          -6.1333  -15.2397   26.9227 C.ar    1  UNL1        0.0023
     25 C          -7.6201  -15.1983   26.7282 C.ar    1  UNL1        0.0294
     26 C          -8.1999  -15.3208   25.3502 C.ar    1  UNL1        0.1377
     27 F          -9.6866  -15.2794   25.1557 F       1  UNL1       -0.2044
@<TRIPOS>BOND
     1    16    17    1
     2    17    18    2
     3    17    19    2
     4    17    11    1
     5    11    12    1
     6    12    13    1
     7    13    14    1
     8    14     1    1
     9     1    20    1
    10    20    21    1
    11    21    22   ar
    12    22    23   ar
    13    23    24   ar
    14    24    25   ar
    15    25    26   ar
    16    26    27    1
    17     1     2    1
    18     2     3   ar
    19     3     4   ar
    20     4     5   ar
    21     5     9    1
    22     9    10    3
    23     5     6   ar
    24     6     7    1
    25     6     8   ar
    26    14    15    1
    27    15    11    1
    28    26    21   ar
    29     8     2   ar
@<TRIPOS>MOLECULE
*****
 27 29 0 0 0
SMALL
GASTEIGER

@<TRIPOS>ATOM
      1 N          -8.0091  -18.6148   21.7844 N.pl3   1  UNL1       -0.3037
      2 C          -6.5547  -18.7020   21.4279 C.ar    1  UNL1        0.0490
      3 C          -6.1448  -19.1159   20.0457 C.ar    1  UNL1        0.0153
      4 C          -4.6903  -19.2031   19.6892 C.ar    1  UNL1        0.0124
      5 C          -3.6458  -18.8763   20.7149 C.ar    1  UNL1        0.0791
      6 C          -4.0557  -18.4623   22.0972 C.ar    1  UNL1        0.0685
      7 CL         -3.0112  -18.1355   23.1229 Cl      1  UNL1       -0.0815
      8 C          -5.5101  -18.3751   22.4537 C.ar    1  UNL1        0.0266
      9 C          -2.1914  -18.9635   20.3584 C.1     1  UNL1        0.1013
     10 N          -0.7370  -19.0506   20.0019 N.1     1  UNL1       -0.1908
     11 N          -8.6499  -17.0571   25.2813 N.3     1  UNL1       -0.1576
     12 C          -9.4472  -18.3241   25.3779 C.3     1  UNL1        0.0972
     13 C          -9.3041  -19.0619   24.0796 C.3     1  UNL1        0.0403
     14 C          -8.4185  -18.2508   23.1808 C.3     1  UNL1        0.0922
     15 C          -8.0142  -17.0118   23.9235 C.3     1  UNL1        0.1151
     16 C          -8.3752  -14.9788   27.4272 C.3     1  UNL1        0.1960
     17 S          -8.5126  -16.0180   26.3542 S.O2    1  UNL1        0.0457
     18 O          -8.7982  -17.0573   27.3974 O.2     1  UNL1       -0.1572
     19 O          -8.2270  -14.9786   25.3111 O.2     1  UNL1       -0.1572
     20 C          -9.0541  -18.8916   20.7445 C.3     1  UNL1        0.1199
     21 C         -10.3413  -18.1216   20.7512 C.ar    1  UNL1        0.0251
     22 C         -10.4123  -16.7737   20.0968 C.ar    1  UNL1       -0.0004
     23 C         -11.6995  -16.0037   20.1035 C.ar    1  UNL1       -0.0001
     24 C         -12.9157  -16.5814   20.7645 C.ar    1  UNL1        0.0023
     25 C         -12.8448  -17.9293   21.4189 C.ar    1  UNL1        0.0294
     26 C         -11.5575  -18.6994   21.4122 C.ar    1  UNL1        0.1377
     27 F         -11.4865  -20.0473   22.0666 F       1  UNL1       -0.2044
@<TRIPOS>BOND
     1    16    17    1
     2    17    18    2
     3    17    19    2
     4    17    11    1
     5    11    12    1
     6    12    13    1
     7    13    14    1
     8    14     1    1
     9     1    20    1
    10    20    21    1
    11    21    22   ar
    12    22    23   ar
    13    23    24   ar
    14    24    25   ar
    15    25    26   ar
    16    26    27    1
    17     1     2    1
    18     2     3   ar
    19     3     4   ar
    20     4     5   ar
    21     5     9    1
    22     9    10    3
    23     5     6   ar
    24     6     7    1
    25     6     8   ar
    26    14    15    1
    27    15    11    1
    28    26    21   ar
    29     8     2   ar
@<TRIPOS>MOLECULE
*****
 27 29 0 0 0
SMALL
GASTEIGER

@<TRIPOS>ATOM
      1 N          -7.7553  -17.1892   22.9524 N.pl3   1  UNL1       -0.3037
      2 C          -6.5246  -17.8845   22.4505 C.ar    1  UNL1        0.0490
      3 C          -6.6233  -18.8541   21.3103 C.ar    1  UNL1        0.0153
      4 C          -5.3926  -19.5494   20.8083 C.ar    1  UNL1        0.0124
      5 C          -4.0632  -19.2752   21.4467 C.ar    1  UNL1        0.0791
      6 C          -3.9645  -18.3056   22.5870 C.ar    1  UNL1        0.0685
      7 CL         -2.6351  -18.0314   23.2253 Cl      1  UNL1       -0.0815
      8 C          -5.1952  -17.6103   23.0889 C.ar    1  UNL1        0.0266
      9 C          -2.8325  -19.9705   20.9447 C.1     1  UNL1        0.1013
     10 N          -1.6019  -20.6659   20.4428 N.1     1  UNL1       -0.1908
     11 N         -11.4237  -18.4131   23.2845 N.3     1  UNL1       -0.1576
     12 C         -10.7612  -19.6336   22.7174 C.3     1  UNL1        0.0972
     13 C          -9.3063  -19.3236   22.5240 C.3     1  UNL1        0.0403
     14 C          -9.0698  -17.9116   22.9716 C.3     1  UNL1        0.0922
     15 C         -10.3784  -17.3489   23.4416 C.3     1  UNL1        0.1151
     16 C         -14.3293  -18.1473   23.9820 C.3     1  UNL1        0.1960
     17 S         -12.8765  -18.2802   23.6333 S.O2    1  UNL1        0.0457
     18 O         -13.1647  -17.7893   22.2455 O.2     1  UNL1       -0.1572
     19 O         -12.5883  -18.7711   25.0211 O.2     1  UNL1       -0.1572
     20 C          -7.6715  -15.7715   23.4352 C.3     1  UNL1        0.1199
     21 C          -7.4308  -15.4870   24.8882 C.ar    1  UNL1        0.0251
     22 C          -8.5618  -15.5833   25.8687 C.ar    1  UNL1       -0.0004
     23 C          -8.3211  -15.2988   27.3217 C.ar    1  UNL1       -0.0001
     24 C          -6.9494  -14.9179   27.7941 C.ar    1  UNL1        0.0023
     25 C          -5.8183  -14.8216   26.8136 C.ar    1  UNL1        0.0294
     26 C          -6.0590  -15.1061   25.3606 C.ar    1  UNL1        0.1377
     27 F          -4.9280  -15.0098   24.3801 F       1  UNL1       -0.2044
@<TRIPOS>BOND
     1    16    17    1
     2    17    18    2
     3    17    19    2
     4    17    11    1
     5    11    12    1
     6    12    13    1
     7    13    14    1
     8    14     1    1
     9     1    20    1
    10    20    21    1
    11    21    22   ar
    12    22    23   ar
    13    23    24   ar
    14    24    25   ar
    15    25    26   ar
    16    26    27    1
    17     1     2    1
    18     2     3   ar
    19     3     4   ar
    20     4     5   ar
    21     5     9    1
    22     9    10    3
    23     5     6   ar
    24     6     7    1
    25     6     8   ar
    26    14    15    1
    27    15    11    1
    28    26    21   ar
    29     8     2   ar
@<TRIPOS>MOLECULE
*****
 27 29 0 0 0
SMALL
GASTEIGER

@<TRIPOS>ATOM
      1 N          -6.8070  -18.4710   21.9062 N.pl3   1  UNL1       -0.3037
      2 C          -5.3812  -18.5595   21.4488 C.ar    1  UNL1        0.0490
      3 C          -5.0696  -18.9673   20.0394 C.ar    1  UNL1        0.0153
      4 C          -3.6437  -19.0558   19.5820 C.ar    1  UNL1        0.0124
      5 C          -2.5295  -18.7365   20.5340 C.ar    1  UNL1        0.0791
      6 C          -2.8411  -18.3286   21.9436 C.ar    1  UNL1        0.0685
      7 CL         -1.7268  -18.0093   22.8956 Cl      1  UNL1       -0.0815
      8 C          -4.2669  -18.2401   22.4009 C.ar    1  UNL1        0.0266
      9 C          -1.1037  -18.8250   20.0767 C.1     1  UNL1        0.1013
     10 N           0.3221  -18.9135   19.6193 N.1     1  UNL1       -0.1908
     11 N          -7.4151  -15.9655   24.8076 N.3     1  UNL1       -0.1576
     12 C          -8.3360  -15.4206   23.7564 C.3     1  UNL1        0.0972
     13 C          -8.2203  -16.2929   22.5415 C.3     1  UNL1        0.0403
     14 C          -7.2279  -17.3768   22.8420 C.3     1  UNL1        0.0922
     15 C          -6.7303  -17.1745   24.2425 C.3     1  UNL1        0.1151
     16 C          -7.0136  -14.8357   27.5575 C.3     1  UNL1        0.1960
     17 S          -7.2144  -15.4006   26.1825 S.O2    1  UNL1        0.0457
     18 O          -5.8954  -14.8284   25.7548 O.2     1  UNL1       -0.1572
     19 O          -8.5333  -15.9729   26.6103 O.2     1  UNL1       -0.1572
     20 C          -7.8119  -19.4765   21.4277 C.3     1  UNL1        0.1199
     21 C          -9.2763  -19.1559   21.4784 C.ar    1  UNL1        0.0251
     22 C          -9.9555  -18.5600   20.2811 C.ar    1  UNL1       -0.0004
     23 C         -11.4200  -18.2394   20.3318 C.ar    1  UNL1       -0.0001
     24 C         -12.2053  -18.5147   21.5798 C.ar    1  UNL1        0.0023
     25 C         -11.5261  -19.1107   22.7772 C.ar    1  UNL1        0.0294
     26 C         -10.0616  -19.4313   22.7265 C.ar    1  UNL1        0.1377
     27 F          -9.3824  -20.0272   23.9238 F       1  UNL1       -0.2044
@<TRIPOS>BOND
     1    16    17    1
     2    17    18    2
     3    17    19    2
     4    17    11    1
     5    11    12    1
     6    12    13    1
     7    13    14    1
     8    14     1    1
     9     1    20    1
    10    20    21    1
    11    21    22   ar
    12    22    23   ar
    13    23    24   ar
    14    24    25   ar
    15    25    26   ar
    16    26    27    1
    17     1     2    1
    18     2     3   ar
    19     3     4   ar
    20     4     5   ar
    21     5     9    1
    22     9    10    3
    23     5     6   ar
    24     6     7    1
    25     6     8   ar
    26    14    15    1
    27    15    11    1
    28    26    21   ar
    29     8     2   ar
@<TRIPOS>MOLECULE
*****
 27 29 0 0 0
SMALL
GASTEIGER

@<TRIPOS>ATOM
      1 N          -6.3712  -17.0442   22.9598 N.pl3   1  UNL1       -0.3037
      2 C          -7.8294  -17.2388   22.6672 C.ar    1  UNL1        0.0490
      3 C          -8.5919  -16.1845   21.9208 C.ar    1  UNL1        0.0153
      4 C         -10.0501  -16.3792   21.6282 C.ar    1  UNL1        0.0124
      5 C         -10.7460  -17.6281   22.0820 C.ar    1  UNL1        0.0791
      6 C          -9.9835  -18.6825   22.8284 C.ar    1  UNL1        0.0685
      7 CL        -10.6793  -19.9314   23.2822 Cl      1  UNL1       -0.0815
      8 C          -8.5253  -18.4879   23.1210 C.ar    1  UNL1        0.0266
      9 C         -12.2042  -17.8227   21.7894 C.1     1  UNL1        0.1013
     10 N         -13.6625  -18.0174   21.4969 N.1     1  UNL1       -0.1908
     11 N          -3.2992  -18.7046   21.2652 N.3     1  UNL1       -0.1576
     12 C          -4.2595  -19.8559   21.3163 C.3     1  UNL1        0.0972
     13 C          -5.5272  -19.3740   21.9573 C.3     1  UNL1        0.0403
     14 C          -5.3503  -17.9250   22.3023 C.3     1  UNL1        0.0922
     15 C          -3.9734  -17.5113   21.8746 C.3     1  UNL1        0.1151
     16 C          -0.5186  -18.7763   20.1414 C.3     1  UNL1        0.1960
     17 S          -1.9090  -18.7405   20.7033 S.O2    1  UNL1        0.0457
     18 O          -2.1172  -17.3824   20.1013 O.2     1  UNL1       -0.1572
     19 O          -1.7006  -20.0985   21.3052 O.2     1  UNL1       -0.1572
     20 C          -5.9338  -15.9689   23.9097 C.3     1  UNL1        0.1199
     21 C          -6.7112  -15.7179   25.1678 C.ar    1  UNL1        0.0251
     22 C          -8.1578  -15.3291   25.0906 C.ar    1  UNL1       -0.0004
     23 C          -8.9351  -15.0781   26.3486 C.ar    1  UNL1       -0.0001
     24 C          -8.2658  -15.2159   27.6839 C.ar    1  UNL1        0.0023
     25 C          -6.8191  -15.6048   27.7612 C.ar    1  UNL1        0.0294
     26 C          -6.0418  -15.8558   26.5031 C.ar    1  UNL1        0.1377
     27 F          -4.5952  -16.2447   26.5803 F       1  UNL1       -0.2044
@<TRIPOS>BOND
     1    16    17    1
     2    17    18    2
     3    17    19    2
     4    17    11    1
     5    11    12    1
     6    12    13    1
     7    13    14    1
     8    14     1    1
     9     1    20    1
    10    20    21    1
    11    21    22   ar
    12    22    23   ar
    13    23    24   ar
    14    24    25   ar
    15    25    26   ar
    16    26    27    1
    17     1     2    1
    18     2     3   ar
    19     3     4   ar
    20     4     5   ar
    21     5     9    1
    22     9    10    3
    23     5     6   ar
    24     6     7    1
    25     6     8   ar
    26    14    15    1
    27    15    11    1
    28    26    21   ar
    29     8     2   ar
@<TRIPOS>MOLECULE
*****
 27 29 0 0 0
SMALL
GASTEIGER

@<TRIPOS>ATOM
      1 N          -6.6331  -18.4169   22.5308 N.pl3   1  UNL1       -0.3037
      2 C          -5.2391  -18.4846   21.9811 C.ar    1  UNL1        0.0490
      3 C          -4.1238  -17.7588   22.6733 C.ar    1  UNL1        0.0153
      4 C          -2.7298  -17.8266   22.1236 C.ar    1  UNL1        0.0124
      5 C          -2.4511  -18.6201   20.8817 C.ar    1  UNL1        0.0791
      6 C          -3.5665  -19.3460   20.1893 C.ar    1  UNL1        0.0685
      7 CL         -3.2877  -20.1395   18.9473 Cl      1  UNL1       -0.0815
      8 C          -4.9605  -19.2782   20.7390 C.ar    1  UNL1        0.0266
      9 C          -1.0571  -18.6879   20.3320 C.1     1  UNL1        0.1013
     10 N           0.3369  -18.7556   19.7822 N.1     1  UNL1       -0.1908
     11 N          -7.3264  -15.7321   25.2468 N.3     1  UNL1       -0.1576
     12 C          -8.0683  -15.1583   24.0761 C.3     1  UNL1        0.0972
     13 C          -7.8989  -16.0943   22.9161 C.3     1  UNL1        0.0403
     14 C          -7.0523  -17.2464   23.3700 C.3     1  UNL1        0.0922
     15 C          -6.6985  -17.0225   24.8104 C.3     1  UNL1        0.1151
     16 C          -7.1326  -14.5127   27.9809 C.3     1  UNL1        0.1960
     17 S          -7.2295  -15.1224   26.6138 S.O2    1  UNL1        0.0457
     18 O          -5.7449  -14.9864   26.4479 O.2     1  UNL1       -0.1572
     19 O          -8.7141  -15.2584   26.7798 O.2     1  UNL1       -0.1572
     20 C          -7.6079  -19.5195   22.2412 C.3     1  UNL1        0.1199
     21 C          -9.0158  -19.1903   21.8418 C.ar    1  UNL1        0.0251
     22 C          -9.3519  -18.9627   20.3978 C.ar    1  UNL1       -0.0004
     23 C         -10.7598  -18.6335   19.9984 C.ar    1  UNL1       -0.0001
     24 C         -11.8315  -18.5319   21.0429 C.ar    1  UNL1        0.0023
     25 C         -11.4954  -18.7595   22.4870 C.ar    1  UNL1        0.0294
     26 C         -10.0875  -19.0887   22.8864 C.ar    1  UNL1        0.1377
     27 F          -9.7513  -19.3163   24.3304 F       1  UNL1       -0.2044
@<TRIPOS>BOND
     1    16    17    1
     2    17    18    2
     3    17    19    2
     4    17    11    1
     5    11    12    1
     6    12    13    1
     7    13    14    1
     8    14     1    1
     9     1    20    1
    10    20    21    1
    11    21    22   ar
    12    22    23   ar
    13    23    24   ar
    14    24    25   ar
    15    25    26   ar
    16    26    27    1
    17     1     2    1
    18     2     3   ar
    19     3     4   ar
    20     4     5   ar
    21     5     9    1
    22     9    10    3
    23     5     6   ar
    24     6     7    1
    25     6     8   ar
    26    14    15    1
    27    15    11    1
    28    26    21   ar
    29     8     2   ar
@<TRIPOS>MOLECULE
*****
 27 29 0 0 0
SMALL
GASTEIGER

@<TRIPOS>ATOM
      1 N           2.4896   -0.7858   20.8629 N.pl3   1  UNL1       -0.3037
      2 C           2.9638   -0.9327   22.2783 C.ar    1  UNL1        0.0490
      3 C           3.9597   -1.9982   22.6290 C.ar    1  UNL1        0.0153
      4 C           4.4339   -2.1450   24.0444 C.ar    1  UNL1        0.0124
      5 C           3.9123   -1.2263   25.1093 C.ar    1  UNL1        0.0791
      6 C           2.9164   -0.1608   24.7587 C.ar    1  UNL1        0.0685
      7 CL          2.3949    0.7579   25.8235 Cl      1  UNL1       -0.0815
      8 C           2.4422   -0.0139   23.3432 C.ar    1  UNL1        0.0266
      9 C           4.3865   -1.3732   26.5247 C.1     1  UNL1        0.1013
     10 N           4.8608   -1.5200   27.9402 N.1     1  UNL1       -0.1908
     11 N           5.1513   -0.3777   18.0674 N.3     1  UNL1       -0.1576
     12 C           4.7745   -1.8201   17.9005 C.3     1  UNL1        0.0972
     13 C           3.7315   -2.1485   18.9275 C.3     1  UNL1        0.0403
     14 C           3.4638   -0.9091   19.7289 C.3     1  UNL1        0.0922
     15 C           4.3412    0.1852   19.1974 C.3     1  UNL1        0.1151
     16 C           7.1704    1.1182   16.4288 C.3     1  UNL1        0.1960
     17 S           6.1608    0.3702   17.2482 S.O2    1  UNL1        0.0457
     18 O           6.9221   -0.9027   17.0241 O.2     1  UNL1       -0.1572
     19 O           5.3996    1.6432   17.4721 O.2     1  UNL1       -0.1572
     20 C           1.0413   -0.5157   20.5814 C.3     1  UNL1        0.1199
     21 C           0.6009    0.8574   20.1682 C.ar    1  UNL1        0.0251
     22 C           0.0242    1.7976   21.1846 C.ar    1  UNL1       -0.0004
     23 C          -0.4161    3.1707   20.7714 C.ar    1  UNL1       -0.0001
     24 C          -0.2798    3.6035   19.3418 C.ar    1  UNL1        0.0023
     25 C           0.2969    2.6632   18.3252 C.ar    1  UNL1        0.0294
     26 C           0.7373    1.2902   18.7384 C.ar    1  UNL1        0.1377
     27 F           1.3139    0.3499   17.7219 F       1  UNL1       -0.2044
@<TRIPOS>BOND
     1    16    17    1
     2    17    18    2
     3    17    19    2
     4    17    11    1
     5    11    12    1
     6    12    13    1
     7    13    14    1
     8    14     1    1
     9     1    20    1
    10    20    21    1
    11    21    22   ar
    12    22    23   ar
    13    23    24   ar
    14    24    25   ar
    15    25    26   ar
    16    26    27    1
    17     1     2    1
    18     2     3   ar
    19     3     4   ar
    20     4     5   ar
    21     5     9    1
    22     9    10    3
    23     5     6   ar
    24     6     7    1
    25     6     8   ar
    26    14    15    1
    27    15    11    1
    28    26    21   ar
    29     8     2   ar
