@<TRIPOS>MOLECULE
*****
 18 20 0 0 0
SMALL
GASTEIGER

@<TRIPOS>ATOM
      1 N          -8.2539  -19.3440   22.5841 N.ar    1  UNL1       -0.3036
      2 C          -7.9866  -17.8980   22.8804 C.ar    1  UNL1        0.1788
      3 N          -6.5778  -17.5926   22.4656 N.ar    1  UNL1       -0.2238
      4 C          -5.9744  -18.8498   21.9129 C.ar    1  UNL1        0.1017
      5 C          -7.0103  -19.9322   21.9862 C.ar    1  UNL1        0.0967
      6 C          -4.5800  -18.9985   21.3806 C.ar    1  UNL1        0.0383
      7 C          -4.3354  -18.9723   19.9009 C.ar    1  UNL1        0.0047
      8 C          -2.9410  -19.1210   19.3685 C.ar    1  UNL1        0.0207
      9 C          -1.7911  -19.2959   20.3157 C.ar    1  UNL1        0.0989
     10 N          -2.0357  -19.3222   21.7955 N.ar    1  UNL1       -0.2423
     11 C          -3.4302  -19.1735   22.3278 C.ar    1  UNL1        0.1004
     12 C          -9.5391  -20.0736   22.8407 C.3     1  UNL1        0.1343
     13 C         -13.3845  -17.7757   23.2677 C.ar    1  UNL1       -0.0000
     14 C         -12.7460  -18.3998   24.4729 C.ar    1  UNL1       -0.0003
     15 C         -11.4642  -19.1658   24.3306 C.ar    1  UNL1       -0.0024
     16 C         -10.8209  -19.3076   22.9830 C.ar    1  UNL1        0.0004
     17 C         -11.4594  -18.6835   21.7778 C.ar    1  UNL1       -0.0024
     18 C         -12.7412  -17.9175   21.9201 C.ar    1  UNL1       -0.0003
@<TRIPOS>BOND
     1    13    14   ar
     2    14    15   ar
     3    15    16   ar
     4    16    12    1
     5    12     1    1
     6     1     2   ar
     7     2     3   ar
     8     3     4   ar
     9     4     6    1
    10     6     7   ar
    11     7     8   ar
    12     8     9   ar
    13     9    10   ar
    14    10    11   ar
    15     4     5   ar
    16    16    17   ar
    17    17    18   ar
    18    18    13   ar
    19     5     1   ar
    20    11     6   ar
@<TRIPOS>MOLECULE
*****
 18 20 0 0 0
SMALL
GASTEIGER

@<TRIPOS>ATOM
      1 N          -7.7314  -19.4146   20.8338 N.ar    1  UNL1       -0.3036
      2 C          -7.3179  -20.0015   22.1508 C.ar    1  UNL1        0.1788
      3 N          -5.8222  -19.9312   22.2406 N.ar    1  UNL1       -0.2238
      4 C          -5.3113  -19.3008   20.9789 C.ar    1  UNL1        0.1017
      5 C          -6.4912  -18.9816   20.1095 C.ar    1  UNL1        0.0967
      6 C          -3.8731  -19.0362   20.6453 C.ar    1  UNL1        0.0383
      7 C          -3.5061  -18.4670   19.3069 C.ar    1  UNL1        0.0047
      8 C          -2.0678  -18.2024   18.9733 C.ar    1  UNL1        0.0207
      9 C          -0.9965  -18.5068   19.9781 C.ar    1  UNL1        0.0989
     10 N          -1.3635  -19.0760   21.3166 N.ar    1  UNL1       -0.2423
     11 C          -2.8018  -19.3406   21.6501 C.ar    1  UNL1        0.1004
     12 C          -9.1380  -19.2838   20.3295 C.3     1  UNL1        0.1343
     13 C         -12.0806  -16.6781   22.5208 C.ar    1  UNL1       -0.0000
     14 C         -12.5697  -17.8281   21.6912 C.ar    1  UNL1       -0.0003
     15 C         -11.5888  -18.6966   20.9608 C.ar    1  UNL1       -0.0024
     16 C         -10.1189  -18.4152   21.0599 C.ar    1  UNL1        0.0004
     17 C          -9.6297  -17.2652   21.8895 C.ar    1  UNL1       -0.0024
     18 C         -10.6106  -16.3967   22.6199 C.ar    1  UNL1       -0.0003
@<TRIPOS>BOND
     1    13    14   ar
     2    14    15   ar
     3    15    16   ar
     4    16    12    1
     5    12     1    1
     6     1     2   ar
     7     2     3   ar
     8     3     4   ar
     9     4     6    1
    10     6     7   ar
    11     7     8   ar
    12     8     9   ar
    13     9    10   ar
    14    10    11   ar
    15     4     5   ar
    16    16    17   ar
    17    17    18   ar
    18    18    13   ar
    19     5     1   ar
    20    11     6   ar
@<TRIPOS>MOLECULE
*****
 18 20 0 0 0
SMALL
GASTEIGER

@<TRIPOS>ATOM
      1 N          -6.3142  -19.1864   21.5763 N.ar    1  UNL1       -0.3036
      2 C          -6.6602  -19.2918   20.1206 C.ar    1  UNL1        0.1788
      3 N          -8.1261  -19.0107   19.9711 N.ar    1  UNL1       -0.2238
      4 C          -8.6860  -18.7315   21.3344 C.ar    1  UNL1        0.1017
      5 C          -7.5662  -18.8401   22.3265 C.ar    1  UNL1        0.0967
      6 C         -10.1147  -18.4017   21.6502 C.ar    1  UNL1        0.0383
      7 C         -10.6477  -18.6251   23.0344 C.ar    1  UNL1        0.0047
      8 C         -12.0765  -18.2953   23.3502 C.ar    1  UNL1        0.0207
      9 C         -12.9723  -17.7420   22.2818 C.ar    1  UNL1        0.0989
     10 N         -12.4393  -17.5185   20.8976 N.ar    1  UNL1       -0.2423
     11 C         -11.0105  -17.8483   20.5819 C.ar    1  UNL1        0.1004
     12 C          -4.9548  -19.3913   22.1765 C.3     1  UNL1        0.1343
     13 C          -1.4789  -16.8989   20.7781 C.ar    1  UNL1       -0.0000
     14 C          -2.1824  -16.5542   22.0572 C.ar    1  UNL1       -0.0003
     15 C          -3.3410  -17.3850   22.5234 C.ar    1  UNL1       -0.0024
     16 C          -3.7962  -18.5605   21.7104 C.ar    1  UNL1        0.0004
     17 C          -3.0927  -18.9052   20.4312 C.ar    1  UNL1       -0.0024
     18 C          -1.9340  -18.0744   19.9651 C.ar    1  UNL1       -0.0003
@<TRIPOS>BOND
     1    13    14   ar
     2    14    15   ar
     3    15    16   ar
     4    16    12    1
     5    12     1    1
     6     1     2   ar
     7     2     3   ar
     8     3     4   ar
     9     4     6    1
    10     6     7   ar
    11     7     8   ar
    12     8     9   ar
    13     9    10   ar
    14    10    11   ar
    15     4     5   ar
    16    16    17   ar
    17    17    18   ar
    18    18    13   ar
    19     5     1   ar
    20    11     6   ar
@<TRIPOS>MOLECULE
*****
 18 20 0 0 0
SMALL
GASTEIGER

@<TRIPOS>ATOM
      1 N          -7.0639  -19.2205   22.1685 N.ar    1  UNL1       -0.3036
      2 C          -6.8714  -17.7768   22.5275 C.ar    1  UNL1        0.1788
      3 N          -8.2005  -17.2225   22.9478 N.ar    1  UNL1       -0.2238
      4 C          -9.2143  -18.3237   22.8485 C.ar    1  UNL1        0.1017
      5 C          -8.5118  -19.5584   22.3669 C.ar    1  UNL1        0.0967
      6 C         -10.6741  -18.2100   23.1737 C.ar    1  UNL1        0.0383
      7 C         -11.6002  -17.5032   22.2288 C.ar    1  UNL1        0.0047
      8 C         -13.0601  -17.3895   22.5541 C.ar    1  UNL1        0.0207
      9 C         -13.5939  -17.9826   23.8242 C.ar    1  UNL1        0.0989
     10 N         -12.6678  -18.6894   24.7692 N.ar    1  UNL1       -0.2423
     11 C         -11.2079  -18.8031   24.4439 C.ar    1  UNL1        0.1004
     12 C          -5.9959  -20.1610   21.6943 C.3     1  UNL1        0.1343
     13 C          -1.9819  -18.5594   20.4403 C.ar    1  UNL1       -0.0000
     14 C          -3.0596  -18.7663   19.4178 C.ar    1  UNL1       -0.0003
     15 C          -4.3976  -19.3001   19.8358 C.ar    1  UNL1       -0.0024
     16 C          -4.6579  -19.6271   21.2763 C.ar    1  UNL1        0.0004
     17 C          -3.5802  -19.4203   22.2989 C.ar    1  UNL1       -0.0024
     18 C          -2.2422  -18.8865   21.8809 C.ar    1  UNL1       -0.0003
@<TRIPOS>BOND
     1    13    14   ar
     2    14    15   ar
     3    15    16   ar
     4    16    12    1
     5    12     1    1
     6     1     2   ar
     7     2     3   ar
     8     3     4   ar
     9     4     6    1
    10     6     7   ar
    11     7     8   ar
    12     8     9   ar
    13     9    10   ar
    14    10    11   ar
    15     4     5   ar
    16    16    17   ar
    17    17    18   ar
    18    18    13   ar
    19     5     1   ar
    20    11     6   ar
@<TRIPOS>MOLECULE
*****
 18 20 0 0 0
SMALL
GASTEIGER

@<TRIPOS>ATOM
      1 N          -8.0443  -16.6573   23.6047 N.ar    1  UNL1       -0.3036
      2 C          -6.7733  -15.9617   23.9930 C.ar    1  UNL1        0.1788
      3 N          -5.6310  -16.6887   23.3474 N.ar    1  UNL1       -0.2238
      4 C          -6.1961  -17.8337   22.5601 C.ar    1  UNL1        0.1017
      5 C          -7.6875  -17.8143   22.7191 C.ar    1  UNL1        0.0967
      6 C          -5.4081  -18.8241   21.7551 C.ar    1  UNL1        0.0383
      7 C          -6.1190  -19.8697   20.9481 C.ar    1  UNL1        0.0047
      8 C          -5.3310  -20.8602   20.1431 C.ar    1  UNL1        0.0207
      9 C          -3.8320  -20.8051   20.1452 C.ar    1  UNL1        0.0989
     10 N          -3.1210  -19.7595   20.9523 N.ar    1  UNL1       -0.2423
     11 C          -3.9091  -18.7690   21.7572 C.ar    1  UNL1        0.1004
     12 C          -9.4288  -16.2649   24.0277 C.3     1  UNL1        0.1343
     13 C         -12.9884  -17.6751   21.6632 C.ar    1  UNL1       -0.0000
     14 C         -12.6488  -18.3294   22.9695 C.ar    1  UNL1       -0.0003
     15 C         -11.4623  -17.8593   23.7577 C.ar    1  UNL1       -0.0024
     16 C         -10.6154  -16.7350   23.2395 C.ar    1  UNL1        0.0004
     17 C         -10.9550  -16.0807   21.9332 C.ar    1  UNL1       -0.0024
     18 C         -12.1415  -16.5508   21.1450 C.ar    1  UNL1       -0.0003
@<TRIPOS>BOND
     1    13    14   ar
     2    14    15   ar
     3    15    16   ar
     4    16    12    1
     5    12     1    1
     6     1     2   ar
     7     2     3   ar
     8     3     4   ar
     9     4     6    1
    10     6     7   ar
    11     7     8   ar
    12     8     9   ar
    13     9    10   ar
    14    10    11   ar
    15     4     5   ar
    16    16    17   ar
    17    17    18   ar
    18    18    13   ar
    19     5     1   ar
    20    11     6   ar
@<TRIPOS>MOLECULE
*****
 18 20 0 0 0
SMALL
GASTEIGER

@<TRIPOS>ATOM
      1 N          -5.5087  -16.9729   23.3961 N.ar    1  UNL1       -0.3036
      2 C          -6.1019  -15.6623   23.8210 C.ar    1  UNL1        0.1788
      3 N          -7.5268  -15.6251   23.3535 N.ar    1  UNL1       -0.2238
      4 C          -7.8141  -16.9127   22.6396 C.ar    1  UNL1        0.1017
      5 C          -6.5669  -17.7457   22.6660 C.ar    1  UNL1        0.0967
      6 C          -9.1194  -17.2994   22.0100 C.ar    1  UNL1        0.0383
      7 C          -9.2510  -18.6171   21.3053 C.ar    1  UNL1        0.0047
      8 C         -10.5564  -19.0038   20.6757 C.ar    1  UNL1        0.0207
      9 C         -11.7301  -18.0729   20.7506 C.ar    1  UNL1        0.0989
     10 N         -11.5986  -16.7552   21.4553 N.ar    1  UNL1       -0.2423
     11 C         -10.2932  -16.3685   22.0849 C.ar    1  UNL1        0.1004
     12 C          -4.1040  -17.4303   23.6558 C.3     1  UNL1        0.1343
     13 C          -1.2703  -18.0585   20.2169 C.ar    1  UNL1       -0.0000
     14 C          -2.0776  -19.2080   20.7431 C.ar    1  UNL1       -0.0003
     15 C          -3.0221  -18.9986   21.8894 C.ar    1  UNL1       -0.0024
     16 C          -3.1594  -17.6397   22.5095 C.ar    1  UNL1        0.0004
     17 C          -2.3521  -16.4903   21.9833 C.ar    1  UNL1       -0.0024
     18 C          -1.4076  -16.6997   20.8370 C.ar    1  UNL1       -0.0003
@<TRIPOS>BOND
     1    13    14   ar
     2    14    15   ar
     3    15    16   ar
     4    16    12    1
     5    12     1    1
     6     1     2   ar
     7     2     3   ar
     8     3     4   ar
     9     4     6    1
    10     6     7   ar
    11     7     8   ar
    12     8     9   ar
    13     9    10   ar
    14    10    11   ar
    15     4     5   ar
    16    16    17   ar
    17    17    18   ar
    18    18    13   ar
    19     5     1   ar
    20    11     6   ar
@<TRIPOS>MOLECULE
*****
 18 20 0 0 0
SMALL
GASTEIGER

@<TRIPOS>ATOM
      1 N          -7.8412  -16.5547   23.6499 N.ar    1  UNL1       -0.3036
      2 C          -6.5343  -15.9305   24.0406 C.ar    1  UNL1        0.1788
      3 N          -5.4341  -16.7047   23.3771 N.ar    1  UNL1       -0.2238
      4 C          -6.0609  -17.8074   22.5764 C.ar    1  UNL1        0.1017
      5 C          -7.5485  -17.7147   22.7450 C.ar    1  UNL1        0.0967
      6 C          -5.3288  -18.8242   21.7519 C.ar    1  UNL1        0.0383
      7 C          -3.8295  -18.8138   21.7060 C.ar    1  UNL1        0.0047
      8 C          -3.0973  -19.8307   20.8815 C.ar    1  UNL1        0.0207
      9 C          -3.8643  -20.8579   20.1027 C.ar    1  UNL1        0.0989
     10 N          -5.3637  -20.8683   20.1485 N.ar    1  UNL1       -0.2423
     11 C          -6.0958  -19.8514   20.9731 C.ar    1  UNL1        0.1004
     12 C          -9.2016  -16.0990   24.0874 C.3     1  UNL1        0.1343
     13 C         -12.8820  -17.8442   22.1744 C.ar    1  UNL1       -0.0000
     14 C         -12.2906  -16.5730   21.6412 C.ar    1  UNL1       -0.0003
     15 C         -11.0638  -15.9913   22.2789 C.ar    1  UNL1       -0.0024
     16 C         -10.4284  -16.6807   23.4497 C.ar    1  UNL1        0.0004
     17 C         -11.0198  -17.9519   23.9829 C.ar    1  UNL1       -0.0024
     18 C         -12.2466  -18.5336   23.3452 C.ar    1  UNL1       -0.0003
@<TRIPOS>BOND
     1    13    14   ar
     2    14    15   ar
     3    15    16   ar
     4    16    12    1
     5    12     1    1
     6     1     2   ar
     7     2     3   ar
     8     3     4   ar
     9     4     6    1
    10     6     7   ar
    11     7     8   ar
    12     8     9   ar
    13     9    10   ar
    14    10    11   ar
    15     4     5   ar
    16    16    17   ar
    17    17    18   ar
    18    18    13   ar
    19     5     1   ar
    20    11     6   ar
@<TRIPOS>MOLECULE
*****
 18 20 0 0 0
SMALL
GASTEIGER

@<TRIPOS>ATOM
      1 N          -6.3621  -19.0122   22.2387 N.ar    1  UNL1       -0.3036
      2 C          -6.1329  -17.7810   23.0643 C.ar    1  UNL1        0.1788
      3 N          -4.7575  -17.2666   22.7576 N.ar    1  UNL1       -0.2238
      4 C          -4.1368  -18.1799   21.7425 C.ar    1  UNL1        0.1017
      5 C          -5.1283  -19.2588   21.4218 C.ar    1  UNL1        0.0967
      6 C          -2.7652  -18.0392   21.1518 C.ar    1  UNL1        0.0383
      7 C          -2.0966  -16.6968   21.1198 C.ar    1  UNL1        0.0047
      8 C          -0.7250  -16.5561   20.5291 C.ar    1  UNL1        0.0207
      9 C          -0.0221  -17.7576   19.9703 C.ar    1  UNL1        0.0989
     10 N          -0.6907  -19.1000   20.0023 N.ar    1  UNL1       -0.2423
     11 C          -2.0623  -19.2407   20.5930 C.ar    1  UNL1        0.1004
     12 C          -7.6064  -19.8498   22.2313 C.3     1  UNL1        0.1343
     13 C         -11.4523  -18.1517   20.6267 C.ar    1  UNL1       -0.0000
     14 C         -11.1416  -18.0521   22.0908 C.ar    1  UNL1       -0.0003
     15 C          -9.8596  -18.6181   22.6256 C.ar    1  UNL1       -0.0024
     16 C          -8.8883  -19.2838   21.6965 C.ar    1  UNL1        0.0004
     17 C          -9.1990  -19.3834   20.2324 C.ar    1  UNL1       -0.0024
     18 C         -10.4810  -18.8174   19.6975 C.ar    1  UNL1       -0.0003
@<TRIPOS>BOND
     1    13    14   ar
     2    14    15   ar
     3    15    16   ar
     4    16    12    1
     5    12     1    1
     6     1     2   ar
     7     2     3   ar
     8     3     4   ar
     9     4     6    1
    10     6     7   ar
    11     7     8   ar
    12     8     9   ar
    13     9    10   ar
    14    10    11   ar
    15     4     5   ar
    16    16    17   ar
    17    17    18   ar
    18    18    13   ar
    19     5     1   ar
    20    11     6   ar
@<TRIPOS>MOLECULE
*****
 18 20 0 0 0
SMALL
GASTEIGER

@<TRIPOS>ATOM
      1 N          -5.8131  -19.4797   20.6311 N.ar    1  UNL1       -0.3036
      2 C          -7.1588  -19.4844   19.9685 C.ar    1  UNL1        0.1788
      3 N          -8.0890  -18.6538   20.8023 N.ar    1  UNL1       -0.2238
      4 C          -7.3181  -18.1358   21.9802 C.ar    1  UNL1        0.1017
      5 C          -5.9116  -18.6462   21.8744 C.ar    1  UNL1        0.0967
      6 C          -7.8588  -17.2611   23.0721 C.ar    1  UNL1        0.0383
      7 C          -7.1921  -15.9546   23.3859 C.ar    1  UNL1        0.0047
      8 C          -7.7328  -15.0798   24.4778 C.ar    1  UNL1        0.0207
      9 C          -8.9403  -15.5115   25.2560 C.ar    1  UNL1        0.0989
     10 N          -9.6071  -16.8181   24.9423 N.ar    1  UNL1       -0.2423
     11 C          -9.0663  -17.6928   23.8503 C.ar    1  UNL1        0.1004
     12 C          -4.5847  -20.1846   20.1372 C.3     1  UNL1        0.1343
     13 C          -0.7088  -17.9343   19.7322 C.ar    1  UNL1       -0.0000
     14 C          -1.7525  -17.8295   18.6600 C.ar    1  UNL1       -0.0003
     15 C          -3.0445  -18.5795   18.7950 C.ar    1  UNL1       -0.0024
     16 C          -3.2927  -19.4345   20.0022 C.ar    1  UNL1        0.0004
     17 C          -2.2490  -19.5393   21.0744 C.ar    1  UNL1       -0.0024
     18 C          -0.9571  -18.7892   20.9394 C.ar    1  UNL1       -0.0003
@<TRIPOS>BOND
     1    13    14   ar
     2    14    15   ar
     3    15    16   ar
     4    16    12    1
     5    12     1    1
     6     1     2   ar
     7     2     3   ar
     8     3     4   ar
     9     4     6    1
    10     6     7   ar
    11     7     8   ar
    12     8     9   ar
    13     9    10   ar
    14    10    11   ar
    15     4     5   ar
    16    16    17   ar
    17    17    18   ar
    18    18    13   ar
    19     5     1   ar
    20    11     6   ar
