@<TRIPOS>MOLECULE
*****
 33 35 0 0 0
SMALL
GASTEIGER

@<TRIPOS>ATOM
      1 C           6.1104   -2.6462   32.1486 C.ar    1  UNL1        0.0758
      2 C           4.7783   -2.7521   32.8301 C.ar    1  UNL1        0.0181
      3 C           4.4206   -1.7973   33.9304 C.ar    1  UNL1        0.0164
      4 C           5.3951   -0.7366   34.3492 C.ar    1  UNL1        0.0594
      5 C           6.7272   -0.6307   33.6678 C.ar    1  UNL1        0.0459
      6 C           7.0848   -1.5855   32.5675 C.ar    1  UNL1        0.1546
      7 F           8.4169   -1.4795   31.8860 F       1  UNL1       -0.2028
      8 C           7.8477   -7.3856   24.9266 C.3     1  UNL1        0.1122
      9 N           7.7108   -6.9655   26.3601 N.am    1  UNL1       -0.2860
     10 C           7.1747   -5.6053   26.6951 C.2     1  UNL1        0.3173
     11 O           6.7755   -4.6651   25.5967 O.2     1  UNL1       -0.2513
     12 N           7.0378   -5.1852   28.1286 N.am    1  UNL1       -0.2072
     13 C           6.4919   -3.8062   28.3535 C.3     1  UNL1        0.1342
     14 C           6.2383   -3.1012   29.6528 C.3     1  UNL1        0.1141
     15 N           6.4680   -3.6009   31.0484 N.pl3   1  UNL1       -0.3025
     16 C           7.0080   -4.9291   31.4892 C.3     1  UNL1        0.1096
     17 C           7.4517   -6.0856   30.6432 C.3     1  UNL1        0.1092
     18 N           7.4650   -6.1996   29.1477 N.3     1  UNL1       -0.2237
     19 H           7.9728   -7.5826   27.0810 H       1  UNL1        0.1511
     20 H           6.8910   -7.0190   28.9488 H       1  UNL1        0.1454
     21 N           5.0375    0.2181   35.4494 N.am    1  UNL1       -0.2212
     22 C           3.9550    1.2553   35.3996 C.3     1  UNL1        0.1468
     23 C           3.9481    1.9815   36.7121 C.3     1  UNL1        0.2101
     24 O           5.0262    1.3931   37.5731 O.3     1  UNL1       -0.4345
     25 C           5.6996    0.3032   36.7927 C.2     1  UNL1        0.4088
     26 O           6.8355   -0.5514   37.2716 O.2     1  UNL1       -0.2258
     27 C           3.0250    3.0997   37.0961 C.3     1  UNL1        0.1358
     28 N           2.5967    3.2617   38.5245 N.am    1  UNL1       -0.2954
     29 H           2.9136    4.0321   39.0491 H       1  UNL1        0.1502
     30 C           1.6854    2.2498   39.1536 C.2     1  UNL1        0.2296
     31 S           0.2249    2.5524   39.3130 S.2     1  UNL1        0.0058
     32 O           2.2346    0.9354   39.6234 O.3     1  UNL1       -0.4543
     33 C           1.3407   -0.2666   39.7000 C.3     1  UNL1        0.2545
@<TRIPOS>BOND
     1     8     9    1
     2     9    10   am
     3    10    11    2
     4    10    12   am
     5    12    13    1
     6    13    14    1
     7    14    15    1
     8    15     1    1
     9     1     2   ar
    10     2     3   ar
    11     3     4   ar
    12     4    21    1
    13    21    22    1
    14    22    23    1
    15    23    27    1
    16    27    28    1
    17    28    30    1
    18    30    31    2
    19    30    32    1
    20    32    33    1
    21    23    24    1
    22    24    25    1
    23    25    26    2
    24     4     5   ar
    25     5     6   ar
    26     6     7    1
    27    15    16    1
    28    16    17    1
    29    17    18    1
    30    18    12    1
    31     6     1   ar
    32    25    21   am
    33     9    19    1
    34    28    29    1
    35    18    20    1
@<TRIPOS>MOLECULE
*****
 33 35 0 0 0
SMALL
GASTEIGER

@<TRIPOS>ATOM
      1 C           6.1530   -2.0727   32.5687 C.ar    1  UNL1        0.0758
      2 C           7.1296   -0.9392   32.6751 C.ar    1  UNL1        0.0181
      3 C           6.8852    0.1722   33.6525 C.ar    1  UNL1        0.0164
      4 C           5.6641    0.1499   34.5235 C.ar    1  UNL1        0.0594
      5 C           4.6875   -0.9836   34.4171 C.ar    1  UNL1        0.0459
      6 C           4.9319   -2.0950   33.4396 C.ar    1  UNL1        0.1546
      7 F           3.9553   -3.2285   33.3332 F       1  UNL1       -0.2028
      8 C           7.3940   -7.7740   25.9662 C.3     1  UNL1        0.1122
      9 N           7.2716   -7.1854   27.3404 N.am    1  UNL1       -0.2860
     10 C           6.9426   -5.7315   27.5071 C.2     1  UNL1        0.3173
     11 O           6.7360   -4.8661   26.2994 O.2     1  UNL1       -0.2513
     12 N           6.8202   -5.1429   28.8813 N.am    1  UNL1       -0.2072
     13 C           6.4885   -3.6810   28.9361 C.3     1  UNL1        0.1342
     14 C           6.3004   -2.8093   30.1421 C.3     1  UNL1        0.1141
     15 N           6.3975   -3.1840   31.5913 N.pl3   1  UNL1       -0.3025
     16 C           6.7067   -4.5231   32.1924 C.3     1  UNL1        0.1096
     17 C           6.9952   -5.8181   31.4926 C.3     1  UNL1        0.1092
     18 N           7.0457   -6.0940   30.0192 N.3     1  UNL1       -0.2237
     19 H           7.4072   -7.7534   28.1331 H       1  UNL1        0.1511
     20 H           6.3585   -6.8336   29.8740 H       1  UNL1        0.1454
     21 N           5.4197    1.2612   35.5008 N.am    1  UNL1       -0.2212
     22 C           5.0727    1.0994   36.9511 C.3     1  UNL1        0.1468
     23 C           4.9178    2.4676   37.5462 C.3     1  UNL1        0.2101
     24 O           5.1692    3.4750   36.4636 O.3     1  UNL1       -0.4345
     25 C           5.4793    2.7294   35.1995 C.2     1  UNL1        0.4088
     26 O           5.7939    3.3441   33.8678 O.2     1  UNL1       -0.2258
     27 C           4.5723    2.7746   38.9732 C.3     1  UNL1        0.1358
     28 N           3.1841    3.2162   39.3305 N.am    1  UNL1       -0.2954
     29 H           3.0512    3.9537   39.9690 H       1  UNL1        0.1502
     30 C           1.9983    2.5344   38.7149 C.2     1  UNL1        0.2296
     31 S           1.7352    1.0853   38.9994 S.2     1  UNL1        0.0058
     32 O           1.0757    3.3015   37.8148 O.3     1  UNL1       -0.4543
     33 C           1.6382    4.1782   36.7354 C.3     1  UNL1        0.2545
@<TRIPOS>BOND
     1     8     9    1
     2     9    10   am
     3    10    11    2
     4    10    12   am
     5    12    13    1
     6    13    14    1
     7    14    15    1
     8    15     1    1
     9     1     2   ar
    10     2     3   ar
    11     3     4   ar
    12     4    21    1
    13    21    22    1
    14    22    23    1
    15    23    27    1
    16    27    28    1
    17    28    30    1
    18    30    31    2
    19    30    32    1
    20    32    33    1
    21    23    24    1
    22    24    25    1
    23    25    26    2
    24     4     5   ar
    25     5     6   ar
    26     6     7    1
    27    15    16    1
    28    16    17    1
    29    17    18    1
    30    18    12    1
    31     6     1   ar
    32    25    21   am
    33     9    19    1
    34    28    29    1
    35    18    20    1
@<TRIPOS>MOLECULE
*****
 33 35 0 0 0
SMALL
GASTEIGER

@<TRIPOS>ATOM
      1 C         -15.2356   -2.7495   19.1264 C.ar    1  UNL1        0.0758
      2 C         -16.2015   -3.4147   18.1912 C.ar    1  UNL1        0.0181
      3 C         -16.2800   -4.9116   18.1340 C.ar    1  UNL1        0.0164
      4 C         -15.3925   -5.7433   19.0120 C.ar    1  UNL1        0.0594
      5 C         -14.4266   -5.0781   19.9471 C.ar    1  UNL1        0.0459
      6 C         -14.3482   -3.5811   20.0044 C.ar    1  UNL1        0.1546
      7 F         -13.3823   -2.9159   20.9395 F       1  UNL1       -0.2028
      8 C         -15.8173    5.9913   20.0737 C.3     1  UNL1        0.1122
      9 N         -15.3281    4.6260   19.6908 N.am    1  UNL1       -0.2860
     10 C         -16.1198    3.4109   20.0737 C.2     1  UNL1        0.3173
     11 O         -17.4007    3.5611   20.8396 O.2     1  UNL1       -0.2513
     12 N         -15.6306    2.0456   19.6908 N.am    1  UNL1       -0.2072
     13 C         -16.4965    0.8992   20.1223 C.3     1  UNL1        0.1342
     14 C         -16.2858   -0.5685   19.8966 C.3     1  UNL1        0.1141
     15 N         -15.1572   -1.2527   19.1836 N.pl3   1  UNL1       -0.3025
     16 C         -13.9606   -0.6379   18.5203 C.3     1  UNL1        0.1096
     17 C         -13.5970    0.8130   18.4061 C.3     1  UNL1        0.1092
     18 N         -14.3401    2.0072   18.9270 N.3     1  UNL1       -0.2237
     19 H         -14.4874    4.5275   19.1881 H       1  UNL1        0.1511
     20 H         -14.5149    2.5796   18.1010 H       1  UNL1        0.1454
     21 N         -15.4710   -7.2401   18.9548 N.am    1  UNL1       -0.2212
     22 C         -16.6694   -8.0740   19.2990 C.3     1  UNL1        0.1468
     23 C         -16.3038   -9.5151   19.1003 C.3     1  UNL1        0.2101
     24 O         -14.8796   -9.5719   18.6333 O.3     1  UNL1       -0.4345
     25 C         -14.3648   -8.1658   18.5433 C.2     1  UNL1        0.4088
     26 O         -12.9859   -7.7573   18.1168 O.2     1  UNL1       -0.2258
     27 C         -17.2044  -10.6928   19.3285 C.3     1  UNL1        0.1358
     28 N         -18.1471  -11.1364   18.2493 N.am    1  UNL1       -0.2954
     29 H         -18.0776  -12.0456   17.8782 H       1  UNL1        0.1502
     30 C         -19.1955  -10.1947   17.7355 C.2     1  UNL1        0.2296
     31 S         -20.3543   -9.8139   18.6085 S.2     1  UNL1        0.0058
     32 O         -19.0851   -9.6338   16.3487 O.3     1  UNL1       -0.4543
     33 C         -18.7017   -8.1975   16.1489 C.3     1  UNL1        0.2545
@<TRIPOS>BOND
     1     8     9    1
     2     9    10   am
     3    10    11    2
     4    10    12   am
     5    12    13    1
     6    13    14    1
     7    14    15    1
     8    15     1    1
     9     1     2   ar
    10     2     3   ar
    11     3     4   ar
    12     4    21    1
    13    21    22    1
    14    22    23    1
    15    23    27    1
    16    27    28    1
    17    28    30    1
    18    30    31    2
    19    30    32    1
    20    32    33    1
    21    23    24    1
    22    24    25    1
    23    25    26    2
    24     4     5   ar
    25     5     6   ar
    26     6     7    1
    27    15    16    1
    28    16    17    1
    29    17    18    1
    30    18    12    1
    31     6     1   ar
    32    25    21   am
    33     9    19    1
    34    28    29    1
    35    18    20    1
@<TRIPOS>MOLECULE
*****
 33 35 0 0 0
SMALL
GASTEIGER

@<TRIPOS>ATOM
      1 C           3.4377   -0.1924   28.5086 C.ar    1  UNL1        0.0758
      2 C           4.8126    0.0640   29.0507 C.ar    1  UNL1        0.0181
      3 C           5.0484    0.0557   30.5321 C.ar    1  UNL1        0.0164
      4 C           3.9091   -0.2091   31.4714 C.ar    1  UNL1        0.0594
      5 C           2.5342   -0.4655   30.9292 C.ar    1  UNL1        0.0459
      6 C           2.2985   -0.4572   29.4478 C.ar    1  UNL1        0.1546
      7 F           0.9236   -0.7136   28.9057 F       1  UNL1       -0.2028
      8 C           2.7831   -1.1070   19.7694 C.3     1  UNL1        0.1122
      9 N           2.6088   -0.5950   21.1685 N.am    1  UNL1       -0.2860
     10 C           3.3056   -1.2763   22.3088 C.2     1  UNL1        0.3173
     11 O           4.1768   -2.4696   22.0499 O.2     1  UNL1       -0.2513
     12 N           3.1313   -0.7644   23.7079 N.am    1  UNL1       -0.2072
     13 C           3.8713   -1.5174   24.7735 C.3     1  UNL1        0.1342
     14 C           3.9027   -1.2591   26.2506 C.3     1  UNL1        0.1141
     15 N           3.2020   -0.1840   27.0273 N.pl3   1  UNL1       -0.3025
     16 C           2.2967    0.8983   26.5184 C.3     1  UNL1        0.1096
     17 C           1.8685    1.1728   25.1073 C.3     1  UNL1        0.1092
     18 N           2.2399    0.4330   23.8565 N.3     1  UNL1       -0.2237
     19 H           2.0370    0.1882   21.3384 H       1  UNL1        0.1511
     20 H           2.6616    1.1416   23.2562 H       1  UNL1        0.1454
     21 N           4.1448   -0.2174   32.9526 N.am    1  UNL1       -0.2212
     22 C           4.1283    0.9808   33.8548 C.3     1  UNL1        0.1468
     23 C           4.4117    0.5133   35.2517 C.3     1  UNL1        0.2101
     24 O           4.6034   -0.9738   35.2128 O.3     1  UNL1       -0.4345
     25 C           4.4385   -1.4255   33.7919 C.2     1  UNL1        0.4088
     26 O           4.5480   -2.8373   33.2971 O.2     1  UNL1       -0.2258
     27 C           4.4897    1.3807   36.4730 C.3     1  UNL1        0.1358
     28 N           3.6841    1.0360   37.6904 N.am    1  UNL1       -0.2954
     29 H           3.9663    0.2950   38.2738 H       1  UNL1        0.1502
     30 C           2.4485    1.8204   38.0189 C.2     1  UNL1        0.2296
     31 S           2.4638    3.3175   37.9264 S.2     1  UNL1        0.0058
     32 O           1.1975    1.1078   38.4399 O.3     1  UNL1       -0.4543
     33 C           1.2367    0.1337   39.5799 C.3     1  UNL1        0.2545
@<TRIPOS>BOND
     1     8     9    1
     2     9    10   am
     3    10    11    2
     4    10    12   am
     5    12    13    1
     6    13    14    1
     7    14    15    1
     8    15     1    1
     9     1     2   ar
    10     2     3   ar
    11     3     4   ar
    12     4    21    1
    13    21    22    1
    14    22    23    1
    15    23    27    1
    16    27    28    1
    17    28    30    1
    18    30    31    2
    19    30    32    1
    20    32    33    1
    21    23    24    1
    22    24    25    1
    23    25    26    2
    24     4     5   ar
    25     5     6   ar
    26     6     7    1
    27    15    16    1
    28    16    17    1
    29    17    18    1
    30    18    12    1
    31     6     1   ar
    32    25    21   am
    33     9    19    1
    34    28    29    1
    35    18    20    1
@<TRIPOS>MOLECULE
*****
 33 35 0 0 0
SMALL
GASTEIGER

@<TRIPOS>ATOM
      1 C           0.4747    2.2695   29.2989 C.ar    1  UNL1        0.0758
      2 C           0.4842    3.6730   28.7698 C.ar    1  UNL1        0.0181
      3 C          -0.2601    4.0049   27.5104 C.ar    1  UNL1        0.0164
      4 C          -1.0141    2.9332   26.7802 C.ar    1  UNL1        0.0594
      5 C          -1.0236    1.5297   27.3094 C.ar    1  UNL1        0.0459
      6 C          -0.2793    1.1978   28.5687 C.ar    1  UNL1        0.1546
      7 F          -0.2888   -0.2058   29.0979 F       1  UNL1       -0.2028
      8 C           5.4338   -0.5040   36.0333 C.3     1  UNL1        0.1122
      9 N           4.4245    0.2494   35.2186 N.am    1  UNL1       -0.2860
     10 C           4.2492   -0.0664   33.7628 C.2     1  UNL1        0.3173
     11 O           5.0833   -1.1355   33.1216 O.2     1  UNL1       -0.2513
     12 N           3.2399    0.6870   32.9482 N.am    1  UNL1       -0.2072
     13 C           3.1447    0.2935   31.5038 C.3     1  UNL1        0.1342
     14 C           2.2453    0.8501   30.4402 C.3     1  UNL1        0.1141
     15 N           1.2190    1.9377   30.5582 N.pl3   1  UNL1       -0.3025
     16 C           0.8386    2.7372   31.7689 C.3     1  UNL1        0.1096
     17 C           1.3906    2.6467   33.1607 C.3     1  UNL1        0.1092
     18 N           2.4592    1.7344   33.6856 N.3     1  UNL1       -0.2237
     19 H           3.8771    0.9511   35.6395 H       1  UNL1        0.1511
     20 H           2.0107    1.2284   34.4493 H       1  UNL1        0.1454
     21 N          -1.7584    3.2650   25.5210 N.am    1  UNL1       -0.2212
     22 C          -1.1717    3.3340   24.1422 C.3     1  UNL1        0.1468
     23 C          -2.2708    3.6978   23.1884 C.3     1  UNL1        0.2101
     24 O          -3.5367    3.8536   23.9777 O.3     1  UNL1       -0.4345
     25 C          -3.2201    3.5862   25.4194 C.2     1  UNL1        0.4088
     26 O          -4.1940    3.6319   26.5593 O.2     1  UNL1       -0.2258
     27 C          -2.1289    3.8746   21.7057 C.3     1  UNL1        0.1358
     28 N          -1.9188    2.6791   20.8244 N.am    1  UNL1       -0.2954
     29 H          -2.6934    2.2104   20.4378 H       1  UNL1        0.1502
     30 C          -0.5285    2.1978   20.5322 C.2     1  UNL1        0.2296
     31 S           0.3411    2.9550   19.5728 S.2     1  UNL1        0.0058
     32 O          -0.0078    0.9594   21.1994 O.3     1  UNL1       -0.4543
     33 C           0.6042   -0.1352   20.3764 C.3     1  UNL1        0.2545
@<TRIPOS>BOND
     1     8     9    1
     2     9    10   am
     3    10    11    2
     4    10    12   am
     5    12    13    1
     6    13    14    1
     7    14    15    1
     8    15     1    1
     9     1     2   ar
    10     2     3   ar
    11     3     4   ar
    12     4    21    1
    13    21    22    1
    14    22    23    1
    15    23    27    1
    16    27    28    1
    17    28    30    1
    18    30    31    2
    19    30    32    1
    20    32    33    1
    21    23    24    1
    22    24    25    1
    23    25    26    2
    24     4     5   ar
    25     5     6   ar
    26     6     7    1
    27    15    16    1
    28    16    17    1
    29    17    18    1
    30    18    12    1
    31     6     1   ar
    32    25    21   am
    33     9    19    1
    34    28    29    1
    35    18    20    1
@<TRIPOS>MOLECULE
*****
 33 35 0 0 0
SMALL
GASTEIGER

@<TRIPOS>ATOM
      1 C           0.5175    2.0715   19.4048 C.ar    1  UNL1        0.0758
      2 C           0.5171    0.6336   19.8317 C.ar    1  UNL1        0.0181
      3 C           1.7261   -0.2210   19.5900 C.ar    1  UNL1        0.0164
      4 C           2.9354    0.3625   18.9214 C.ar    1  UNL1        0.0594
      5 C           2.9358    1.8005   18.4945 C.ar    1  UNL1        0.0459
      6 C           1.7269    2.6550   18.7362 C.ar    1  UNL1        0.1546
      7 F           1.7273    4.0930   18.3092 F       1  UNL1       -0.2028
      8 C          -6.4837    6.7588   21.9835 C.3     1  UNL1        0.1122
      9 N          -5.4124    6.1425   21.1335 N.am    1  UNL1       -0.2860
     10 C          -4.3903    5.2372   21.7546 C.2     1  UNL1        0.3173
     11 O          -4.4395    4.9483   23.2256 O.2     1  UNL1       -0.2513
     12 N          -3.3190    4.6209   20.9046 N.am    1  UNL1       -0.2072
     13 C          -2.3480    3.7322   21.6241 C.3     1  UNL1        0.1342
     14 C          -1.1787    2.9780   21.0642 C.3     1  UNL1        0.1141
     15 N          -0.6913    2.9260   19.6465 N.pl3   1  UNL1       -0.3025
     16 C          -1.2531    3.6154   18.4386 C.3     1  UNL1        0.1096
     17 C          -2.4409    4.5272   18.3501 C.3     1  UNL1        0.1092
     18 N          -3.3603    4.9747   19.4474 N.3     1  UNL1       -0.2237
     19 H          -5.3801    6.3322   20.1680 H       1  UNL1        0.1511
     20 H          -4.2874    4.6815   19.1395 H       1  UNL1        0.1454
     21 N           4.1443   -0.4919   18.6797 N.am    1  UNL1       -0.2212
     22 C           5.2124   -0.8123   19.6829 C.3     1  UNL1        0.1468
     23 C           6.2256   -1.6944   19.0156 C.3     1  UNL1        0.2101
     24 O           5.7837   -1.9192   17.5999 O.3     1  UNL1       -0.4345
     25 C           4.4973   -1.1759   17.3923 C.2     1  UNL1        0.4088
     26 O           3.7035   -1.1257   16.1205 O.2     1  UNL1       -0.2258
     27 C           7.4634   -2.2536   19.6521 C.3     1  UNL1        0.1358
     28 N           7.3544   -3.3573   20.6619 N.am    1  UNL1       -0.2954
     29 H           8.1635   -3.7001   21.1058 H       1  UNL1        0.1502
     30 C           6.0125   -3.9389   20.9956 C.2     1  UNL1        0.2296
     31 S           5.3543   -3.6053   22.3015 S.2     1  UNL1        0.0058
     32 O           5.3289   -4.8539   20.0233 O.3     1  UNL1       -0.4543
     33 C           3.9655   -4.5099   19.5011 C.3     1  UNL1        0.2545
@<TRIPOS>BOND
     1     8     9    1
     2     9    10   am
     3    10    11    2
     4    10    12   am
     5    12    13    1
     6    13    14    1
     7    14    15    1
     8    15     1    1
     9     1     2   ar
    10     2     3   ar
    11     3     4   ar
    12     4    21    1
    13    21    22    1
    14    22    23    1
    15    23    27    1
    16    27    28    1
    17    28    30    1
    18    30    31    2
    19    30    32    1
    20    32    33    1
    21    23    24    1
    22    24    25    1
    23    25    26    2
    24     4     5   ar
    25     5     6   ar
    26     6     7    1
    27    15    16    1
    28    16    17    1
    29    17    18    1
    30    18    12    1
    31     6     1   ar
    32    25    21   am
    33     9    19    1
    34    28    29    1
    35    18    20    1
@<TRIPOS>MOLECULE
*****
 33 35 0 0 0
SMALL
GASTEIGER

@<TRIPOS>ATOM
      1 C           0.6635    1.7348   29.2364 C.ar    1  UNL1        0.0758
      2 C           0.9502    3.0600   28.5949 C.ar    1  UNL1        0.0181
      3 C           0.0968    3.5444   27.4603 C.ar    1  UNL1        0.0164
      4 C          -1.0434    2.7035   26.9673 C.ar    1  UNL1        0.0594
      5 C          -1.3301    1.3782   27.6088 C.ar    1  UNL1        0.0459
      6 C          -0.4767    0.8939   28.7434 C.ar    1  UNL1        0.1546
      7 F          -0.7634   -0.4314   29.3849 F       1  UNL1       -0.2028
      8 C           5.3024   -0.1242   36.4933 C.3     1  UNL1        0.1122
      9 N           4.7097   -0.2051   35.1177 N.am    1  UNL1       -0.2860
     10 C           3.7758    0.8667   34.6391 C.2     1  UNL1        0.3173
     11 O           3.4346    2.0194   35.5361 O.2     1  UNL1       -0.2513
     12 N           3.1832    0.7857   33.2636 N.am    1  UNL1       -0.2072
     13 C           2.2627    1.9078   32.8843 C.3     1  UNL1        0.1342
     14 C           1.5212    2.1146   31.5970 C.3     1  UNL1        0.1141
     15 N           1.5168    1.2505   30.3709 N.pl3   1  UNL1       -0.3025
     16 C           2.2530   -0.0339   30.1293 C.3     1  UNL1        0.1096
     17 C           3.1754   -0.7713   31.0542 C.3     1  UNL1        0.1092
     18 N           3.5894   -0.4067   32.4490 N.3     1  UNL1       -0.2237
     19 H           4.9337   -0.9617   34.5290 H       1  UNL1        0.1511
     20 H           4.6071   -0.3532   32.4077 H       1  UNL1        0.1454
     21 N          -1.8967    3.1878   25.8328 N.am    1  UNL1       -0.2212
     22 C          -1.5323    3.1530   24.3781 C.3     1  UNL1        0.1468
     23 C          -2.6747    3.7356   23.6000 C.3     1  UNL1        0.2101
     24 O          -3.7451    4.1305   24.5737 O.3     1  UNL1       -0.4345
     25 C          -3.2643    3.7919   25.9537 C.2     1  UNL1        0.4088
     26 O          -4.0187    4.0178   27.2304 O.2     1  UNL1       -0.2258
     27 C          -2.7360    3.8953   22.1098 C.3     1  UNL1        0.1358
     28 N          -3.7316    3.1072   21.3113 N.am    1  UNL1       -0.2954
     29 H          -3.5720    2.1529   21.1297 H       1  UNL1        0.1502
     30 C          -4.9702    3.7732   20.7895 C.2     1  UNL1        0.2296
     31 S          -5.4171    3.5260   19.3791 S.2     1  UNL1        0.0058
     32 O          -5.7619    4.6862   21.6780 O.3     1  UNL1       -0.4543
     33 C          -6.7138    4.1126   22.6854 C.3     1  UNL1        0.2545
@<TRIPOS>BOND
     1     8     9    1
     2     9    10   am
     3    10    11    2
     4    10    12   am
     5    12    13    1
     6    13    14    1
     7    14    15    1
     8    15     1    1
     9     1     2   ar
    10     2     3   ar
    11     3     4   ar
    12     4    21    1
    13    21    22    1
    14    22    23    1
    15    23    27    1
    16    27    28    1
    17    28    30    1
    18    30    31    2
    19    30    32    1
    20    32    33    1
    21    23    24    1
    22    24    25    1
    23    25    26    2
    24     4     5   ar
    25     5     6   ar
    26     6     7    1
    27    15    16    1
    28    16    17    1
    29    17    18    1
    30    18    12    1
    31     6     1   ar
    32    25    21   am
    33     9    19    1
    34    28    29    1
    35    18    20    1
@<TRIPOS>MOLECULE
*****
 33 35 0 0 0
SMALL
GASTEIGER

@<TRIPOS>ATOM
      1 C         -13.7027   -2.8052   17.7735 C.ar    1  UNL1        0.0758
      2 C         -14.3490   -3.6032   16.6802 C.ar    1  UNL1        0.0181
      3 C         -14.7283   -5.0346   16.9201 C.ar    1  UNL1        0.0164
      4 C         -14.4612   -5.6678   18.2535 C.ar    1  UNL1        0.0594
      5 C         -13.8149   -4.8698   19.3468 C.ar    1  UNL1        0.0459
      6 C         -13.4356   -3.4384   19.1068 C.ar    1  UNL1        0.1546
      7 F         -12.7892   -2.6404   20.2001 F       1  UNL1       -0.2028
      8 C         -12.6572    5.8430   16.4493 C.3     1  UNL1        0.1122
      9 N         -12.3725    4.3810   16.6266 N.am    1  UNL1       -0.2860
     10 C         -13.4990    3.4223   16.8754 C.2     1  UNL1        0.3173
     11 O         -14.9102    3.9257   16.9468 O.2     1  UNL1       -0.2513
     12 N         -13.2144    1.9603   17.0527 N.am    1  UNL1       -0.2072
     13 C         -14.4110    1.0891   17.2962 C.3     1  UNL1        0.1342
     14 C         -14.4595   -0.3947   17.5102 C.3     1  UNL1        0.1141
     15 N         -13.3234   -1.3739   17.5335 N.pl3   1  UNL1       -0.3025
     16 C         -11.8583   -1.1111   17.3486 C.3     1  UNL1        0.1096
     17 C         -11.1673    0.1959   17.0947 C.3     1  UNL1        0.1092
     18 N         -11.7708    1.5627   16.9630 N.3     1  UNL1       -0.2237
     19 H         -11.4463    4.0506   16.5796 H       1  UNL1        0.1511
     20 H         -11.4735    1.8856   16.0422 H       1  UNL1        0.1454
     21 N         -14.8405   -7.0991   18.4934 N.am    1  UNL1       -0.2212
     22 C         -16.1069   -7.5794   19.1380 C.3     1  UNL1        0.1468
     23 C         -16.0690   -9.0785   19.1739 C.3     1  UNL1        0.2101
     24 O         -14.7792   -9.5246   18.5516 O.3     1  UNL1       -0.4345
     25 C         -14.0198   -8.3013   18.1310 C.2     1  UNL1        0.4088
     26 O         -12.6759   -8.2833   17.4650 O.2     1  UNL1       -0.2258
     27 C         -17.1340   -9.9743   19.7338 C.3     1  UNL1        0.1358
     28 N         -18.0638  -10.7026   18.8093 N.am    1  UNL1       -0.2954
     29 H         -17.8931  -11.6450   18.5814 H       1  UNL1        0.1502
     30 C         -19.2539   -9.9952   18.2320 C.2     1  UNL1        0.2296
     31 S         -19.2931   -9.6643   16.7695 S.2     1  UNL1        0.0058
     32 O         -20.4048   -9.6187   19.1172 O.3     1  UNL1       -0.4543
     33 C         -20.3985   -8.3024   19.8365 C.3     1  UNL1        0.2545
@<TRIPOS>BOND
     1     8     9    1
     2     9    10   am
     3    10    11    2
     4    10    12   am
     5    12    13    1
     6    13    14    1
     7    14    15    1
     8    15     1    1
     9     1     2   ar
    10     2     3   ar
    11     3     4   ar
    12     4    21    1
    13    21    22    1
    14    22    23    1
    15    23    27    1
    16    27    28    1
    17    28    30    1
    18    30    31    2
    19    30    32    1
    20    32    33    1
    21    23    24    1
    22    24    25    1
    23    25    26    2
    24     4     5   ar
    25     5     6   ar
    26     6     7    1
    27    15    16    1
    28    16    17    1
    29    17    18    1
    30    18    12    1
    31     6     1   ar
    32    25    21   am
    33     9    19    1
    34    28    29    1
    35    18    20    1
@<TRIPOS>MOLECULE
*****
 33 35 0 0 0
SMALL
GASTEIGER

@<TRIPOS>ATOM
      1 C           2.1857    0.5654   25.7554 C.ar    1  UNL1        0.0758
      2 C           1.3814    1.4879   24.8882 C.ar    1  UNL1        0.0181
      3 C           1.4259    1.3434   23.3958 C.ar    1  UNL1        0.0164
      4 C           2.2747    0.2763   22.7706 C.ar    1  UNL1        0.0594
      5 C           3.0790   -0.6463   23.6378 C.ar    1  UNL1        0.0459
      6 C           3.0345   -0.5018   25.1302 C.ar    1  UNL1        0.1546
      7 F           3.8388   -1.4243   25.9974 F       1  UNL1       -0.2028
      8 C           3.0921    1.7196   34.4436 C.3     1  UNL1        0.1122
      9 N           2.5037    1.4205   33.0966 N.am    1  UNL1       -0.2860
     10 C           3.3564    1.5203   31.8667 C.2     1  UNL1        0.3173
     11 O           4.7976    1.9193   31.9837 O.2     1  UNL1       -0.2513
     12 N           2.7680    1.2212   30.5197 N.am    1  UNL1       -0.2072
     13 C           3.7060    1.3509   29.3563 C.3     1  UNL1        0.1342
     14 C           3.4270    1.1233   27.9003 C.3     1  UNL1        0.1141
     15 N           2.1412    0.7099   27.2477 N.pl3   1  UNL1       -0.3025
     16 C           0.8167    0.4220   27.8903 C.3     1  UNL1        0.1096
     17 C           0.4511    0.4763   29.3440 C.3     1  UNL1        0.1092
     18 N           1.3193    0.8319   30.5142 N.3     1  UNL1       -0.2237
     19 H           1.5577    1.1587   33.0198 H       1  UNL1        0.1511
     20 H           1.2715    0.0165   31.1250 H       1  UNL1        0.1454
     21 N           2.3192    0.1317   21.2783 N.am    1  UNL1       -0.2212
     22 C           3.5470   -0.1151   20.4526 C.3     1  UNL1        0.1468
     23 C           3.1303   -0.1907   19.0136 C.3     1  UNL1        0.2101
     24 O           1.6452    0.0093   18.9500 O.3     1  UNL1       -0.4345
     25 C           1.1438    0.2086   20.3497 C.2     1  UNL1        0.4088
     26 O          -0.2825    0.4436   20.7503 O.2     1  UNL1       -0.2258
     27 C           4.0393   -0.4253   17.8437 C.3     1  UNL1        0.1358
     28 N           4.3050   -1.8230   17.3687 N.am    1  UNL1       -0.2954
     29 H           3.8276   -2.1749   16.5828 H       1  UNL1        0.1502
     30 C           5.2979   -2.6847   18.0909 C.2     1  UNL1        0.2296
     31 S           6.7156   -2.2218   18.2518 S.2     1  UNL1        0.0058
     32 O           4.8731   -4.0092   18.6523 O.3     1  UNL1       -0.4543
     33 C           3.5032   -4.1694   19.2420 C.3     1  UNL1        0.2545
@<TRIPOS>BOND
     1     8     9    1
     2     9    10   am
     3    10    11    2
     4    10    12   am
     5    12    13    1
     6    13    14    1
     7    14    15    1
     8    15     1    1
     9     1     2   ar
    10     2     3   ar
    11     3     4   ar
    12     4    21    1
    13    21    22    1
    14    22    23    1
    15    23    27    1
    16    27    28    1
    17    28    30    1
    18    30    31    2
    19    30    32    1
    20    32    33    1
    21    23    24    1
    22    24    25    1
    23    25    26    2
    24     4     5   ar
    25     5     6   ar
    26     6     7    1
    27    15    16    1
    28    16    17    1
    29    17    18    1
    30    18    12    1
    31     6     1   ar
    32    25    21   am
    33     9    19    1
    34    28    29    1
    35    18    20    1
