@<TRIPOS>MOLECULE
*****
 35 38 0 0 0
SMALL
GASTEIGER

@<TRIPOS>ATOM
      1 N           0.2873    0.8196   21.4940 N.am    1  UNL1       -0.2809
      2 C           0.6508    1.9689   22.3867 C.2     1  UNL1        0.2471
      3 O           1.9383    2.7077   22.1714 O.2     1  UNL1       -0.2701
      4 H          -0.5578    0.3347   21.6353 H       1  UNL1        0.1552
      5 C           0.3971    2.4228   18.9607 C.3     1  UNL1        0.0324
      6 C           1.2662    1.2107   19.1194 C.ar    1  UNL1       -0.0061
      7 C           2.1903    0.8001   18.0115 C.ar    1  UNL1        0.0266
      8 C           3.0595   -0.4121   18.1702 C.ar    1  UNL1        0.1400
      9 F           3.9835   -0.8227   17.0622 F       1  UNL1       -0.2042
     10 C           3.0046   -1.2137   19.4368 C.ar    1  UNL1        0.0334
     11 C           2.0805   -0.8031   20.5447 C.ar    1  UNL1        0.0167
     12 C           1.2114    0.4091   20.3860 C.ar    1  UNL1        0.0466
     13 C           3.8737   -2.4259   19.5956 C.ar    1  UNL1        0.0614
     14 C           3.3826   -3.7664   19.1352 C.ar    1  UNL1        0.0273
     15 C           4.2518   -4.9785   19.2939 C.ar    1  UNL1        0.1204
     16 N           5.6120   -4.8503   19.9130 N.ar    1  UNL1       -0.1652
     17 N           6.1031   -3.5098   20.3733 N.ar    1  UNL1       -0.2145
     18 C           7.4634   -3.3815   20.9924 C.3     1  UNL1        0.1571
     19 C           5.2339   -2.2976   20.2146 C.ar    1  UNL1        0.2765
     20 O           5.7251   -0.9571   20.6750 O.2     1  UNL1       -0.2655
     21 C          -0.2733    2.3795   23.4947 C.2     1  UNL1        0.0505
     22 C          -0.0960    1.8074   24.8699 C.2     1  UNL1        0.0680
     23 N          -1.0200    2.2179   25.9779 N.am    1  UNL1       -0.2558
     24 C          -0.8426    1.6459   27.3531 C.3     1  UNL1        0.1200
     25 C          -2.1213    3.2005   25.7106 C.2     1  UNL1        0.2301
     26 O          -3.0454    3.6111   26.8186 O.2     1  UNL1       -0.2745
     27 C          -2.2987    3.7726   24.3354 C.3     1  UNL1        0.0945
     28 C          -1.3747    3.3621   23.2274 C.3     1  UNL1        0.0594
     29 C          -1.5521    3.9341   21.8522 C.ar    1  UNL1       -0.0176
     30 C          -2.5711    3.3469   20.9213 C.ar    1  UNL1       -0.0016
     31 C          -2.7485    3.9190   19.5461 C.ar    1  UNL1        0.0293
     32 C          -1.9068    5.0783   19.1017 C.ar    1  UNL1        0.1401
     33 F          -2.0841    5.6503   17.7265 F       1  UNL1       -0.2042
     34 C          -0.8877    5.6655   20.0326 C.ar    1  UNL1        0.0293
     35 C          -0.7103    5.0934   21.4078 C.ar    1  UNL1       -0.0016
@<TRIPOS>BOND
     1     5     6    1
     2     6     7   ar
     3     7     8   ar
     4     8     9    1
     5     8    10   ar
     6    10    13    1
     7    13    14   ar
     8    14    15   ar
     9    15    16   ar
    10    16    17   ar
    11    17    18    1
    12    17    19   ar
    13    19    20    2
    14    10    11   ar
    15    11    12   ar
    16    12     1    1
    17     1     2   am
    18     2     3    2
    19     2    21    1
    20    21    22    2
    21    22    23    1
    22    23    24    1
    23    23    25   am
    24    25    26    2
    25    25    27    1
    26    27    28    1
    27    28    29    1
    28    29    30   ar
    29    30    31   ar
    30    31    32   ar
    31    32    33    1
    32    32    34   ar
    33    34    35   ar
    34    12     6   ar
    35    28    21    1
    36    35    29   ar
    37    19    13   ar
    38     1     4    1
@<TRIPOS>MOLECULE
*****
 35 38 0 0 0
SMALL
GASTEIGER

@<TRIPOS>ATOM
      1 N           1.7706    1.3269   22.3549 N.am    1  UNL1       -0.2809
      2 C           1.2905    0.4481   21.2382 C.2     1  UNL1        0.2471
      3 O          -0.1703    0.1348   21.1053 O.2     1  UNL1       -0.2701
      4 H           2.7294    1.5325   22.4422 H       1  UNL1        0.1552
      5 C          -0.2347    3.3736   21.4662 C.3     1  UNL1        0.0324
      6 C          -0.2129    2.9159   22.8945 C.ar    1  UNL1       -0.0061
      7 C          -1.1937    3.4815   23.8784 C.ar    1  UNL1        0.0266
      8 C          -1.1719    3.0237   25.3067 C.ar    1  UNL1        0.1400
      9 F          -2.1528    3.5894   26.2906 F       1  UNL1       -0.2042
     10 C          -0.1693    2.0004   25.7511 C.ar    1  UNL1        0.0334
     11 C           0.8115    1.4348   24.7672 C.ar    1  UNL1        0.0167
     12 C           0.7897    1.8926   23.3389 C.ar    1  UNL1        0.0466
     13 C          -0.1474    1.5427   27.1793 C.ar    1  UNL1        0.0614
     14 C          -0.8394    0.2704   27.5698 C.ar    1  UNL1        0.0273
     15 C          -0.8175   -0.1873   28.9981 C.ar    1  UNL1        0.1204
     16 N          -0.1038    0.6272   30.0359 N.ar    1  UNL1       -0.1652
     17 N           0.5881    1.8995   29.6454 N.ar    1  UNL1       -0.2145
     18 C           1.3019    2.7141   30.6832 C.3     1  UNL1        0.1571
     19 C           0.5663    2.3572   28.2171 C.ar    1  UNL1        0.2765
     20 O           1.2583    3.6296   27.8267 O.2     1  UNL1       -0.2655
     21 C           2.2714   -0.1176   20.2543 C.2     1  UNL1        0.0505
     22 C           2.9496   -1.4249   20.5386 C.2     1  UNL1        0.0680
     23 N           3.9304   -1.9906   19.5548 N.am    1  UNL1       -0.2558
     24 C           4.6087   -3.2979   19.8391 C.3     1  UNL1        0.1200
     25 C           4.2331   -1.2489   18.2866 C.2     1  UNL1        0.2301
     26 O           5.2139   -1.8145   17.3027 O.2     1  UNL1       -0.2745
     27 C           3.5549    0.0585   18.0023 C.3     1  UNL1        0.0945
     28 C           2.5740    0.6242   18.9862 C.3     1  UNL1        0.0594
     29 C           1.8958    1.9315   18.7019 C.ar    1  UNL1       -0.0176
     30 C           2.6113    3.2219   18.9717 C.ar    1  UNL1       -0.0016
     31 C           1.9331    4.5293   18.6874 C.ar    1  UNL1        0.0293
     32 C           0.5394    4.5463   18.1333 C.ar    1  UNL1        0.1401
     33 F          -0.1388    5.8536   17.8489 F       1  UNL1       -0.2042
     34 C          -0.1761    3.2559   17.8634 C.ar    1  UNL1        0.0293
     35 C           0.5021    1.9485   18.1477 C.ar    1  UNL1       -0.0016
@<TRIPOS>BOND
     1     5     6    1
     2     6     7   ar
     3     7     8   ar
     4     8     9    1
     5     8    10   ar
     6    10    13    1
     7    13    14   ar
     8    14    15   ar
     9    15    16   ar
    10    16    17   ar
    11    17    18    1
    12    17    19   ar
    13    19    20    2
    14    10    11   ar
    15    11    12   ar
    16    12     1    1
    17     1     2   am
    18     2     3    2
    19     2    21    1
    20    21    22    2
    21    22    23    1
    22    23    24    1
    23    23    25   am
    24    25    26    2
    25    25    27    1
    26    27    28    1
    27    28    29    1
    28    29    30   ar
    29    30    31   ar
    30    31    32   ar
    31    32    33    1
    32    32    34   ar
    33    34    35   ar
    34    12     6   ar
    35    28    21    1
    36    35    29   ar
    37    19    13   ar
    38     1     4    1
@<TRIPOS>MOLECULE
*****
 35 38 0 0 0
SMALL
GASTEIGER

@<TRIPOS>ATOM
      1 N         -14.4263   -2.7675   19.0939 N.am    1  UNL1       -0.2809
      2 C         -14.8436   -3.7903   18.0792 C.2     1  UNL1        0.2471
      3 O         -14.9754   -3.4044   16.6357 O.2     1  UNL1       -0.2701
      4 H         -14.3398   -3.0208   20.0413 H       1  UNL1        0.1552
      5 C         -11.6230   -1.9464   18.4103 C.3     1  UNL1        0.0324
      6 C         -12.7392   -0.9482   18.3234 C.ar    1  UNL1       -0.0061
      7 C         -12.4538    0.4606   17.8946 C.ar    1  UNL1        0.0266
      8 C         -13.5701    1.4589   17.8076 C.ar    1  UNL1        0.1400
      9 F         -13.2846    2.8677   17.3789 F       1  UNL1       -0.2042
     10 C         -14.9717    1.0483   18.1494 C.ar    1  UNL1        0.0334
     11 C         -15.2571   -0.3604   18.5782 C.ar    1  UNL1        0.0167
     12 C         -14.1409   -1.3587   18.6651 C.ar    1  UNL1        0.0466
     13 C         -16.0879    2.0466   18.0624 C.ar    1  UNL1        0.0614
     14 C         -17.1181    1.9271   16.9788 C.ar    1  UNL1        0.0273
     15 C         -18.2344    2.9254   16.8918 C.ar    1  UNL1        0.1204
     16 N         -18.3203    4.0431   17.8885 N.ar    1  UNL1       -0.1652
     17 N         -17.2901    4.1625   18.9721 N.ar    1  UNL1       -0.2145
     18 C         -17.3761    5.2802   19.9689 C.3     1  UNL1        0.1571
     19 C         -16.1739    3.1642   19.0591 C.ar    1  UNL1        0.2765
     20 O         -15.1436    3.2837   20.1428 O.2     1  UNL1       -0.2655
     21 C         -15.1291   -5.1992   18.5080 C.2     1  UNL1        0.0505
     22 C         -16.5128   -5.5863   18.9386 C.2     1  UNL1        0.0680
     23 N         -16.7983   -6.9950   19.3674 N.am    1  UNL1       -0.2558
     24 C         -18.1820   -7.3821   19.7980 C.3     1  UNL1        0.1200
     25 C         -15.7001   -8.0167   19.3655 C.2     1  UNL1        0.2301
     26 O         -15.9855   -9.4255   19.7942 O.2     1  UNL1       -0.2745
     27 C         -14.3163   -7.6296   18.9348 C.3     1  UNL1        0.0945
     28 C         -14.0308   -6.2208   18.5061 C.3     1  UNL1        0.0594
     29 C         -12.6471   -5.8338   18.0754 C.ar    1  UNL1       -0.0176
     30 C         -11.5886   -5.5669   19.1041 C.ar    1  UNL1       -0.0016
     31 C         -10.2048   -5.1798   18.6735 C.ar    1  UNL1        0.0293
     32 C          -9.8796   -5.0596   17.2142 C.ar    1  UNL1        0.1401
     33 F          -8.4959   -4.6725   16.7835 F       1  UNL1       -0.2042
     34 C         -10.9381   -5.3265   16.1855 C.ar    1  UNL1        0.0293
     35 C         -12.3219   -5.7136   16.6161 C.ar    1  UNL1       -0.0016
@<TRIPOS>BOND
     1     5     6    1
     2     6     7   ar
     3     7     8   ar
     4     8     9    1
     5     8    10   ar
     6    10    13    1
     7    13    14   ar
     8    14    15   ar
     9    15    16   ar
    10    16    17   ar
    11    17    18    1
    12    17    19   ar
    13    19    20    2
    14    10    11   ar
    15    11    12   ar
    16    12     1    1
    17     1     2   am
    18     2     3    2
    19     2    21    1
    20    21    22    2
    21    22    23    1
    22    23    24    1
    23    23    25   am
    24    25    26    2
    25    25    27    1
    26    27    28    1
    27    28    29    1
    28    29    30   ar
    29    30    31   ar
    30    31    32   ar
    31    32    33    1
    32    32    34   ar
    33    34    35   ar
    34    12     6   ar
    35    28    21    1
    36    35    29   ar
    37    19    13   ar
    38     1     4    1
@<TRIPOS>MOLECULE
*****
 35 38 0 0 0
SMALL
GASTEIGER

@<TRIPOS>ATOM
      1 N           4.2136   -2.2133   23.7089 N.am    1  UNL1       -0.2809
      2 C           4.2576   -0.7589   23.3444 C.2     1  UNL1        0.2471
      3 O           5.5435    0.0046   23.4602 O.2     1  UNL1       -0.2701
      4 H           3.3696   -2.7144   23.6329 H       1  UNL1        0.1552
      5 C           5.9047   -3.7706   21.7815 C.3     1  UNL1        0.0324
      6 C           6.3010   -3.6827   23.2256 C.ar    1  UNL1       -0.0061
      7 C           7.5427   -4.3735   23.7059 C.ar    1  UNL1        0.0266
      8 C           7.9390   -4.2856   25.1500 C.ar    1  UNL1        0.1400
      9 F           9.1808   -4.9765   25.6303 F       1  UNL1       -0.2042
     10 C           7.0934   -3.5070   26.1137 C.ar    1  UNL1        0.0334
     11 C           5.8517   -2.8163   25.6333 C.ar    1  UNL1        0.0167
     12 C           5.4554   -2.9041   24.1893 C.ar    1  UNL1        0.0466
     13 C           7.4897   -3.4192   27.5577 C.ar    1  UNL1        0.0614
     14 C           8.3351   -2.2759   28.0352 C.ar    1  UNL1        0.0273
     15 C           8.7314   -2.1880   29.4793 C.ar    1  UNL1        0.1204
     16 N           8.2821   -3.2435   30.4458 N.ar    1  UNL1       -0.1652
     17 N           7.4367   -4.3867   29.9683 N.ar    1  UNL1       -0.2145
     18 C           6.9874   -5.4422   30.9349 C.3     1  UNL1        0.1571
     19 C           7.0404   -4.4746   28.5243 C.ar    1  UNL1        0.2765
     20 O           6.1949   -5.6179   28.0468 O.2     1  UNL1       -0.2655
     21 C           3.0158   -0.0681   22.8641 C.2     1  UNL1        0.0505
     22 C           2.1256    0.6399   23.8419 C.2     1  UNL1        0.0680
     23 N           0.8838    1.3307   23.3617 N.am    1  UNL1       -0.2558
     24 C          -0.0064    2.0388   24.3395 C.3     1  UNL1        0.1200
     25 C           0.5322    1.3135   21.9036 C.2     1  UNL1        0.2301
     26 O          -0.7096    2.0043   21.4232 O.2     1  UNL1       -0.2745
     27 C           1.4224    0.6054   20.9257 C.3     1  UNL1        0.0945
     28 C           2.6642   -0.0854   21.4060 C.3     1  UNL1        0.0594
     29 C           3.5544   -0.7935   20.4282 C.ar    1  UNL1       -0.0176
     30 C           4.8521   -0.1698   20.0075 C.ar    1  UNL1       -0.0016
     31 C           5.7423   -0.8779   19.0296 C.ar    1  UNL1        0.0293
     32 C           5.3349   -2.2096   18.4725 C.ar    1  UNL1        0.1401
     33 F           6.2251   -2.9177   17.4947 F       1  UNL1       -0.2042
     34 C           4.0372   -2.8333   18.8933 C.ar    1  UNL1        0.0293
     35 C           3.1470   -2.1252   19.8711 C.ar    1  UNL1       -0.0016
@<TRIPOS>BOND
     1     5     6    1
     2     6     7   ar
     3     7     8   ar
     4     8     9    1
     5     8    10   ar
     6    10    13    1
     7    13    14   ar
     8    14    15   ar
     9    15    16   ar
    10    16    17   ar
    11    17    18    1
    12    17    19   ar
    13    19    20    2
    14    10    11   ar
    15    11    12   ar
    16    12     1    1
    17     1     2   am
    18     2     3    2
    19     2    21    1
    20    21    22    2
    21    22    23    1
    22    23    24    1
    23    23    25   am
    24    25    26    2
    25    25    27    1
    26    27    28    1
    27    28    29    1
    28    29    30   ar
    29    30    31   ar
    30    31    32   ar
    31    32    33    1
    32    32    34   ar
    33    34    35   ar
    34    12     6   ar
    35    28    21    1
    36    35    29   ar
    37    19    13   ar
    38     1     4    1
@<TRIPOS>MOLECULE
*****
 35 38 0 0 0
SMALL
GASTEIGER

@<TRIPOS>ATOM
      1 N           1.0867    0.4898   24.4968 N.am    1  UNL1       -0.2809
      2 C           0.9953    1.9628   24.7646 C.2     1  UNL1        0.2471
      3 O           2.2337    2.8087   24.7356 O.2     1  UNL1       -0.2701
      4 H           0.2739   -0.0654   24.5159 H       1  UNL1        0.1552
      5 C           3.0613    0.0416   26.7105 C.3     1  UNL1        0.0324
      6 C           3.4039   -0.3615   25.3069 C.ar    1  UNL1       -0.0061
      7 C           4.7337   -0.9887   25.0100 C.ar    1  UNL1        0.0266
      8 C           5.0763   -1.3919   23.6064 C.ar    1  UNL1        0.1400
      9 F           6.4062   -2.0191   23.3096 F       1  UNL1       -0.2042
     10 C           4.0890   -1.1677   22.4996 C.ar    1  UNL1        0.0334
     11 C           2.7592   -0.5405   22.7964 C.ar    1  UNL1        0.0167
     12 C           2.4166   -0.1374   24.2001 C.ar    1  UNL1        0.0466
     13 C           4.4316   -1.5708   21.0960 C.ar    1  UNL1        0.0614
     14 C           4.7592   -0.5233   20.0736 C.ar    1  UNL1        0.0273
     15 C           5.1017   -0.9264   18.6700 C.ar    1  UNL1        0.1204
     16 N           5.1167   -2.3771   18.2887 N.ar    1  UNL1       -0.1652
     17 N           4.7891   -3.4246   19.3111 N.ar    1  UNL1       -0.2145
     18 C           4.8041   -4.8753   18.9299 C.3     1  UNL1        0.1571
     19 C           4.4465   -3.0215   20.7147 C.ar    1  UNL1        0.2765
     20 O           4.1189   -4.0691   21.7372 O.2     1  UNL1       -0.2655
     21 C          -0.3346    2.5901   25.0614 C.2     1  UNL1        0.0505
     22 C          -1.1184    3.2425   23.9613 C.2     1  UNL1        0.0680
     23 N          -2.4482    3.8697   24.2580 N.am    1  UNL1       -0.2558
     24 C          -3.2319    4.5221   23.1580 C.3     1  UNL1        0.1200
     25 C          -2.9943    3.8445   25.6548 C.2     1  UNL1        0.2301
     26 O          -4.3242    4.4717   25.9516 O.2     1  UNL1       -0.2745
     27 C          -2.2106    3.1920   26.7549 C.3     1  UNL1        0.0945
     28 C          -0.8808    2.5648   26.4582 C.3     1  UNL1        0.0594
     29 C          -0.0971    1.9124   27.5582 C.ar    1  UNL1       -0.0176
     30 C          -0.3780    0.4883   27.9364 C.ar    1  UNL1       -0.0016
     31 C           0.4057   -0.1641   29.0365 C.ar    1  UNL1        0.0293
     32 C           1.4703    0.6075   29.7584 C.ar    1  UNL1        0.1401
     33 F           2.2540   -0.0449   30.8584 F       1  UNL1       -0.2042
     34 C           1.7512    2.0316   29.3802 C.ar    1  UNL1        0.0293
     35 C           0.9675    2.6840   28.2801 C.ar    1  UNL1       -0.0016
@<TRIPOS>BOND
     1     5     6    1
     2     6     7   ar
     3     7     8   ar
     4     8     9    1
     5     8    10   ar
     6    10    13    1
     7    13    14   ar
     8    14    15   ar
     9    15    16   ar
    10    16    17   ar
    11    17    18    1
    12    17    19   ar
    13    19    20    2
    14    10    11   ar
    15    11    12   ar
    16    12     1    1
    17     1     2   am
    18     2     3    2
    19     2    21    1
    20    21    22    2
    21    22    23    1
    22    23    24    1
    23    23    25   am
    24    25    26    2
    25    25    27    1
    26    27    28    1
    27    28    29    1
    28    29    30   ar
    29    30    31   ar
    30    31    32   ar
    31    32    33    1
    32    32    34   ar
    33    34    35   ar
    34    12     6   ar
    35    28    21    1
    36    35    29   ar
    37    19    13   ar
    38     1     4    1
@<TRIPOS>MOLECULE
*****
 35 38 0 0 0
SMALL
GASTEIGER

@<TRIPOS>ATOM
      1 N           4.3129   -1.5950   26.7504 N.am    1  UNL1       -0.2809
      2 C           4.6351   -0.5616   27.7888 C.2     1  UNL1        0.2471
      3 O           5.1282    0.7923   27.3717 O.2     1  UNL1       -0.2701
      4 H           3.9892   -2.4836   27.0242 H       1  UNL1        0.1552
      5 C           7.0043   -1.8833   25.4570 C.3     1  UNL1        0.0324
      6 C           5.8295   -1.4188   24.6483 C.ar    1  UNL1       -0.0061
      7 C           6.0003   -1.0984   23.1929 C.ar    1  UNL1        0.0266
      8 C           4.8255   -0.6338   22.3843 C.ar    1  UNL1        0.1400
      9 F           4.9964   -0.3134   20.9289 F       1  UNL1       -0.2042
     10 C           3.4798   -0.4897   23.0310 C.ar    1  UNL1        0.0334
     11 C           3.3089   -0.8100   24.4863 C.ar    1  UNL1        0.0167
     12 C           4.4838   -1.2746   25.2950 C.ar    1  UNL1        0.0466
     13 C           2.3049   -0.0251   22.2223 C.ar    1  UNL1        0.0614
     14 C           1.9101   -0.7659   20.9793 C.ar    1  UNL1        0.0273
     15 C           0.7352   -0.3013   20.1706 C.ar    1  UNL1        0.1204
     16 N          -0.0447    0.9040   20.6050 N.ar    1  UNL1       -0.1652
     17 N           0.3501    1.6448   21.8481 N.ar    1  UNL1       -0.2145
     18 C          -0.4299    2.8502   22.2826 C.3     1  UNL1        0.1571
     19 C           1.5250    1.1802   22.6568 C.ar    1  UNL1        0.2765
     20 O           1.9198    1.9211   23.8999 O.2     1  UNL1       -0.2655
     21 C           4.4642   -0.8820   29.2442 C.2     1  UNL1        0.0505
     22 C           5.4949   -1.7066   29.9567 C.2     1  UNL1        0.0680
     23 N           5.3241   -2.0270   31.4120 N.am    1  UNL1       -0.2558
     24 C           6.3548   -2.8516   32.1245 C.3     1  UNL1        0.1200
     25 C           4.1225   -1.5228   32.1549 C.2     1  UNL1        0.2301
     26 O           3.9516   -1.8432   33.6103 O.2     1  UNL1       -0.2745
     27 C           3.0918   -0.6982   31.4424 C.3     1  UNL1        0.0945
     28 C           3.2626   -0.3778   29.9871 C.3     1  UNL1        0.0594
     29 C           2.2319    0.4469   29.2746 C.ar    1  UNL1       -0.0176
     30 C           1.0346   -0.2160   28.6605 C.ar    1  UNL1       -0.0016
     31 C           0.0039    0.6087   27.9480 C.ar    1  UNL1        0.0293
     32 C           0.1704    2.0961   27.8497 C.ar    1  UNL1        0.1401
     33 F          -0.8603    2.9207   27.1372 F       1  UNL1       -0.2042
     34 C           1.3677    2.7589   28.4638 C.ar    1  UNL1        0.0293
     35 C           2.3984    1.9343   29.1763 C.ar    1  UNL1       -0.0016
@<TRIPOS>BOND
     1     5     6    1
     2     6     7   ar
     3     7     8   ar
     4     8     9    1
     5     8    10   ar
     6    10    13    1
     7    13    14   ar
     8    14    15   ar
     9    15    16   ar
    10    16    17   ar
    11    17    18    1
    12    17    19   ar
    13    19    20    2
    14    10    11   ar
    15    11    12   ar
    16    12     1    1
    17     1     2   am
    18     2     3    2
    19     2    21    1
    20    21    22    2
    21    22    23    1
    22    23    24    1
    23    23    25   am
    24    25    26    2
    25    25    27    1
    26    27    28    1
    27    28    29    1
    28    29    30   ar
    29    30    31   ar
    30    31    32   ar
    31    32    33    1
    32    32    34   ar
    33    34    35   ar
    34    12     6   ar
    35    28    21    1
    36    35    29   ar
    37    19    13   ar
    38     1     4    1
@<TRIPOS>MOLECULE
*****
 35 38 0 0 0
SMALL
GASTEIGER

@<TRIPOS>ATOM
      1 N           4.0145   -1.6932   26.1082 N.am    1  UNL1       -0.2809
      2 C           5.0661   -0.9929   26.9167 C.2     1  UNL1        0.2471
      3 O           5.7370    0.2337   26.3730 O.2     1  UNL1       -0.2701
      4 H           3.5742   -2.4982   26.4650 H       1  UNL1        0.1552
      5 C           2.1918    0.6786   25.8804 C.3     1  UNL1        0.0324
      6 C           2.7224    0.0189   24.6422 C.ar    1  UNL1       -0.0061
      7 C           2.3417    0.5450   23.2901 C.ar    1  UNL1        0.0266
      8 C           2.8724   -0.1148   22.0519 C.ar    1  UNL1        0.1400
      9 F           2.4916    0.4114   20.6997 F       1  UNL1       -0.2042
     10 C           3.7837   -1.3007   22.1658 C.ar    1  UNL1        0.0334
     11 C           4.1644   -1.8268   23.5179 C.ar    1  UNL1        0.0167
     12 C           3.6338   -1.1670   24.7561 C.ar    1  UNL1        0.0466
     13 C           4.3144   -1.9604   20.9276 C.ar    1  UNL1        0.0614
     14 C           3.6720   -3.2138   20.4115 C.ar    1  UNL1        0.0273
     15 C           4.2026   -3.8736   19.1733 C.ar    1  UNL1        0.1204
     16 N           5.3756   -3.2800   18.4512 N.ar    1  UNL1       -0.1652
     17 N           6.0180   -2.0266   18.9672 N.ar    1  UNL1       -0.2145
     18 C           7.1912   -1.4329   18.2451 C.3     1  UNL1        0.1571
     19 C           5.4874   -1.3668   20.2054 C.ar    1  UNL1        0.2765
     20 O           6.1299   -0.1134   20.7215 O.2     1  UNL1       -0.2655
     21 C           5.4469   -1.5191   28.2688 C.2     1  UNL1        0.0505
     22 C           6.5376   -2.5409   28.3960 C.2     1  UNL1        0.0680
     23 N           6.9184   -3.0671   29.7481 N.am    1  UNL1       -0.2558
     24 C           8.0091   -4.0889   29.8753 C.3     1  UNL1        0.1200
     25 C           6.2084   -2.5715   30.9729 C.2     1  UNL1        0.2301
     26 O           6.5892   -3.0977   32.3250 O.2     1  UNL1       -0.2745
     27 C           5.1177   -1.5497   30.8457 C.3     1  UNL1        0.0945
     28 C           4.7369   -1.0235   29.4936 C.3     1  UNL1        0.0594
     29 C           3.6462   -0.0016   29.3664 C.ar    1  UNL1       -0.0176
     30 C           3.9925    1.4490   29.2059 C.ar    1  UNL1       -0.0016
     31 C           2.9017    2.4708   29.0787 C.ar    1  UNL1        0.0293
     32 C           1.4647    2.0420   29.1120 C.ar    1  UNL1        0.1401
     33 F           0.3740    3.0638   28.9848 F       1  UNL1       -0.2042
     34 C           1.1185    0.5914   29.2725 C.ar    1  UNL1        0.0293
     35 C           2.2092   -0.4304   29.3997 C.ar    1  UNL1       -0.0016
@<TRIPOS>BOND
     1     5     6    1
     2     6     7   ar
     3     7     8   ar
     4     8     9    1
     5     8    10   ar
     6    10    13    1
     7    13    14   ar
     8    14    15   ar
     9    15    16   ar
    10    16    17   ar
    11    17    18    1
    12    17    19   ar
    13    19    20    2
    14    10    11   ar
    15    11    12   ar
    16    12     1    1
    17     1     2   am
    18     2     3    2
    19     2    21    1
    20    21    22    2
    21    22    23    1
    22    23    24    1
    23    23    25   am
    24    25    26    2
    25    25    27    1
    26    27    28    1
    27    28    29    1
    28    29    30   ar
    29    30    31   ar
    30    31    32   ar
    31    32    33    1
    32    32    34   ar
    33    34    35   ar
    34    12     6   ar
    35    28    21    1
    36    35    29   ar
    37    19    13   ar
    38     1     4    1
@<TRIPOS>MOLECULE
*****
 35 38 0 0 0
SMALL
GASTEIGER

@<TRIPOS>ATOM
      1 N           1.5462    0.3873   22.1103 N.am    1  UNL1       -0.2809
      2 C           2.9051    0.8065   21.6335 C.2     1  UNL1        0.2471
      3 O           3.5119    2.0859   22.1283 O.2     1  UNL1       -0.2701
      4 H           1.1479   -0.4525   21.7855 H       1  UNL1        0.1552
      5 C          -0.1541    2.6471   21.1091 C.3     1  UNL1        0.0324
      6 C          -0.0563    2.3774   22.5814 C.ar    1  UNL1       -0.0061
      7 C          -0.8085    3.2375   23.5531 C.ar    1  UNL1        0.0266
      8 C          -0.7106    2.9678   25.0254 C.ar    1  UNL1        0.1400
      9 F          -1.4629    3.8281   25.9971 F       1  UNL1       -0.2042
     10 C           0.1395    1.8380   25.5260 C.ar    1  UNL1        0.0334
     11 C           0.8918    0.9778   24.5543 C.ar    1  UNL1        0.0167
     12 C           0.7939    1.2475   23.0820 C.ar    1  UNL1        0.0466
     13 C           0.2374    1.5683   26.9983 C.ar    1  UNL1        0.0614
     14 C          -0.7701    0.6807   27.6668 C.ar    1  UNL1        0.0273
     15 C          -0.6722    0.4110   29.1391 C.ar    1  UNL1        0.1204
     16 N           0.4332    1.0289   29.9429 N.ar    1  UNL1       -0.1652
     17 N           1.4408    1.9165   29.2744 N.ar    1  UNL1       -0.2145
     18 C           2.5463    2.5344   30.0782 C.3     1  UNL1        0.1571
     19 C           1.3429    2.1862   27.8021 C.ar    1  UNL1        0.2765
     20 O           2.3505    3.0738   27.1336 O.2     1  UNL1       -0.2655
     21 C           3.6574   -0.0537   20.6618 C.2     1  UNL1        0.0505
     22 C           3.3223   -0.0040   19.2005 C.2     1  UNL1        0.0680
     23 N           4.0745   -0.8642   18.2288 N.am    1  UNL1       -0.2558
     24 C           3.7394   -0.8145   16.7676 C.3     1  UNL1        0.1200
     25 C           5.1619   -1.7741   18.7184 C.2     1  UNL1        0.2301
     26 O           5.9141   -2.6343   17.7467 O.2     1  UNL1       -0.2745
     27 C           5.4970   -1.8238   20.1796 C.3     1  UNL1        0.0945
     28 C           4.7448   -0.9636   21.1513 C.3     1  UNL1        0.0594
     29 C           5.0799   -1.0134   22.6126 C.ar    1  UNL1       -0.0176
     30 C           4.2853   -1.8896   23.5349 C.ar    1  UNL1       -0.0016
     31 C           4.6205   -1.9393   24.9961 C.ar    1  UNL1        0.0293
     32 C           5.7502   -1.1128   25.5350 C.ar    1  UNL1        0.1401
     33 F           6.0853   -1.1625   26.9963 F       1  UNL1       -0.2042
     34 C           6.5448   -0.2365   24.6127 C.ar    1  UNL1        0.0293
     35 C           6.2096   -0.1868   23.1515 C.ar    1  UNL1       -0.0016
@<TRIPOS>BOND
     1     5     6    1
     2     6     7   ar
     3     7     8   ar
     4     8     9    1
     5     8    10   ar
     6    10    13    1
     7    13    14   ar
     8    14    15   ar
     9    15    16   ar
    10    16    17   ar
    11    17    18    1
    12    17    19   ar
    13    19    20    2
    14    10    11   ar
    15    11    12   ar
    16    12     1    1
    17     1     2   am
    18     2     3    2
    19     2    21    1
    20    21    22    2
    21    22    23    1
    22    23    24    1
    23    23    25   am
    24    25    26    2
    25    25    27    1
    26    27    28    1
    27    28    29    1
    28    29    30   ar
    29    30    31   ar
    30    31    32   ar
    31    32    33    1
    32    32    34   ar
    33    34    35   ar
    34    12     6   ar
    35    28    21    1
    36    35    29   ar
    37    19    13   ar
    38     1     4    1
@<TRIPOS>MOLECULE
*****
 35 38 0 0 0
SMALL
GASTEIGER

@<TRIPOS>ATOM
      1 N           2.4502    0.6323   22.1078 N.am    1  UNL1       -0.2809
      2 C           3.8493    0.9473   21.6684 C.2     1  UNL1        0.2471
      3 O           4.6024    2.0731   22.3131 O.2     1  UNL1       -0.2701
      4 H           1.9559   -0.1066   21.6847 H       1  UNL1        0.1552
      5 C           1.6774    3.4844   21.5897 C.3     1  UNL1        0.0324
      6 C           1.4176    2.8691   22.9328 C.ar    1  UNL1       -0.0061
      7 C           0.7715    3.6799   24.0168 C.ar    1  UNL1        0.0266
      8 C           0.5117    3.0646   25.3599 C.ar    1  UNL1        0.1400
      9 F          -0.1344    3.8754   26.4440 F       1  UNL1       -0.2042
     10 C           0.8981    1.6386   25.6190 C.ar    1  UNL1        0.0334
     11 C           1.5443    0.8278   24.5350 C.ar    1  UNL1        0.0167
     12 C           1.8040    1.4431   23.1919 C.ar    1  UNL1        0.0466
     13 C           0.6384    1.0233   26.9621 C.ar    1  UNL1        0.0614
     14 C          -0.7701    0.8499   27.4479 C.ar    1  UNL1        0.0273
     15 C          -1.0299    0.2346   28.7910 C.ar    1  UNL1        0.1204
     16 N           0.1188   -0.2073   29.6484 N.ar    1  UNL1       -0.1652
     17 N           1.5273   -0.0339   29.1626 N.ar    1  UNL1       -0.2145
     18 C           2.6762   -0.4758   30.0199 C.3     1  UNL1        0.1571
     19 C           1.7871    0.5814   27.8195 C.ar    1  UNL1        0.2765
     20 O           3.1957    0.7547   27.3337 O.2     1  UNL1       -0.2655
     21 C           4.4955    0.1365   20.5843 C.2     1  UNL1        0.0505
     22 C           5.5020   -0.9187   20.9358 C.2     1  UNL1        0.0680
     23 N           6.1482   -1.7295   19.8518 N.am    1  UNL1       -0.2558
     24 C           7.1547   -2.7847   20.2032 C.3     1  UNL1        0.1200
     25 C           5.7878   -1.4851   18.4164 C.2     1  UNL1        0.2301
     26 O           6.4340   -2.2959   17.3323 O.2     1  UNL1       -0.2745
     27 C           4.7813   -0.4299   18.0650 C.3     1  UNL1        0.0945
     28 C           4.1352    0.3809   19.1490 C.3     1  UNL1        0.0594
     29 C           3.1287    1.4361   18.7976 C.ar    1  UNL1       -0.0176
     30 C           1.6751    1.0810   18.6931 C.ar    1  UNL1       -0.0016
     31 C           0.6686    2.1362   18.3417 C.ar    1  UNL1        0.0293
     32 C           1.1157    3.5465   18.0948 C.ar    1  UNL1        0.1401
     33 F           0.1092    4.6018   17.7433 F       1  UNL1       -0.2042
     34 C           2.5692    3.9017   18.1992 C.ar    1  UNL1        0.0293
     35 C           3.5757    2.8465   18.5506 C.ar    1  UNL1       -0.0016
@<TRIPOS>BOND
     1     5     6    1
     2     6     7   ar
     3     7     8   ar
     4     8     9    1
     5     8    10   ar
     6    10    13    1
     7    13    14   ar
     8    14    15   ar
     9    15    16   ar
    10    16    17   ar
    11    17    18    1
    12    17    19   ar
    13    19    20    2
    14    10    11   ar
    15    11    12   ar
    16    12     1    1
    17     1     2   am
    18     2     3    2
    19     2    21    1
    20    21    22    2
    21    22    23    1
    22    23    24    1
    23    23    25   am
    24    25    26    2
    25    25    27    1
    26    27    28    1
    27    28    29    1
    28    29    30   ar
    29    30    31   ar
    30    31    32   ar
    31    32    33    1
    32    32    34   ar
    33    34    35   ar
    34    12     6   ar
    35    28    21    1
    36    35    29   ar
    37    19    13   ar
    38     1     4    1
