@<TRIPOS>MOLECULE
*****
 42 47 0 0 0
SMALL
GASTEIGER

@<TRIPOS>ATOM
      1 N           1.1956    2.4939   29.9407 N.am    1  UNL1       -0.1907
      2 C           2.2290    1.4068   29.9624 C.2     1  UNL1        0.3219
      3 O           2.6072    0.5267   28.8082 O.2     1  UNL1       -0.2512
      4 N           2.8177    1.3543   31.3410 N.am    1  UNL1       -0.2222
      5 C           2.1482    2.4090   32.1715 C.3     1  UNL1        0.1391
      6 C           1.3950    3.4994   32.8740 C.3     1  UNL1        0.0449
      7 C           1.6783    3.7974   34.3165 C.3     1  UNL1        0.0746
      8 N           2.7148    3.0050   35.0565 N.3     1  UNL1       -0.2676
      9 C           3.4681    1.9146   34.3540 C.3     1  UNL1        0.0746
     10 C           3.1848    1.6166   32.9115 C.3     1  UNL1        0.0449
     11 C           1.1457    3.1133   31.3060 C.2     1  UNL1        0.2529
     12 O           0.2505    4.2392   31.7312 O.2     1  UNL1       -0.2724
     13 C           3.8880    0.4126   31.8075 C.ar    1  UNL1        0.1453
     14 C           3.5181   -0.9448   32.3278 C.ar    1  UNL1        0.0922
     15 C           4.5885   -1.8864   32.7942 C.ar    1  UNL1        0.2259
     16 O           4.2186   -3.2438   33.3145 O.3     1  UNL1       -0.4919
     17 N           6.0288   -1.4708   32.7403 N.ar    1  UNL1       -0.1894
     18 C           6.3987   -0.1134   32.2200 C.ar    1  UNL1        0.2027
     19 N           5.3283    0.8282   31.7536 N.ar    1  UNL1       -0.2084
     20 H           3.3190   -3.5035   33.3482 H       1  UNL1        0.2938
     21 C          -1.3141    3.6874   26.4015 C.ar    1  UNL1        0.0392
     22 C          -0.5580    4.7299   27.1704 C.ar    1  UNL1        0.0044
     23 C           0.2786    4.3321   28.3502 C.ar    1  UNL1        0.0155
     24 C           0.3590    2.8917   28.7610 C.ar    1  UNL1        0.0622
     25 C          -0.3971    1.8492   27.9920 C.ar    1  UNL1        0.0155
     26 C          -1.2337    2.2470   26.8123 C.ar    1  UNL1        0.0044
     27 C          -3.7418    4.0118   23.3904 C.ar    1  UNL1        0.2668
     28 N          -3.1339    3.2098   24.5026 N.ar    1  UNL1       -0.1886
     29 C          -2.1507    4.0852   25.2217 C.ar    1  UNL1        0.2034
     30 N          -2.1510    5.4283   24.5538 N.ar    1  UNL1       -0.0559
     31 O          -3.1344    5.3830   23.4220 O.2     1  UNL1       -0.3344
     32 C          -4.7757    3.5277   22.4174 C.3     1  UNL1        0.2300
     33 C          -3.0656    3.2234   20.4853 C.3     1  UNL1        0.1748
     34 O          -4.3522    2.8392   21.1538 O.3     1  UNL1       -0.3416
     35 C           2.9981    3.3031   36.4991 C.3     1  UNL1        0.1183
     36 C           2.2594    2.5657   37.5764 C.ar    1  UNL1        0.0712
     37 N           0.9680    3.1121   38.1091 N.ar    1  UNL1       -0.2471
     38 C           0.2293    2.3747   39.1864 C.ar    1  UNL1        0.0985
     39 C           0.7820    1.0910   39.7310 C.ar    1  UNL1        0.0203
     40 C           2.0734    0.5446   39.1983 C.ar    1  UNL1       -0.0015
     41 C           2.8121    1.2820   38.1210 C.ar    1  UNL1       -0.0069
     42 C           4.1035    0.7356   37.5883 C.3     1  UNL1        0.0323
@<TRIPOS>BOND
     1    33    34    1
     2    34    32    1
     3    32    27    1
     4    27    28   ar
     5    28    29   ar
     6    29    21    1
     7    21    22   ar
     8    22    23   ar
     9    23    24   ar
    10    24     1    1
    11     1     2   am
    12     2     3    2
    13     2     4   am
    14     4    13    1
    15    13    14   ar
    16    14    15   ar
    17    15    16    1
    18    15    17   ar
    19    17    18   ar
    20    18    19   ar
    21     4     5    1
    22     5     6    1
    23     6     7    1
    24     7     8    1
    25     8    35    1
    26    35    36    1
    27    36    37   ar
    28    37    38   ar
    29    38    39   ar
    30    39    40   ar
    31    40    41   ar
    32    41    42    1
    33     8     9    1
    34     9    10    1
    35     5    11    1
    36    11    12    2
    37    24    25   ar
    38    25    26   ar
    39    29    30   ar
    40    30    31   ar
    41    31    27   ar
    42    26    21   ar
    43    11     1   am
    44    19    13   ar
    45    10     5    1
    46    41    36   ar
    47    16    20    1
@<TRIPOS>MOLECULE
*****
 42 47 0 0 0
SMALL
GASTEIGER

@<TRIPOS>ATOM
      1 N           1.3273    1.9441   29.9926 N.am    1  UNL1       -0.1907
      2 C           2.3487    0.8509   30.1019 C.2     1  UNL1        0.3219
      3 O           2.7411   -0.1012   29.0114 O.2     1  UNL1       -0.2512
      4 N           2.9087    0.8772   31.4932 N.am    1  UNL1       -0.2222
      5 C           2.2334    1.9866   32.2438 C.3     1  UNL1        0.1391
      6 C           1.4774    3.1247   32.8629 C.3     1  UNL1        0.0449
      7 C           1.7344    3.5074   34.2902 C.3     1  UNL1        0.0746
      8 N           2.7474    2.7521   35.0986 N.3     1  UNL1       -0.2676
      9 C           3.5034    1.6141   34.4795 C.3     1  UNL1        0.0746
     10 C           3.2464    1.2313   33.0522 C.3     1  UNL1        0.0449
     11 C           1.2561    2.6460   31.3164 C.2     1  UNL1        0.2529
     12 O           0.3642    3.8039   31.6536 O.2     1  UNL1       -0.2724
     13 C           3.9594   -0.0441   32.0383 C.ar    1  UNL1        0.1453
     14 C           5.4101    0.3169   31.9159 C.ar    1  UNL1        0.0922
     15 C           6.4608   -0.6045   32.4610 C.ar    1  UNL1        0.2259
     16 O           7.9116   -0.2435   32.3386 O.3     1  UNL1       -0.4919
     17 N           6.0608   -1.8869   33.1285 N.ar    1  UNL1       -0.1894
     18 C           4.6101   -2.2479   33.2508 C.ar    1  UNL1        0.2027
     19 N           3.5594   -1.3265   32.7057 N.ar    1  UNL1       -0.2084
     20 H           8.1615    0.5576   31.9217 H       1  UNL1        0.2938
     21 C          -1.0973    2.9426   26.3356 C.ar    1  UNL1        0.0392
     22 C          -0.4416    4.0382   27.1229 C.ar    1  UNL1        0.0044
     23 C           0.3666    3.7054   28.3419 C.ar    1  UNL1        0.0155
     24 C           0.5191    2.2770   28.7736 C.ar    1  UNL1        0.0622
     25 C          -0.1365    1.1815   27.9863 C.ar    1  UNL1        0.0155
     26 C          -0.9447    1.5143   26.7673 C.ar    1  UNL1        0.0044
     27 C          -2.5499    3.6597   22.8083 C.ar    1  UNL1        0.2668
     28 N          -1.4108    3.2640   23.7005 N.ar    1  UNL1       -0.1886
     29 C          -1.9055    3.2755   25.1166 C.ar    1  UNL1        0.2034
     30 N          -3.3503    3.6783   25.0995 N.ar    1  UNL1       -0.0559
     31 O          -3.7485    3.9157   23.6729 O.2     1  UNL1       -0.3344
     32 C          -2.4991    3.7784   21.3139 C.3     1  UNL1        0.2300
     33 C          -4.7931    3.3769   20.1622 C.3     1  UNL1        0.1748
     34 O          -3.3942    2.9270   20.4631 O.3     1  UNL1       -0.3416
     35 C           3.0043    3.1350   36.5260 C.3     1  UNL1        0.1183
     36 C           2.2413    2.4663   37.6308 C.ar    1  UNL1        0.0712
     37 N           0.9552    3.0623   38.1215 N.ar    1  UNL1       -0.2471
     38 C           0.1921    2.3936   39.2264 C.ar    1  UNL1        0.0985
     39 C           0.7152    1.1290   39.8405 C.ar    1  UNL1        0.0203
     40 C           2.0012    0.5330   39.3498 C.ar    1  UNL1       -0.0015
     41 C           2.7643    1.2017   38.2450 C.ar    1  UNL1       -0.0069
     42 C           4.0504    0.6057   37.7543 C.3     1  UNL1        0.0323
@<TRIPOS>BOND
     1    33    34    1
     2    34    32    1
     3    32    27    1
     4    27    28   ar
     5    28    29   ar
     6    29    21    1
     7    21    22   ar
     8    22    23   ar
     9    23    24   ar
    10    24     1    1
    11     1     2   am
    12     2     3    2
    13     2     4   am
    14     4    13    1
    15    13    14   ar
    16    14    15   ar
    17    15    16    1
    18    15    17   ar
    19    17    18   ar
    20    18    19   ar
    21     4     5    1
    22     5     6    1
    23     6     7    1
    24     7     8    1
    25     8    35    1
    26    35    36    1
    27    36    37   ar
    28    37    38   ar
    29    38    39   ar
    30    39    40   ar
    31    40    41   ar
    32    41    42    1
    33     8     9    1
    34     9    10    1
    35     5    11    1
    36    11    12    2
    37    24    25   ar
    38    25    26   ar
    39    29    30   ar
    40    30    31   ar
    41    31    27   ar
    42    26    21   ar
    43    11     1   am
    44    19    13   ar
    45    10     5    1
    46    41    36   ar
    47    16    20    1
@<TRIPOS>MOLECULE
*****
 42 47 0 0 0
SMALL
GASTEIGER

@<TRIPOS>ATOM
      1 N           4.5439    1.2107   34.9744 N.am    1  UNL1       -0.1907
      2 C           5.5701    0.1819   34.6021 C.2     1  UNL1        0.3219
      3 O           6.7536   -0.2226   35.4301 O.2     1  UNL1       -0.2512
      4 N           5.2050   -0.3712   33.2565 N.am    1  UNL1       -0.2222
      5 C           3.9531    0.3157   32.7970 C.3     1  UNL1        0.1391
      6 C           2.7058    1.0829   32.4724 C.3     1  UNL1        0.0449
      7 C           1.9885    0.8356   31.1785 C.3     1  UNL1        0.0746
      8 N           2.5186   -0.1790   30.2092 N.3     1  UNL1       -0.2676
      9 C           3.7659   -0.9462   30.5338 C.3     1  UNL1        0.0746
     10 C           4.4832   -0.6989   31.8277 C.3     1  UNL1        0.0449
     11 C           3.5445    1.2934   33.8587 C.2     1  UNL1        0.2529
     12 O           2.3469    2.1953   33.8129 O.2     1  UNL1       -0.2724
     13 C           5.9593   -1.4260   32.5026 C.ar    1  UNL1        0.1453
     14 C           5.7823   -2.8727   32.8572 C.ar    1  UNL1        0.0922
     15 C           6.5366   -3.9274   32.1033 C.ar    1  UNL1        0.2259
     16 O           6.3597   -5.3741   32.4579 O.3     1  UNL1       -0.4919
     17 N           7.4680   -3.5355   30.9946 N.ar    1  UNL1       -0.1894
     18 C           7.6450   -2.0889   30.6399 C.ar    1  UNL1        0.2027
     19 N           6.8907   -1.0341   31.3939 N.ar    1  UNL1       -0.2084
     20 H           5.7779   -5.6189   33.1504 H       1  UNL1        0.2938
     21 C           4.4753    3.6251   38.7712 C.ar    1  UNL1        0.0392
     22 C           3.9810    2.2088   38.7739 C.ar    1  UNL1        0.0044
     23 C           4.0039    1.4040   37.5083 C.ar    1  UNL1        0.0155
     24 C           4.5210    2.0155   36.2400 C.ar    1  UNL1        0.0622
     25 C           5.0153    3.4316   36.2373 C.ar    1  UNL1        0.0155
     26 C           4.9924    4.2364   37.5029 C.ar    1  UNL1        0.0044
     27 C           4.7422    5.1005   42.3513 C.ar    1  UNL1        0.2668
     28 N           4.9648    3.9843   41.3744 N.ar    1  UNL1       -0.1886
     29 C           4.4524    4.4298   40.0368 C.ar    1  UNL1        0.2034
     30 N           3.9132    5.8214   40.1871 N.ar    1  UNL1       -0.0559
     31 O           4.0923    6.2360   41.6176 O.2     1  UNL1       -0.3344
     32 C           5.1057    5.0842   43.8065 C.3     1  UNL1        0.2300
     33 C           6.1959    3.8551   45.8192 C.3     1  UNL1        0.1748
     34 O           6.0220    4.0226   44.3388 O.3     1  UNL1       -0.3416
     35 C           1.8012   -0.4263   28.9152 C.3     1  UNL1        0.1183
     36 C           1.0166    0.6772   28.2698 C.ar    1  UNL1        0.0712
     37 N           1.7308    1.8374   27.6423 N.ar    1  UNL1       -0.2471
     38 C           0.9461    2.9410   26.9969 C.ar    1  UNL1        0.0985
     39 C          -0.5527    2.8843   26.9790 C.ar    1  UNL1        0.0203
     40 C          -1.2669    1.7240   27.6065 C.ar    1  UNL1       -0.0015
     41 C          -0.4823    0.6205   28.2519 C.ar    1  UNL1       -0.0069
     42 C          -1.1965   -0.5397   28.8795 C.3     1  UNL1        0.0323
@<TRIPOS>BOND
     1    33    34    1
     2    34    32    1
     3    32    27    1
     4    27    28   ar
     5    28    29   ar
     6    29    21    1
     7    21    22   ar
     8    22    23   ar
     9    23    24   ar
    10    24     1    1
    11     1     2   am
    12     2     3    2
    13     2     4   am
    14     4    13    1
    15    13    14   ar
    16    14    15   ar
    17    15    16    1
    18    15    17   ar
    19    17    18   ar
    20    18    19   ar
    21     4     5    1
    22     5     6    1
    23     6     7    1
    24     7     8    1
    25     8    35    1
    26    35    36    1
    27    36    37   ar
    28    37    38   ar
    29    38    39   ar
    30    39    40   ar
    31    40    41   ar
    32    41    42    1
    33     8     9    1
    34     9    10    1
    35     5    11    1
    36    11    12    2
    37    24    25   ar
    38    25    26   ar
    39    29    30   ar
    40    30    31   ar
    41    31    27   ar
    42    26    21   ar
    43    11     1   am
    44    19    13   ar
    45    10     5    1
    46    41    36   ar
    47    16    20    1
@<TRIPOS>MOLECULE
*****
 42 47 0 0 0
SMALL
GASTEIGER

@<TRIPOS>ATOM
      1 N           2.3922    0.8505   30.5304 N.am    1  UNL1       -0.1907
      2 C           3.4935   -0.1310   30.2584 C.2     1  UNL1        0.3219
      3 O           3.7849   -0.7866   28.9412 O.2     1  UNL1       -0.2512
      4 N           4.2523   -0.3417   31.5351 N.am    1  UNL1       -0.2222
      5 C           3.6200    0.5095   32.5961 C.3     1  UNL1        0.1391
      6 C           2.8863    1.4081   33.5470 C.3     1  UNL1        0.0449
      7 C           3.3263    1.5053   34.9776 C.3     1  UNL1        0.0746
      8 N           4.5001    0.7040   35.4575 N.3     1  UNL1       -0.2676
      9 C           5.2338   -0.1945   34.5066 C.3     1  UNL1        0.0746
     10 C           4.7938   -0.2918   33.0759 C.3     1  UNL1        0.0449
     11 C           2.4704    1.2463   31.9752 C.2     1  UNL1        0.2529
     12 O           1.5590    2.2098   32.6759 O.2     1  UNL1       -0.2724
     13 C           5.4357   -1.2450   31.7186 C.ar    1  UNL1        0.1453
     14 C           5.2316   -2.6774   32.1142 C.ar    1  UNL1        0.0922
     15 C           6.4150   -3.5807   32.2977 C.ar    1  UNL1        0.2259
     16 O           6.2110   -5.0131   32.6934 O.3     1  UNL1       -0.4919
     17 N           7.8025   -3.0516   32.0856 N.ar    1  UNL1       -0.1894
     18 C           8.0066   -1.6192   31.6899 C.ar    1  UNL1        0.2027
     19 N           6.8232   -0.7159   31.5065 N.ar    1  UNL1       -0.2084
     20 H           5.3443   -5.3436   32.8259 H       1  UNL1        0.2938
     21 C          -0.6177    2.3449   27.5376 C.ar    1  UNL1        0.0392
     22 C          -0.7196    0.9460   28.0693 C.ar    1  UNL1        0.0044
     23 C           0.2836    0.4479   29.0669 C.ar    1  UNL1        0.0155
     24 C           1.3889    1.3486   29.5328 C.ar    1  UNL1        0.0622
     25 C           1.4909    2.7474   29.0011 C.ar    1  UNL1        0.0155
     26 C           0.4876    3.2456   28.0035 C.ar    1  UNL1        0.0044
     27 C          -3.5986    3.8570   25.5645 C.ar    1  UNL1        0.2668
     28 N          -2.9125    3.5360   26.8592 N.ar    1  UNL1       -0.1886
     29 C          -1.6210    2.8431   26.5400 C.ar    1  UNL1        0.2034
     30 N          -1.5090    2.7358   25.0481 N.ar    1  UNL1       -0.0559
     31 O          -2.7312    3.3624   24.4452 O.2     1  UNL1       -0.3344
     32 C          -4.9202    4.5507   25.4154 C.3     1  UNL1        0.2300
     33 C          -5.9626    4.0311   23.0930 C.3     1  UNL1        0.1748
     34 O          -6.0055    3.9272   24.5888 O.3     1  UNL1       -0.3416
     35 C           4.9401    0.8014   36.8882 C.3     1  UNL1        0.1183
     36 C           4.6937    2.0609   37.6646 C.ar    1  UNL1        0.0712
     37 N           5.6730    3.1944   37.5854 N.ar    1  UNL1       -0.2471
     38 C           5.4266    4.4540   38.3619 C.ar    1  UNL1        0.0985
     39 C           4.2010    4.5800   39.2175 C.ar    1  UNL1        0.0203
     40 C           3.2218    3.4465   39.2967 C.ar    1  UNL1       -0.0015
     41 C           3.4681    2.1870   38.5203 C.ar    1  UNL1       -0.0069
     42 C           2.4889    1.0534   38.5995 C.3     1  UNL1        0.0323
@<TRIPOS>BOND
     1    33    34    1
     2    34    32    1
     3    32    27    1
     4    27    28   ar
     5    28    29   ar
     6    29    21    1
     7    21    22   ar
     8    22    23   ar
     9    23    24   ar
    10    24     1    1
    11     1     2   am
    12     2     3    2
    13     2     4   am
    14     4    13    1
    15    13    14   ar
    16    14    15   ar
    17    15    16    1
    18    15    17   ar
    19    17    18   ar
    20    18    19   ar
    21     4     5    1
    22     5     6    1
    23     6     7    1
    24     7     8    1
    25     8    35    1
    26    35    36    1
    27    36    37   ar
    28    37    38   ar
    29    38    39   ar
    30    39    40   ar
    31    40    41   ar
    32    41    42    1
    33     8     9    1
    34     9    10    1
    35     5    11    1
    36    11    12    2
    37    24    25   ar
    38    25    26   ar
    39    29    30   ar
    40    30    31   ar
    41    31    27   ar
    42    26    21   ar
    43    11     1   am
    44    19    13   ar
    45    10     5    1
    46    41    36   ar
    47    16    20    1
@<TRIPOS>MOLECULE
*****
 42 47 0 0 0
SMALL
GASTEIGER

@<TRIPOS>ATOM
      1 N           2.3415    0.8165   30.5346 N.am    1  UNL1       -0.1907
      2 C           3.4446   -0.1625   30.2605 C.2     1  UNL1        0.3219
      3 O           3.7416   -0.8089   28.9400 O.2     1  UNL1       -0.2512
      4 N           4.1983   -0.3814   31.5387 N.am    1  UNL1       -0.2222
      5 C           3.5612    0.4622   32.6029 C.3     1  UNL1        0.1391
      6 C           2.8231    1.3539   33.5569 C.3     1  UNL1        0.0449
      7 C           3.2573    1.4418   34.9899 C.3     1  UNL1        0.0746
      8 N           4.4296    0.6379   35.4691 N.3     1  UNL1       -0.2676
      9 C           5.1677   -0.2538   34.5151 C.3     1  UNL1        0.0746
     10 C           4.7335   -0.3416   33.0821 C.3     1  UNL1        0.0449
     11 C           2.4137    1.2026   31.9824 C.2     1  UNL1        0.2529
     12 O           1.4988    2.1607   32.6859 O.2     1  UNL1       -0.2724
     13 C           5.3814   -1.2852   31.7209 C.ar    1  UNL1        0.1453
     14 C           5.1790   -2.7090   32.1473 C.ar    1  UNL1        0.0922
     15 C           6.3622   -3.6128   32.3295 C.ar    1  UNL1        0.2259
     16 O           6.1598   -5.0366   32.7559 O.3     1  UNL1       -0.4919
     17 N           7.7479   -3.0928   32.0852 N.ar    1  UNL1       -0.1894
     18 C           7.9503   -1.6691   31.6588 C.ar    1  UNL1        0.2027
     19 N           6.7671   -0.7653   31.4767 N.ar    1  UNL1       -0.2084
     20 H           5.2943   -5.3614   32.9084 H       1  UNL1        0.2938
     21 C          -0.6571    2.3295   27.5399 C.ar    1  UNL1        0.0392
     22 C          -0.7807    0.9386   28.0880 C.ar    1  UNL1        0.0044
     23 C           0.2188    0.4343   29.0862 C.ar    1  UNL1        0.0155
     24 C           1.3420    1.3208   29.5364 C.ar    1  UNL1        0.0622
     25 C           1.4656    2.7115   28.9883 C.ar    1  UNL1        0.0155
     26 C           0.4660    3.2159   27.9900 C.ar    1  UNL1        0.0044
     27 C          -2.7358    3.4126   24.4461 C.ar    1  UNL1        0.2668
     28 N          -1.5014    2.8110   25.0498 N.ar    1  UNL1       -0.1886
     29 C          -1.6567    2.8338   26.5416 C.ar    1  UNL1        0.2034
     30 N          -2.9870    3.4494   26.8598 N.ar    1  UNL1       -0.0559
     31 O          -3.6539    3.8071   25.5647 O.2     1  UNL1       -0.3344
     32 C          -3.0048    3.5886   22.9809 C.3     1  UNL1        0.2300
     33 C          -4.5577    3.2429   20.9269 C.3     1  UNL1        0.1748
     34 O          -4.2174    2.9607   22.3603 O.3     1  UNL1       -0.3416
     35 C           4.8637    0.7258   36.9022 C.3     1  UNL1        0.1183
     36 C           4.6145    1.9803   37.6858 C.ar    1  UNL1        0.0712
     37 N           5.5904    3.1170   37.6121 N.ar    1  UNL1       -0.2471
     38 C           5.3411    4.3716   38.3958 C.ar    1  UNL1        0.0985
     39 C           4.1159    4.4893   39.2531 C.ar    1  UNL1        0.0203
     40 C           3.1400    3.3526   39.3268 C.ar    1  UNL1       -0.0015
     41 C           3.3892    2.0981   38.5432 C.ar    1  UNL1       -0.0069
     42 C           2.4133    0.9614   38.6169 C.3     1  UNL1        0.0323
@<TRIPOS>BOND
     1    33    34    1
     2    34    32    1
     3    32    27    1
     4    27    28   ar
     5    28    29   ar
     6    29    21    1
     7    21    22   ar
     8    22    23   ar
     9    23    24   ar
    10    24     1    1
    11     1     2   am
    12     2     3    2
    13     2     4   am
    14     4    13    1
    15    13    14   ar
    16    14    15   ar
    17    15    16    1
    18    15    17   ar
    19    17    18   ar
    20    18    19   ar
    21     4     5    1
    22     5     6    1
    23     6     7    1
    24     7     8    1
    25     8    35    1
    26    35    36    1
    27    36    37   ar
    28    37    38   ar
    29    38    39   ar
    30    39    40   ar
    31    40    41   ar
    32    41    42    1
    33     8     9    1
    34     9    10    1
    35     5    11    1
    36    11    12    2
    37    24    25   ar
    38    25    26   ar
    39    29    30   ar
    40    30    31   ar
    41    31    27   ar
    42    26    21   ar
    43    11     1   am
    44    19    13   ar
    45    10     5    1
    46    41    36   ar
    47    16    20    1
@<TRIPOS>MOLECULE
*****
 42 47 0 0 0
SMALL
GASTEIGER

@<TRIPOS>ATOM
      1 N           5.8458   -2.0073   30.2239 N.am    1  UNL1       -0.1907
      2 C           6.5935   -3.2742   29.9305 C.2     1  UNL1        0.3219
      3 O           7.1681   -4.2146   30.9480 O.2     1  UNL1       -0.2512
      4 N           6.6655   -3.4356   28.4410 N.am    1  UNL1       -0.2222
      5 C           5.9625   -2.2684   27.8136 C.3     1  UNL1        0.1391
      6 C           5.2315   -1.0502   27.3323 C.3     1  UNL1        0.0449
      7 C           5.0644   -0.8083   25.8614 C.3     1  UNL1        0.0746
      8 N           5.6283   -1.7845   24.8719 N.3     1  UNL1       -0.2676
      9 C           6.3593   -3.0026   25.3533 C.3     1  UNL1        0.0746
     10 C           6.5264   -3.2445   26.8242 C.3     1  UNL1        0.0449
     11 C           5.4559   -1.3856   28.9156 C.2     1  UNL1        0.2529
     12 O           4.6932   -0.1060   28.7400 O.2     1  UNL1       -0.2724
     13 C           7.3249   -4.5657   27.7074 C.ar    1  UNL1        0.1453
     14 C           6.5643   -5.8301   27.4381 C.ar    1  UNL1        0.0922
     15 C           7.2237   -6.9602   26.7045 C.ar    1  UNL1        0.2259
     16 O           6.4631   -8.2247   26.4351 O.3     1  UNL1       -0.4919
     17 N           8.6438   -6.8258   26.2402 N.ar    1  UNL1       -0.1894
     18 C           9.4043   -5.5613   26.5095 C.ar    1  UNL1        0.2027
     19 N           8.7449   -4.4313   27.2431 N.ar    1  UNL1       -0.2084
     20 H           5.5761   -8.3087   26.7251 H       1  UNL1        0.2938
     21 C           4.9332   -0.3606   34.3110 C.ar    1  UNL1        0.0392
     22 C           4.3609   -1.6816   33.8897 C.ar    1  UNL1        0.0044
     23 C           4.6651   -2.2305   32.5273 C.ar    1  UNL1        0.0155
     24 C           5.5416   -1.4584   31.5863 C.ar    1  UNL1        0.0622
     25 C           6.1138   -0.1374   32.0076 C.ar    1  UNL1        0.0155
     26 C           5.8096    0.4115   33.3700 C.ar    1  UNL1        0.0044
     27 C           3.5803    1.4143   37.4868 C.ar    1  UNL1        0.2668
     28 N           3.5109    1.1279   36.0160 N.ar    1  UNL1       -0.1886
     29 C           4.6289    0.1883   35.6734 C.ar    1  UNL1        0.2034
     30 N           5.3892   -0.1059   36.9325 N.ar    1  UNL1       -0.0559
     31 O           4.7412    0.6518   38.0532 O.2     1  UNL1       -0.3344
     32 C           2.6518    2.3066   38.2560 C.3     1  UNL1        0.2300
     33 C           1.2266    0.4693   39.4148 C.3     1  UNL1        0.1748
     34 O           1.9458    1.7844   39.4720 O.3     1  UNL1       -0.3416
     35 C           5.4612   -1.5425   23.4010 C.3     1  UNL1        0.1183
     36 C           6.3995   -2.1860   22.4236 C.ar    1  UNL1        0.0712
     37 N           7.7837   -1.6378   22.2406 N.ar    1  UNL1       -0.2471
     38 C           8.7221   -2.2814   21.2632 C.ar    1  UNL1        0.0985
     39 C           8.2763   -3.4732   20.4689 C.ar    1  UNL1        0.0203
     40 C           6.8921   -4.0214   20.6520 C.ar    1  UNL1       -0.0015
     41 C           5.9537   -3.3778   21.6293 C.ar    1  UNL1       -0.0069
     42 C           4.5696   -3.9260   21.8123 C.3     1  UNL1        0.0323
@<TRIPOS>BOND
     1    33    34    1
     2    34    32    1
     3    32    27    1
     4    27    28   ar
     5    28    29   ar
     6    29    21    1
     7    21    22   ar
     8    22    23   ar
     9    23    24   ar
    10    24     1    1
    11     1     2   am
    12     2     3    2
    13     2     4   am
    14     4    13    1
    15    13    14   ar
    16    14    15   ar
    17    15    16    1
    18    15    17   ar
    19    17    18   ar
    20    18    19   ar
    21     4     5    1
    22     5     6    1
    23     6     7    1
    24     7     8    1
    25     8    35    1
    26    35    36    1
    27    36    37   ar
    28    37    38   ar
    29    38    39   ar
    30    39    40   ar
    31    40    41   ar
    32    41    42    1
    33     8     9    1
    34     9    10    1
    35     5    11    1
    36    11    12    2
    37    24    25   ar
    38    25    26   ar
    39    29    30   ar
    40    30    31   ar
    41    31    27   ar
    42    26    21   ar
    43    11     1   am
    44    19    13   ar
    45    10     5    1
    46    41    36   ar
    47    16    20    1
@<TRIPOS>MOLECULE
*****
 42 47 0 0 0
SMALL
GASTEIGER

@<TRIPOS>ATOM
      1 N           2.2351    0.0950   23.0383 N.am    1  UNL1       -0.1907
      2 C           2.3718   -0.5115   21.6731 C.2     1  UNL1        0.3219
      3 O           1.4711   -0.2570   20.5011 O.2     1  UNL1       -0.2512
      4 N           3.5675   -1.4172   21.6859 N.am    1  UNL1       -0.2222
      5 C           4.1698   -1.3705   23.0589 C.3     1  UNL1        0.1391
      6 C           4.6578   -1.2229   24.4696 C.3     1  UNL1        0.0449
      7 C           5.8705   -1.9782   24.9265 C.3     1  UNL1        0.0746
      8 N           6.5953   -2.8810   23.9727 N.3     1  UNL1       -0.2676
      9 C           6.1073   -3.0286   22.5621 C.3     1  UNL1        0.0746
     10 C           4.8945   -2.2733   22.1052 C.3     1  UNL1        0.0449
     11 C           3.3464   -0.4359   23.8947 C.2     1  UNL1        0.2529
     12 O           3.5911   -0.0925   25.3342 O.2     1  UNL1       -0.2724
     13 C           4.0722   -2.2274   20.5288 C.ar    1  UNL1        0.1453
     14 C           5.0731   -1.6374   19.5800 C.ar    1  UNL1        0.0922
     15 C           5.5778   -2.4477   18.4230 C.ar    1  UNL1        0.2259
     16 O           6.5786   -1.8577   17.4741 O.3     1  UNL1       -0.4919
     17 N           5.0817   -3.8479   18.2147 N.ar    1  UNL1       -0.1894
     18 C           4.0809   -4.4379   19.1636 C.ar    1  UNL1        0.2027
     19 N           3.5762   -3.6276   20.3206 N.ar    1  UNL1       -0.2084
     20 H           6.8885   -0.9831   17.6042 H       1  UNL1        0.2938
     21 C          -0.9493    2.9974   24.3364 C.ar    1  UNL1        0.0392
     22 C          -0.4969    1.9136   25.2695 C.ar    1  UNL1        0.0044
     23 C           0.5646    0.9461   24.8368 C.ar    1  UNL1        0.0155
     24 C           1.1737    1.0625   23.4710 C.ar    1  UNL1        0.0622
     25 C           0.7213    2.1462   22.5379 C.ar    1  UNL1        0.0155
     26 C          -0.3402    3.1137   22.9706 C.ar    1  UNL1        0.0044
     27 C          -4.0988    4.8807   25.6010 C.ar    1  UNL1        0.2668
     28 N          -3.3702    3.6064   25.2921 N.ar    1  UNL1       -0.1886
     29 C          -2.0107    3.9649   24.7691 C.ar    1  UNL1        0.2034
     30 N          -1.8992    5.4606   24.7548 N.ar    1  UNL1       -0.0559
     31 O          -3.1897    6.0266   25.2690 O.2     1  UNL1       -0.3344
     32 C          -5.4919    4.9898   26.1462 C.3     1  UNL1        0.2300
     33 C          -6.9570    6.2042   27.9151 C.3     1  UNL1        0.1748
     34 O          -5.7112    5.4492   27.5572 O.3     1  UNL1       -0.3416
     35 C           7.8081   -3.6363   24.4297 C.3     1  UNL1        0.1183
     36 C           7.6653   -5.0282   24.9700 C.ar    1  UNL1        0.0712
     37 N           6.9965   -5.2541   26.2936 N.ar    1  UNL1       -0.2471
     38 C           6.8538   -6.6462   26.8339 C.ar    1  UNL1        0.0985
     39 C           7.3797   -7.8123   26.0506 C.ar    1  UNL1        0.0203
     40 C           8.0484   -7.5864   24.7271 C.ar    1  UNL1       -0.0015
     41 C           8.1912   -6.1944   24.1868 C.ar    1  UNL1       -0.0069
     42 C           8.8600   -5.9686   22.8632 C.3     1  UNL1        0.0323
@<TRIPOS>BOND
     1    33    34    1
     2    34    32    1
     3    32    27    1
     4    27    28   ar
     5    28    29   ar
     6    29    21    1
     7    21    22   ar
     8    22    23   ar
     9    23    24   ar
    10    24     1    1
    11     1     2   am
    12     2     3    2
    13     2     4   am
    14     4    13    1
    15    13    14   ar
    16    14    15   ar
    17    15    16    1
    18    15    17   ar
    19    17    18   ar
    20    18    19   ar
    21     4     5    1
    22     5     6    1
    23     6     7    1
    24     7     8    1
    25     8    35    1
    26    35    36    1
    27    36    37   ar
    28    37    38   ar
    29    38    39   ar
    30    39    40   ar
    31    40    41   ar
    32    41    42    1
    33     8     9    1
    34     9    10    1
    35     5    11    1
    36    11    12    2
    37    24    25   ar
    38    25    26   ar
    39    29    30   ar
    40    30    31   ar
    41    31    27   ar
    42    26    21   ar
    43    11     1   am
    44    19    13   ar
    45    10     5    1
    46    41    36   ar
    47    16    20    1
@<TRIPOS>MOLECULE
*****
 42 47 0 0 0
SMALL
GASTEIGER

@<TRIPOS>ATOM
      1 N           5.5818   -1.8753   28.7653 N.am    1  UNL1       -0.1907
      2 C           6.2679   -3.2080   28.8225 C.2     1  UNL1        0.3219
      3 O           6.5279   -4.0134   30.0608 O.2     1  UNL1       -0.2512
      4 N           6.6485   -3.5938   27.4238 N.am    1  UNL1       -0.2222
      5 C           6.1975   -2.4996   26.5021 C.3     1  UNL1        0.1391
      6 C           5.6919   -1.3319   25.7080 C.3     1  UNL1        0.0449
      7 C           5.8691   -1.3046   24.2187 C.3     1  UNL1        0.0746
      8 N           6.5519   -2.4450   23.5236 N.3     1  UNL1       -0.2676
      9 C           7.0575   -3.6127   24.3178 C.3     1  UNL1        0.0746
     10 C           6.8803   -3.6400   25.8070 C.3     1  UNL1        0.0449
     11 C           5.5382   -1.4375   27.3312 C.2     1  UNL1        0.2529
     12 O           4.9404   -0.1617   26.8166 O.2     1  UNL1       -0.2724
     13 C           7.3558   -4.8527   27.0179 C.ar    1  UNL1        0.1453
     14 C           6.5924   -6.1390   26.9054 C.ar    1  UNL1        0.0922
     15 C           7.2998   -7.3979   26.4995 C.ar    1  UNL1        0.2259
     16 O           6.5364   -8.6842   26.3869 O.3     1  UNL1       -0.4919
     17 N           8.7706   -7.3706   26.2061 N.ar    1  UNL1       -0.1894
     18 C           9.5340   -6.0843   26.3187 C.ar    1  UNL1        0.2027
     19 N           8.8266   -4.8254   26.7246 N.ar    1  UNL1       -0.2084
     20 H           5.6177   -8.7013   26.5702 H       1  UNL1        0.2938
     21 C           3.9418    0.4082   32.2789 C.ar    1  UNL1        0.0392
     22 C           3.0258   -0.0269   31.1736 C.ar    1  UNL1        0.0044
     23 C           3.5725   -0.7880   30.0024 C.ar    1  UNL1        0.0155
     24 C           5.0351   -1.1141   29.9365 C.ar    1  UNL1        0.0622
     25 C           5.9510   -0.6791   31.0417 C.ar    1  UNL1        0.0155
     26 C           5.4044    0.0821   32.2129 C.ar    1  UNL1        0.0044
     27 C           3.1376    2.1200   35.6684 C.ar    1  UNL1        0.2668
     28 N           4.0183    1.2596   34.8116 N.ar    1  UNL1       -0.1886
     29 C           3.3951    1.1694   33.4501 C.ar    1  UNL1        0.2034
     30 N           2.1294    1.9741   33.4655 N.ar    1  UNL1       -0.0559
     31 O           1.9702    2.5616   34.8365 O.2     1  UNL1       -0.3344
     32 C           3.3816    2.4762   37.1049 C.3     1  UNL1        0.2300
     33 C           1.4679    2.2292   38.8446 C.3     1  UNL1        0.1748
     34 O           2.2829    3.0873   37.9231 O.3     1  UNL1       -0.3416
     35 C           6.7291   -2.4176   22.0343 C.3     1  UNL1        0.1183
     36 C           5.5926   -2.8079   21.1366 C.ar    1  UNL1        0.0712
     37 N           5.3241   -4.2562   20.8529 N.ar    1  UNL1       -0.2471
     38 C           4.1875   -4.6464   19.9550 C.ar    1  UNL1        0.0985
     39 C           3.3195   -3.5884   19.3409 C.ar    1  UNL1        0.0203
     40 C           3.5880   -2.1401   19.6246 C.ar    1  UNL1       -0.0015
     41 C           4.7245   -1.7499   20.5224 C.ar    1  UNL1       -0.0069
     42 C           4.9930   -0.3016   20.8061 C.3     1  UNL1        0.0323
@<TRIPOS>BOND
     1    33    34    1
     2    34    32    1
     3    32    27    1
     4    27    28   ar
     5    28    29   ar
     6    29    21    1
     7    21    22   ar
     8    22    23   ar
     9    23    24   ar
    10    24     1    1
    11     1     2   am
    12     2     3    2
    13     2     4   am
    14     4    13    1
    15    13    14   ar
    16    14    15   ar
    17    15    16    1
    18    15    17   ar
    19    17    18   ar
    20    18    19   ar
    21     4     5    1
    22     5     6    1
    23     6     7    1
    24     7     8    1
    25     8    35    1
    26    35    36    1
    27    36    37   ar
    28    37    38   ar
    29    38    39   ar
    30    39    40   ar
    31    40    41   ar
    32    41    42    1
    33     8     9    1
    34     9    10    1
    35     5    11    1
    36    11    12    2
    37    24    25   ar
    38    25    26   ar
    39    29    30   ar
    40    30    31   ar
    41    31    27   ar
    42    26    21   ar
    43    11     1   am
    44    19    13   ar
    45    10     5    1
    46    41    36   ar
    47    16    20    1
@<TRIPOS>MOLECULE
*****
 42 47 0 0 0
SMALL
GASTEIGER

@<TRIPOS>ATOM
      1 N          -0.4501    2.6807   24.0391 N.am    1  UNL1       -0.1907
      2 C           0.7881    2.2871   24.7887 C.2     1  UNL1        0.3219
      3 O           1.0396    2.5041   26.2514 O.2     1  UNL1       -0.2512
      4 N           1.7307    1.6385   23.8187 N.am    1  UNL1       -0.2222
      5 C           1.0751    1.6312   22.4696 C.3     1  UNL1        0.1391
      6 C           0.2971    1.6949   21.1887 C.3     1  UNL1        0.0449
      7 C           0.8859    1.1408   19.9253 C.3     1  UNL1        0.0746
      8 N           2.2526    0.5229   19.9427 N.3     1  UNL1       -0.2676
      9 C           3.0305    0.4592   21.2236 C.3     1  UNL1        0.0746
     10 C           2.4418    1.0133   22.4870 C.3     1  UNL1        0.0449
     11 C          -0.2728    2.2753   22.6057 C.2     1  UNL1        0.2529
     12 O          -1.2685    2.4783   21.5024 O.2     1  UNL1       -0.2724
     13 C           3.0903    1.0930   24.1412 C.ar    1  UNL1        0.1453
     14 C           3.2411   -0.3327   24.5824 C.ar    1  UNL1        0.0922
     15 C           4.6007   -0.8781   24.9048 C.ar    1  UNL1        0.2259
     16 O           4.7515   -2.3038   25.3460 O.3     1  UNL1       -0.4919
     17 N           5.8095    0.0021   24.7860 N.ar    1  UNL1       -0.1894
     18 C           5.6587    1.4278   24.3448 C.ar    1  UNL1        0.2027
     19 N           4.2991    1.9732   24.0224 N.ar    1  UNL1       -0.2084
     20 H           3.9965   -2.8536   25.4202 H       1  UNL1        0.2938
     21 C          -4.0625    4.7195   25.7836 C.ar    1  UNL1        0.0392
     22 C          -3.5424    5.1357   24.4396 C.ar    1  UNL1        0.0044
     23 C          -2.3383    4.4561   23.8581 C.ar    1  UNL1        0.0155
     24 C          -1.6543    3.3603   24.6206 C.ar    1  UNL1        0.0622
     25 C          -2.1743    2.9442   25.9645 C.ar    1  UNL1        0.0155
     26 C          -3.3785    3.6238   26.5460 C.ar    1  UNL1        0.0044
     27 C          -6.7745    6.4879   27.9246 C.ar    1  UNL1        0.2668
     28 N          -5.4160    5.8681   27.7822 N.ar    1  UNL1       -0.1886
     29 C          -5.2666    5.3991   26.3652 C.ar    1  UNL1        0.2034
     30 N          -6.5328    5.7292   25.6319 N.ar    1  UNL1       -0.0559
     31 O          -7.4647    6.4020   26.5956 O.2     1  UNL1       -0.3344
     32 C          -7.3429    7.0882   29.1762 C.3     1  UNL1        0.2300
     33 C          -7.2855    7.2059   31.7710 C.3     1  UNL1        0.1748
     34 O          -6.5787    7.0007   30.4640 O.3     1  UNL1       -0.3416
     35 C           2.8414   -0.0312   18.6792 C.3     1  UNL1        0.1183
     36 C           3.5863   -1.3328   18.7068 C.ar    1  UNL1        0.0712
     37 N           2.9793   -2.5303   19.3759 N.ar    1  UNL1       -0.2471
     38 C           3.7243   -3.8320   19.4034 C.ar    1  UNL1        0.0985
     39 C           5.0762   -3.9362   18.7619 C.ar    1  UNL1        0.0203
     40 C           5.6831   -2.7387   18.0929 C.ar    1  UNL1       -0.0015
     41 C           4.9382   -1.4371   18.0653 C.ar    1  UNL1       -0.0069
     42 C           5.5452   -0.2396   17.3963 C.3     1  UNL1        0.0323
@<TRIPOS>BOND
     1    33    34    1
     2    34    32    1
     3    32    27    1
     4    27    28   ar
     5    28    29   ar
     6    29    21    1
     7    21    22   ar
     8    22    23   ar
     9    23    24   ar
    10    24     1    1
    11     1     2   am
    12     2     3    2
    13     2     4   am
    14     4    13    1
    15    13    14   ar
    16    14    15   ar
    17    15    16    1
    18    15    17   ar
    19    17    18   ar
    20    18    19   ar
    21     4     5    1
    22     5     6    1
    23     6     7    1
    24     7     8    1
    25     8    35    1
    26    35    36    1
    27    36    37   ar
    28    37    38   ar
    29    38    39   ar
    30    39    40   ar
    31    40    41   ar
    32    41    42    1
    33     8     9    1
    34     9    10    1
    35     5    11    1
    36    11    12    2
    37    24    25   ar
    38    25    26   ar
    39    29    30   ar
    40    30    31   ar
    41    31    27   ar
    42    26    21   ar
    43    11     1   am
    44    19    13   ar
    45    10     5    1
    46    41    36   ar
    47    16    20    1
