@<TRIPOS>MOLECULE
*****
 35 39 0 0 0
SMALL
GASTEIGER

@<TRIPOS>ATOM
      1 C          -4.5179  -18.7749   21.9042 C.ar    1  UNL1        0.0874
      2 C          -3.9281  -19.0551   20.5538 C.ar    1  UNL1        0.0370
      3 C          -2.6372  -18.4065   20.1499 C.ar    1  UNL1        0.0860
      4 N          -2.0475  -18.6868   18.7995 N.ar    1  UNL1       -0.2239
      5 C          -0.7567  -18.0382   18.3956 C.ar    1  UNL1        0.1989
      6 N          -0.0556  -17.1094   19.3421 N.ar    1  UNL1       -0.2224
      7 C          -0.6454  -16.8292   20.6925 C.ar    1  UNL1        0.1022
      8 C          -1.9362  -17.4777   21.0964 C.ar    1  UNL1        0.0400
      9 C          -2.5260  -17.1975   22.4468 C.ar    1  UNL1        0.0412
     10 C          -3.8168  -17.8461   22.8507 C.ar    1  UNL1        0.1525
     11 O          -7.1285  -17.6326   20.9662 O.2     1  UNL1       -0.2521
     12 C          -7.1140  -18.8523   21.8391 C.2     1  UNL1        0.3082
     13 N          -5.8087  -19.4235   22.3082 N.am    1  UNL1       -0.2656
     14 N          -8.4047  -19.5009   22.2431 N.am    1  UNL1       -0.2681
     15 H          -5.7992  -20.2240   22.8811 H       1  UNL1        0.1565
     16 H          -8.3952  -20.3014   22.8161 H       1  UNL1        0.1564
     17 C          -9.7101  -18.9298   21.7741 C.ar    1  UNL1        0.0515
     18 C          -9.8843  -18.5386   20.3365 C.ar    1  UNL1        0.0147
     19 C         -11.1895  -17.9675   19.8674 C.ar    1  UNL1        0.0013
     20 C         -12.3207  -17.7876   20.8360 C.ar    1  UNL1        0.0001
     21 C         -12.1465  -18.1787   22.2736 C.ar    1  UNL1        0.0012
     22 C         -13.2777  -17.9987   23.2421 C.ar    1  UNL1        0.0000
     23 C         -13.1036  -18.3899   24.6797 C.ar    1  UNL1        0.0000
     24 C         -11.7982  -18.9610   25.1487 C.ar    1  UNL1        0.0000
     25 C         -10.6671  -19.1410   24.1802 C.ar    1  UNL1        0.0012
     26 C         -10.8412  -18.7498   22.7426 C.ar    1  UNL1        0.0135
     27 O          -4.4066  -17.5658   24.2012 O.3     1  UNL1       -0.4694
     28 C          -4.7952  -16.1658   24.5740 C.3     1  UNL1        0.2321
     29 C          -6.1439  -15.8960   25.1726 C.ar    1  UNL1        0.0220
     30 C          -6.2661  -15.5786   26.6335 C.ar    1  UNL1       -0.0006
     31 C          -7.6147  -15.3087   27.2321 C.ar    1  UNL1        0.0007
     32 C          -8.8412  -15.3563   26.3698 C.ar    1  UNL1        0.0114
     33 C          -8.7190  -15.6738   24.9088 C.ar    1  UNL1        0.0575
     34 CL         -9.9454  -15.7213   24.0465 Cl      1  UNL1       -0.0823
     35 C          -7.3702  -15.9436   24.3103 C.ar    1  UNL1        0.0107
@<TRIPOS>BOND
     1    11    12    2
     2    12    13   am
     3    13     1    1
     4     1     2   ar
     5     2     3   ar
     6     3     4   ar
     7     4     5   ar
     8     5     6   ar
     9     6     7   ar
    10     7     8   ar
    11     8     9   ar
    12     9    10   ar
    13    10    27    1
    14    27    28    1
    15    28    29    1
    16    29    30   ar
    17    30    31   ar
    18    31    32   ar
    19    32    33   ar
    20    33    34    1
    21    33    35   ar
    22    12    14   am
    23    14    17    1
    24    17    18   ar
    25    18    19   ar
    26    19    20   ar
    27    20    21   ar
    28    21    22   ar
    29    22    23   ar
    30    23    24   ar
    31    24    25   ar
    32    25    26   ar
    33    10     1   ar
    34    35    29   ar
    35    26    17   ar
    36     8     3   ar
    37    26    21   ar
    38    13    15    1
    39    14    16    1
@<TRIPOS>MOLECULE
*****
 35 39 0 0 0
SMALL
GASTEIGER

@<TRIPOS>ATOM
      1 C          -4.3995  -19.1202   21.9282 C.ar    1  UNL1        0.0874
      2 C          -3.7843  -19.3404   20.5780 C.ar    1  UNL1        0.0370
      3 C          -2.6010  -18.5235   20.1507 C.ar    1  UNL1        0.0860
      4 N          -1.9858  -18.7436   18.8005 N.ar    1  UNL1       -0.2239
      5 C          -0.8025  -17.9268   18.3733 C.ar    1  UNL1        0.1989
      6 N          -0.2344  -16.8898   19.2963 N.ar    1  UNL1       -0.2224
      7 C          -0.8496  -16.6696   20.6465 C.ar    1  UNL1        0.1022
      8 C          -2.0328  -17.4865   21.0737 C.ar    1  UNL1        0.0400
      9 C          -2.6481  -17.2664   22.4239 C.ar    1  UNL1        0.0412
     10 C          -3.8313  -18.0832   22.8512 C.ar    1  UNL1        0.1525
     11 O          -7.0736  -17.8102   22.2927 O.2     1  UNL1       -0.2521
     12 C          -6.9199  -19.2821   22.5377 C.2     1  UNL1        0.3082
     13 N          -5.5828  -19.9371   22.3555 N.am    1  UNL1       -0.2656
     14 N          -8.1031  -20.0990   22.9650 N.am    1  UNL1       -0.2681
     15 H          -5.4819  -20.9031   22.5163 H       1  UNL1        0.1565
     16 H          -8.0021  -21.0650   23.1258 H       1  UNL1        0.1564
     17 C          -9.4402  -19.4440   23.1473 C.ar    1  UNL1        0.0515
     18 C         -10.0452  -19.3424   24.5161 C.ar    1  UNL1        0.0147
     19 C         -11.3823  -18.6875   24.6984 C.ar    1  UNL1        0.0013
     20 C         -12.1144  -18.1341   23.5119 C.ar    1  UNL1        0.0001
     21 C         -11.5094  -18.2357   22.1431 C.ar    1  UNL1        0.0012
     22 C         -12.2415  -17.6824   20.9565 C.ar    1  UNL1        0.0000
     23 C         -11.6366  -17.7840   19.5877 C.ar    1  UNL1        0.0000
     24 C         -10.2994  -18.4389   19.4054 C.ar    1  UNL1        0.0000
     25 C          -9.5673  -18.9923   20.5919 C.ar    1  UNL1        0.0012
     26 C         -10.1723  -18.8907   21.9608 C.ar    1  UNL1        0.0135
     27 O          -4.4466  -17.8631   24.2014 O.3     1  UNL1       -0.4694
     28 C          -4.6424  -16.4685   24.7180 C.3     1  UNL1        0.2321
     29 C          -5.9477  -16.0774   25.3451 C.ar    1  UNL1        0.0220
     30 C          -6.0089  -15.7508   26.8078 C.ar    1  UNL1       -0.0006
     31 C          -7.3142  -15.3597   27.4349 C.ar    1  UNL1        0.0007
     32 C          -8.5583  -15.2951   26.5993 C.ar    1  UNL1        0.0114
     33 C          -8.4970  -15.6217   25.1366 C.ar    1  UNL1        0.0575
     34 CL         -9.7409  -15.5571   24.3009 Cl      1  UNL1       -0.0823
     35 C          -7.1916  -16.0128   24.5095 C.ar    1  UNL1        0.0107
@<TRIPOS>BOND
     1    11    12    2
     2    12    13   am
     3    13     1    1
     4     1     2   ar
     5     2     3   ar
     6     3     4   ar
     7     4     5   ar
     8     5     6   ar
     9     6     7   ar
    10     7     8   ar
    11     8     9   ar
    12     9    10   ar
    13    10    27    1
    14    27    28    1
    15    28    29    1
    16    29    30   ar
    17    30    31   ar
    18    31    32   ar
    19    32    33   ar
    20    33    34    1
    21    33    35   ar
    22    12    14   am
    23    14    17    1
    24    17    18   ar
    25    18    19   ar
    26    19    20   ar
    27    20    21   ar
    28    21    22   ar
    29    22    23   ar
    30    23    24   ar
    31    24    25   ar
    32    25    26   ar
    33    10     1   ar
    34    35    29   ar
    35    26    17   ar
    36     8     3   ar
    37    26    21   ar
    38    13    15    1
    39    14    16    1
