@<TRIPOS>MOLECULE
*****
 43 46 0 0 0
SMALL
GASTEIGER

@<TRIPOS>ATOM
      1 N           5.6301   -1.4417   30.4112 N.3     1  UNL1       -0.2700
      2 C           6.0098   -1.6243   28.9715 C.3     1  UNL1        0.0816
      3 C           4.9311   -1.0137   28.1268 C.3     1  UNL1        0.0981
      4 C           3.8848   -0.4538   29.0442 C.3     1  UNL1        0.0483
      5 C           4.3167   -0.7183   30.4561 C.3     1  UNL1        0.0770
      6 C           2.6273    0.2475   28.6236 C.ar    1  UNL1       -0.0206
      7 C           2.7057    1.5673   27.9151 C.ar    1  UNL1       -0.0042
      8 C           1.4481    2.2685   27.4945 C.ar    1  UNL1       -0.0003
      9 C           0.1122    1.6499   27.7823 C.ar    1  UNL1        0.0001
     10 C           0.0339    0.3301   28.4908 C.ar    1  UNL1       -0.0003
     11 C           1.2914   -0.3711   28.9114 C.ar    1  UNL1       -0.0042
     12 C          -1.1452    2.3512   27.3617 C.2     1  UNL1        0.0047
     13 C          -1.0848    3.4560   26.3489 C.2     1  UNL1        0.0580
     14 C          -2.3423    4.1574   25.9282 C.2     1  UNL1        0.2497
     15 O          -2.2780    5.2833   24.9392 O.2     1  UNL1       -0.2698
     16 N          -3.6640    3.7328   26.4965 N.am    1  UNL1       -0.2794
     17 H          -3.7062    2.9938   27.1456 H       1  UNL1        0.1552
     18 C          -4.9213    4.4342   26.0758 C.ar    1  UNL1        0.0636
     19 C          -5.4810    5.5411   26.9193 C.ar    1  UNL1        0.0159
     20 C          -6.7383    6.2424   26.4985 C.ar    1  UNL1        0.0014
     21 C          -7.4361    5.8369   25.2341 C.ar    1  UNL1        0.0013
     22 C          -6.8765    4.7300   24.3905 C.ar    1  UNL1        0.0153
     23 C          -5.6191    4.0287   24.8114 C.ar    1  UNL1        0.0552
     24 N          -5.0595    2.9218   23.9678 N.pl3   1  UNL1       -0.3560
     25 H          -5.5174    2.6556   23.1379 H       1  UNL1        0.1424
     26 H          -4.2342    2.4615   24.2440 H       1  UNL1        0.1424
     27 C           4.9037   -0.9706   26.6276 C.2     1  UNL1        0.2274
     28 O           5.8797   -0.1077   25.8841 O.2     1  UNL1       -0.2747
     29 N           3.9002   -1.7903   25.8719 N.am    1  UNL1       -0.2839
     30 H           3.2596   -2.3566   26.3599 H       1  UNL1        0.1549
     31 C           3.8728   -1.7472   24.3728 C.ar    1  UNL1        0.0504
     32 C           4.6713   -2.7384   23.5792 C.ar    1  UNL1        0.0155
     33 C           4.6438   -2.6953   22.0801 C.ar    1  UNL1        0.0127
     34 C           3.8178   -1.6609   21.3746 C.ar    1  UNL1        0.0578
     35 CL          3.7904   -1.6178   19.8754 Cl      1  UNL1       -0.0822
     36 C           3.0193   -0.6697   22.1681 C.ar    1  UNL1        0.0127
     37 C           3.0468   -0.7128   23.6672 C.ar    1  UNL1        0.0155
     38 C           6.4242   -1.9018   31.5977 C.3     1  UNL1        0.0993
     39 C           5.0704   -2.7716   32.9799 C.3     1  UNL1        0.0307
     40 C           6.2139   -3.2795   32.1525 C.3     1  UNL1        0.1031
     41 C           7.3573   -3.7872   31.3251 C.3     1  UNL1        0.0307
     42 O           6.0035   -4.6571   32.7072 O.3     1  UNL1       -0.3854
     43 H           5.2610   -4.6445   33.3313 H       1  UNL1        0.2103
@<TRIPOS>BOND
     1    39    40    1
     2    40    41    1
     3    40    42    1
     4    40    38    1
     5    38     1    1
     6     1     2    1
     7     2     3    1
     8     3    27    1
     9    27    28    2
    10    27    29   am
    11    29    31    1
    12    31    32   ar
    13    32    33   ar
    14    33    34   ar
    15    34    35    1
    16    34    36   ar
    17    36    37   ar
    18     3     4    1
    19     4     6    1
    20     6     7   ar
    21     7     8   ar
    22     8     9   ar
    23     9    12    1
    24    12    13    2
    25    13    14    1
    26    14    15    2
    27    14    16   am
    28    16    18    1
    29    18    19   ar
    30    19    20   ar
    31    20    21   ar
    32    21    22   ar
    33    22    23   ar
    34    23    24    1
    35     9    10   ar
    36    10    11   ar
    37     4     5    1
    38     5     1    1
    39    37    31   ar
    40    11     6   ar
    41    23    18   ar
    42    42    43    1
    43    29    30    1
    44    16    17    1
    45    24    25    1
    46    24    26    1
@<TRIPOS>MOLECULE
*****
 43 46 0 0 0
SMALL
GASTEIGER

@<TRIPOS>ATOM
      1 N           3.7740    1.1191   37.1619 N.3     1  UNL1       -0.2700
      2 C           3.1433    1.9353   36.0727 C.3     1  UNL1        0.0816
      3 C           3.5686    1.3577   34.7553 C.3     1  UNL1        0.0981
      4 C           4.4622    0.1847   35.0302 C.3     1  UNL1        0.0483
      5 C           4.5891    0.0372   36.5175 C.3     1  UNL1        0.0770
      6 C           5.1142   -0.6877   33.9988 C.ar    1  UNL1       -0.0206
      7 C           4.3745   -1.8649   33.4360 C.ar    1  UNL1       -0.0042
      8 C           5.0266   -2.7372   32.4047 C.ar    1  UNL1       -0.0003
      9 C           6.4186   -2.4323   31.9360 C.ar    1  UNL1        0.0001
     10 C           7.1583   -1.2551   32.4988 C.ar    1  UNL1       -0.0003
     11 C           6.5062   -0.3828   33.5302 C.ar    1  UNL1       -0.0042
     12 C           7.0706   -3.3047   30.9046 C.2     1  UNL1        0.0047
     13 C           6.6353   -3.2250   29.4714 C.2     1  UNL1        0.0580
     14 C           7.2873   -4.0973   28.4399 C.2     1  UNL1        0.2497
     15 O           8.7626   -4.3606   28.5045 O.2     1  UNL1       -0.2698
     16 N           6.4641   -4.7065   27.3439 N.am    1  UNL1       -0.2794
     17 H           5.4958   -4.5337   27.3015 H       1  UNL1        0.1552
     18 C           7.1162   -5.5788   26.3125 C.ar    1  UNL1        0.0636
     19 C           7.2668   -5.0890   24.9027 C.ar    1  UNL1        0.0159
     20 C           7.9189   -5.9614   23.8714 C.ar    1  UNL1        0.0014
     21 C           8.4204   -7.3235   24.2498 C.ar    1  UNL1        0.0013
     22 C           8.2698   -7.8132   25.6596 C.ar    1  UNL1        0.0153
     23 C           7.6177   -6.9409   26.6909 C.ar    1  UNL1        0.0552
     24 N           7.4671   -7.4306   28.1007 N.pl3   1  UNL1       -0.3560
     25 H           7.7962   -8.3246   28.3490 H       1  UNL1        0.1424
     26 H           7.0391   -6.8580   28.7776 H       1  UNL1        0.1424
     27 C           3.1702    1.8643   33.4008 C.2     1  UNL1        0.2274
     28 O           4.2100    2.4153   32.4705 O.2     1  UNL1       -0.2747
     29 N           1.7322    1.8199   32.9765 N.am    1  UNL1       -0.2839
     30 H           1.0498    1.4582   33.5871 H       1  UNL1        0.1549
     31 C           1.3338    2.3265   31.6220 C.ar    1  UNL1        0.0504
     32 C           0.9938    3.7752   31.4332 C.ar    1  UNL1        0.0155
     33 C           0.5955    4.2817   30.0787 C.ar    1  UNL1        0.0127
     34 C           0.5372    3.3396   28.9130 C.ar    1  UNL1        0.0578
     35 CL          0.1388    3.8462   27.5584 Cl      1  UNL1       -0.0822
     36 C           0.8772    1.8909   29.1017 C.ar    1  UNL1        0.0127
     37 C           1.2755    1.3844   30.4562 C.ar    1  UNL1        0.0155
     38 C           3.6172    1.3452   38.6364 C.3     1  UNL1        0.0993
     39 C           1.7086    0.5274   39.0704 C.3     1  UNL1        0.0307
     40 C           2.3287    1.8889   39.1790 C.3     1  UNL1        0.1031
     41 C           2.9489    3.2503   39.2875 C.3     1  UNL1        0.0307
     42 O           1.0404    2.4325   39.7215 O.3     1  UNL1       -0.3854
     43 H           0.3845    1.7197   39.7722 H       1  UNL1        0.2103
@<TRIPOS>BOND
     1    39    40    1
     2    40    41    1
     3    40    42    1
     4    40    38    1
     5    38     1    1
     6     1     2    1
     7     2     3    1
     8     3    27    1
     9    27    28    2
    10    27    29   am
    11    29    31    1
    12    31    32   ar
    13    32    33   ar
    14    33    34   ar
    15    34    35    1
    16    34    36   ar
    17    36    37   ar
    18     3     4    1
    19     4     6    1
    20     6     7   ar
    21     7     8   ar
    22     8     9   ar
    23     9    12    1
    24    12    13    2
    25    13    14    1
    26    14    15    2
    27    14    16   am
    28    16    18    1
    29    18    19   ar
    30    19    20   ar
    31    20    21   ar
    32    21    22   ar
    33    22    23   ar
    34    23    24    1
    35     9    10   ar
    36    10    11   ar
    37     4     5    1
    38     5     1    1
    39    37    31   ar
    40    11     6   ar
    41    23    18   ar
    42    42    43    1
    43    29    30    1
    44    16    17    1
    45    24    25    1
    46    24    26    1
@<TRIPOS>MOLECULE
*****
 43 46 0 0 0
SMALL
GASTEIGER

@<TRIPOS>ATOM
      1 N          -4.1647    4.6933   23.1407 N.3     1  UNL1       -0.2700
      2 C          -3.2060    4.3398   22.0424 C.3     1  UNL1        0.0816
      3 C          -2.0507    3.6045   22.6545 C.3     1  UNL1        0.0981
      4 C          -2.2954    3.5034   24.1309 C.3     1  UNL1        0.0483
      5 C          -3.6019    4.1763   24.4314 C.3     1  UNL1        0.0770
      6 C          -1.3922    2.8450   25.1312 C.ar    1  UNL1       -0.0206
      7 C          -1.4353    3.2641   26.5708 C.ar    1  UNL1       -0.0042
      8 C          -0.5320    2.6056   27.5710 C.ar    1  UNL1       -0.0003
      9 C           0.4145    1.5280   27.1317 C.ar    1  UNL1        0.0001
     10 C           0.4576    1.1089   25.6921 C.ar    1  UNL1       -0.0003
     11 C          -0.4457    1.7673   24.6919 C.ar    1  UNL1       -0.0042
     12 C           1.3177    0.8696   28.1320 C.2     1  UNL1        0.0047
     13 C           1.2690    1.2834   29.5729 C.2     1  UNL1        0.0580
     14 C           2.1723    0.6251   30.5733 C.2     1  UNL1        0.2497
     15 O           2.1073   -0.8592   30.7796 O.2     1  UNL1       -0.2698
     16 N           3.1405    1.4510   31.3674 N.am    1  UNL1       -0.2794
     17 H           3.1832    2.4252   31.2320 H       1  UNL1        0.1552
     18 C           4.0437    0.7925   32.3677 C.ar    1  UNL1        0.0636
     19 C           5.2482    0.0293   31.9024 C.ar    1  UNL1        0.0159
     20 C           6.1513   -0.6292   32.9028 C.ar    1  UNL1        0.0014
     21 C           5.8499   -0.5243   34.3685 C.ar    1  UNL1        0.0013
     22 C           4.6454    0.2390   34.8337 C.ar    1  UNL1        0.0153
     23 C           3.7422    0.8974   33.8333 C.ar    1  UNL1        0.0552
     24 N           2.5377    1.6606   34.2986 N.pl3   1  UNL1       -0.3560
     25 H           2.3399    1.7295   35.2606 H       1  UNL1        0.1424
     26 H           1.9449    2.0928   33.6420 H       1  UNL1        0.1424
     27 C          -0.8598    3.0649   21.9191 C.2     1  UNL1        0.2274
     28 O           0.4995    3.6514   22.1603 O.2     1  UNL1       -0.2747
     29 N          -1.0283    1.9388   20.9426 N.am    1  UNL1       -0.2839
     30 H          -1.9205    1.5539   20.7844 H       1  UNL1        0.1549
     31 C           0.1626    1.3993   20.2072 C.ar    1  UNL1        0.0504
     32 C           0.8083    2.2136   19.1257 C.ar    1  UNL1        0.0155
     33 C           1.9991    1.6740   18.3904 C.ar    1  UNL1        0.0127
     34 C           2.5442    0.3201   18.7366 C.ar    1  UNL1        0.0578
     35 CL          3.7351   -0.2195   18.0012 Cl      1  UNL1       -0.0822
     36 C           1.8984   -0.4942   19.8182 C.ar    1  UNL1        0.0127
     37 C           0.7076    0.0454   20.5535 C.ar    1  UNL1        0.0155
     38 C          -5.4589    5.4336   22.9769 C.3     1  UNL1        0.0993
     39 C          -6.9337    5.0254   24.4459 C.3     1  UNL1        0.0307
     40 C          -6.7587    4.6852   22.9955 C.3     1  UNL1        0.1031
     41 C          -6.5836    4.3450   21.5452 C.3     1  UNL1        0.0307
     42 O          -8.0584    3.9367   23.0141 O.3     1  UNL1       -0.3854
     43 H          -8.4454    3.9828   23.9024 H       1  UNL1        0.2103
@<TRIPOS>BOND
     1    39    40    1
     2    40    41    1
     3    40    42    1
     4    40    38    1
     5    38     1    1
     6     1     2    1
     7     2     3    1
     8     3    27    1
     9    27    28    2
    10    27    29   am
    11    29    31    1
    12    31    32   ar
    13    32    33   ar
    14    33    34   ar
    15    34    35    1
    16    34    36   ar
    17    36    37   ar
    18     3     4    1
    19     4     6    1
    20     6     7   ar
    21     7     8   ar
    22     8     9   ar
    23     9    12    1
    24    12    13    2
    25    13    14    1
    26    14    15    2
    27    14    16   am
    28    16    18    1
    29    18    19   ar
    30    19    20   ar
    31    20    21   ar
    32    21    22   ar
    33    22    23   ar
    34    23    24    1
    35     9    10   ar
    36    10    11   ar
    37     4     5    1
    38     5     1    1
    39    37    31   ar
    40    11     6   ar
    41    23    18   ar
    42    42    43    1
    43    29    30    1
    44    16    17    1
    45    24    25    1
    46    24    26    1
@<TRIPOS>MOLECULE
*****
 43 46 0 0 0
SMALL
GASTEIGER

@<TRIPOS>ATOM
      1 N           4.4178   -2.3835   21.5557 N.3     1  UNL1       -0.2700
      2 C           4.8624   -2.2539   22.9825 C.3     1  UNL1        0.0816
      3 C           3.9880   -1.2338   23.6496 C.3     1  UNL1        0.0981
      4 C           3.0030   -0.7330   22.6352 C.3     1  UNL1        0.0483
      5 C           3.2686   -1.4435   21.3411 C.3     1  UNL1        0.0770
      6 C           1.9393    0.2974   22.8731 C.ar    1  UNL1       -0.0206
      7 C           1.3411    1.0392   21.7148 C.ar    1  UNL1       -0.0042
      8 C           0.2773    2.0696   21.9529 C.ar    1  UNL1       -0.0003
      9 C          -0.1883    2.3582   23.3493 C.ar    1  UNL1        0.0001
     10 C           0.4099    1.6163   24.5076 C.ar    1  UNL1       -0.0003
     11 C           1.4736    0.5859   24.2696 C.ar    1  UNL1       -0.0042
     12 C          -1.2521    3.3886   23.5872 C.2     1  UNL1        0.0047
     13 C          -2.3847    3.0942   24.5256 C.2     1  UNL1        0.0580
     14 C          -3.4486    4.1245   24.7636 C.2     1  UNL1        0.2497
     15 O          -3.1855    5.5641   24.4341 O.2     1  UNL1       -0.2698
     16 N          -4.7754    3.7154   25.3312 N.am    1  UNL1       -0.2794
     17 H          -4.9481    2.7706   25.5474 H       1  UNL1        0.1552
     18 C          -5.8392    4.7458   25.5692 C.ar    1  UNL1        0.0636
     19 C          -5.7605    5.6416   26.7697 C.ar    1  UNL1        0.0159
     20 C          -6.8243    6.6720   27.0076 C.ar    1  UNL1        0.0014
     21 C          -7.9668    6.8066   26.0450 C.ar    1  UNL1        0.0013
     22 C          -8.0455    5.9108   24.8445 C.ar    1  UNL1        0.0153
     23 C          -6.9817    4.8804   24.6065 C.ar    1  UNL1        0.0552
     24 N          -7.0603    3.9846   23.4060 N.pl3   1  UNL1       -0.3560
     25 H          -7.8102    4.0729   22.7742 H       1  UNL1        0.1424
     26 H          -6.3621    3.3083   23.2498 H       1  UNL1        0.1424
     27 C           4.0821   -0.7922   25.0800 C.2     1  UNL1        0.2274
     28 O           4.7224    0.5213   25.4188 O.2     1  UNL1       -0.2747
     29 N           3.5360   -1.6640   26.1716 N.am    1  UNL1       -0.2839
     30 H           3.1158   -2.5261   25.9492 H       1  UNL1        0.1549
     31 C           3.6302   -1.2223   27.6021 C.ar    1  UNL1        0.0504
     32 C           2.4366   -0.6182   28.2806 C.ar    1  UNL1        0.0155
     33 C           2.5308   -0.1766   29.7110 C.ar    1  UNL1        0.0127
     34 C           3.8185   -0.3391   30.4629 C.ar    1  UNL1        0.0578
     35 CL          3.9127    0.1025   31.8933 Cl      1  UNL1       -0.0822
     36 C           5.0121   -0.9433   29.7844 C.ar    1  UNL1        0.0127
     37 C           4.9179   -1.3849   28.3540 C.ar    1  UNL1        0.0155
     38 C           5.0171   -3.2933   20.5246 C.3     1  UNL1        0.0993
     39 C           5.9514   -1.9819   19.1436 C.3     1  UNL1        0.0307
     40 C           4.8438   -2.9905   19.0657 C.3     1  UNL1        0.1031
     41 C           3.7364   -3.9991   18.9879 C.3     1  UNL1        0.0307
     42 O           4.6706   -2.6878   17.6069 O.3     1  UNL1       -0.3854
     43 H           5.3085   -2.0076   17.3399 H       1  UNL1        0.2103
@<TRIPOS>BOND
     1    39    40    1
     2    40    41    1
     3    40    42    1
     4    40    38    1
     5    38     1    1
     6     1     2    1
     7     2     3    1
     8     3    27    1
     9    27    28    2
    10    27    29   am
    11    29    31    1
    12    31    32   ar
    13    32    33   ar
    14    33    34   ar
    15    34    35    1
    16    34    36   ar
    17    36    37   ar
    18     3     4    1
    19     4     6    1
    20     6     7   ar
    21     7     8   ar
    22     8     9   ar
    23     9    12    1
    24    12    13    2
    25    13    14    1
    26    14    15    2
    27    14    16   am
    28    16    18    1
    29    18    19   ar
    30    19    20   ar
    31    20    21   ar
    32    21    22   ar
    33    22    23   ar
    34    23    24    1
    35     9    10   ar
    36    10    11   ar
    37     4     5    1
    38     5     1    1
    39    37    31   ar
    40    11     6   ar
    41    23    18   ar
    42    42    43    1
    43    29    30    1
    44    16    17    1
    45    24    25    1
    46    24    26    1
@<TRIPOS>MOLECULE
*****
 43 46 0 0 0
SMALL
GASTEIGER

@<TRIPOS>ATOM
      1 N           6.9372   -2.9421   28.9331 N.3     1  UNL1       -0.2700
      2 C           7.0909   -3.0757   27.4469 C.3     1  UNL1        0.0816
      3 C           6.0199   -2.2529   26.7944 C.3     1  UNL1        0.0981
      4 C           5.2042   -1.6107   27.8771 C.3     1  UNL1        0.0483
      5 C           5.7712   -2.0366   29.1989 C.3     1  UNL1        0.0770
      6 C           4.0282   -0.7022   27.6737 C.ar    1  UNL1       -0.0206
      7 C           2.8539   -0.7756   28.6041 C.ar    1  UNL1       -0.0042
      8 C           1.6779    0.1330   28.4006 C.ar    1  UNL1       -0.0003
      9 C           1.6761    1.1150   27.2667 C.ar    1  UNL1        0.0001
     10 C           2.8503    1.1884   26.3363 C.ar    1  UNL1       -0.0003
     11 C           4.0263    0.2798   26.5398 C.ar    1  UNL1       -0.0042
     12 C           0.5000    2.0235   27.0633 C.2     1  UNL1        0.0047
     13 C          -0.0416    2.2516   25.6832 C.2     1  UNL1        0.0580
     14 C          -1.2176    3.1601   25.4797 C.2     1  UNL1        0.2497
     15 O          -1.2753    4.0543   24.2767 O.2     1  UNL1       -0.2698
     16 N          -2.3361    3.1746   26.4791 N.am    1  UNL1       -0.2794
     17 H          -2.2983    2.5878   27.2687 H       1  UNL1        0.1552
     18 C          -3.5121    4.0831   26.2756 C.ar    1  UNL1        0.0636
     19 C          -4.6623    3.6410   25.4203 C.ar    1  UNL1        0.0159
     20 C          -5.8383    4.5496   25.2168 C.ar    1  UNL1        0.0014
     21 C          -5.8641    5.9004   25.8685 C.ar    1  UNL1        0.0013
     22 C          -4.7139    6.3425   26.7237 C.ar    1  UNL1        0.0153
     23 C          -3.5379    5.4339   26.9273 C.ar    1  UNL1        0.0552
     24 N          -2.3876    5.8761   27.7825 N.pl3   1  UNL1       -0.3560
     25 H          -2.4046    6.7627   28.2102 H       1  UNL1        0.1424
     26 H          -1.6158    5.2797   27.9161 H       1  UNL1        0.1424
     27 C           5.8026   -2.0993   25.3181 C.2     1  UNL1        0.2274
     28 O           6.7516   -1.2722   24.5025 O.2     1  UNL1       -0.2747
     29 N           4.6364   -2.7728   24.6576 N.am    1  UNL1       -0.2839
     30 H           4.0136   -3.3157   25.1929 H       1  UNL1        0.1549
     31 C           4.4192   -2.6192   23.1813 C.ar    1  UNL1        0.0504
     32 C           4.9300   -3.6651   22.2352 C.ar    1  UNL1        0.0155
     33 C           4.7127   -3.5115   20.7590 C.ar    1  UNL1        0.0127
     34 C           3.9847   -2.3119   20.2289 C.ar    1  UNL1        0.0578
     35 CL          3.7674   -2.1583   18.7527 Cl      1  UNL1       -0.0822
     36 C           3.4739   -1.2660   21.1750 C.ar    1  UNL1        0.0127
     37 C           3.6911   -1.4197   22.6512 C.ar    1  UNL1        0.0155
     38 C           7.7984   -3.5985   29.9711 C.3     1  UNL1        0.0993
     39 C           6.8996   -5.5154   30.1034 C.3     1  UNL1        0.0307
     40 C           7.1679   -4.4007   31.0707 C.3     1  UNL1        0.1031
     41 C           7.4361   -3.2860   32.0378 C.3     1  UNL1        0.0307
     42 O           6.5374   -5.2029   32.1701 O.3     1  UNL1       -0.3854
     43 H           6.2379   -6.0554   31.8175 H       1  UNL1        0.2103
@<TRIPOS>BOND
     1    39    40    1
     2    40    41    1
     3    40    42    1
     4    40    38    1
     5    38     1    1
     6     1     2    1
     7     2     3    1
     8     3    27    1
     9    27    28    2
    10    27    29   am
    11    29    31    1
    12    31    32   ar
    13    32    33   ar
    14    33    34   ar
    15    34    35    1
    16    34    36   ar
    17    36    37   ar
    18     3     4    1
    19     4     6    1
    20     6     7   ar
    21     7     8   ar
    22     8     9   ar
    23     9    12    1
    24    12    13    2
    25    13    14    1
    26    14    15    2
    27    14    16   am
    28    16    18    1
    29    18    19   ar
    30    19    20   ar
    31    20    21   ar
    32    21    22   ar
    33    22    23   ar
    34    23    24    1
    35     9    10   ar
    36    10    11   ar
    37     4     5    1
    38     5     1    1
    39    37    31   ar
    40    11     6   ar
    41    23    18   ar
    42    42    43    1
    43    29    30    1
    44    16    17    1
    45    24    25    1
    46    24    26    1
@<TRIPOS>MOLECULE
*****
 43 46 0 0 0
SMALL
GASTEIGER

@<TRIPOS>ATOM
      1 N           5.9187   -2.3428   28.3777 N.3     1  UNL1       -0.2700
      2 C           5.7886   -1.9106   29.8083 C.3     1  UNL1        0.0816
      3 C           4.5693   -1.0444   29.9218 C.3     1  UNL1        0.0981
      4 C           3.9457   -0.9412   28.5615 C.3     1  UNL1        0.0483
      5 C           4.7796   -1.7436   27.6072 C.3     1  UNL1        0.0770
      6 C           2.7059   -0.1708   28.2162 C.ar    1  UNL1       -0.0206
      7 C           2.7533    0.8917   27.1584 C.ar    1  UNL1       -0.0042
      8 C           1.5134    1.6620   26.8131 C.ar    1  UNL1       -0.0003
      9 C           0.2261    1.3700   27.5256 C.ar    1  UNL1        0.0001
     10 C           0.1787    0.3075   28.5834 C.ar    1  UNL1       -0.0003
     11 C           1.4186   -0.4629   28.9286 C.ar    1  UNL1       -0.0042
     12 C          -1.0137    2.1404   27.1803 C.2     1  UNL1        0.0047
     13 C          -1.0862    2.9067   25.8928 C.2     1  UNL1        0.0580
     14 C          -2.3260    3.6771   25.5474 C.2     1  UNL1        0.2497
     15 O          -2.3343    4.5907   24.3578 O.2     1  UNL1       -0.2698
     16 N          -3.5577    3.5341   26.3916 N.am    1  UNL1       -0.2794
     17 H          -3.5523    2.9345   27.1725 H       1  UNL1        0.1552
     18 C          -4.7974    4.3045   26.0462 C.ar    1  UNL1        0.0636
     19 C          -5.2800    5.3958   26.9551 C.ar    1  UNL1        0.0159
     20 C          -6.5197    6.1663   26.6095 C.ar    1  UNL1        0.0014
     21 C          -7.2769    5.8454   25.3550 C.ar    1  UNL1        0.0013
     22 C          -6.7943    4.7541   24.4461 C.ar    1  UNL1        0.0153
     23 C          -5.5546    3.9836   24.7917 C.ar    1  UNL1        0.0552
     24 N          -5.0720    2.8923   23.8828 N.pl3   1  UNL1       -0.3560
     25 H          -5.5690    2.6817   23.0594 H       1  UNL1        0.1424
     26 H          -4.2583    2.3866   24.1096 H       1  UNL1        0.1424
     27 C           4.0625   -0.3954   31.1756 C.2     1  UNL1        0.2274
     28 O           3.2239   -1.1803   32.1403 O.2     1  UNL1       -0.2747
     29 N           4.3944    1.0386   31.4647 N.am    1  UNL1       -0.2839
     30 H           4.9449    1.5537   30.8316 H       1  UNL1        0.1549
     31 C           3.8877    1.6876   32.7186 C.ar    1  UNL1        0.0504
     32 C           2.4746    2.1862   32.7867 C.ar    1  UNL1        0.0155
     33 C           1.9679    2.8352   34.0404 C.ar    1  UNL1        0.0127
     34 C           2.8743    2.9857   35.2261 C.ar    1  UNL1        0.0578
     35 CL          2.3675    3.6347   36.4799 Cl      1  UNL1       -0.0822
     36 C           4.2874    2.4871   35.1580 C.ar    1  UNL1        0.0127
     37 C           4.7940    1.8381   33.9043 C.ar    1  UNL1        0.0155
     38 C           6.9981   -3.2201   27.8163 C.3     1  UNL1        0.0993
     39 C           6.9003   -4.0276   25.8572 C.3     1  UNL1        0.0307
     40 C           6.6506   -4.5595   27.2374 C.3     1  UNL1        0.1031
     41 C           6.4010   -5.0913   28.6175 C.3     1  UNL1        0.0307
     42 O           6.3032   -5.8989   26.6584 O.3     1  UNL1       -0.3854
     43 H           6.3805   -5.8633   25.6922 H       1  UNL1        0.2103
@<TRIPOS>BOND
     1    39    40    1
     2    40    41    1
     3    40    42    1
     4    40    38    1
     5    38     1    1
     6     1     2    1
     7     2     3    1
     8     3    27    1
     9    27    28    2
    10    27    29   am
    11    29    31    1
    12    31    32   ar
    13    32    33   ar
    14    33    34   ar
    15    34    35    1
    16    34    36   ar
    17    36    37   ar
    18     3     4    1
    19     4     6    1
    20     6     7   ar
    21     7     8   ar
    22     8     9   ar
    23     9    12    1
    24    12    13    2
    25    13    14    1
    26    14    15    2
    27    14    16   am
    28    16    18    1
    29    18    19   ar
    30    19    20   ar
    31    20    21   ar
    32    21    22   ar
    33    22    23   ar
    34    23    24    1
    35     9    10   ar
    36    10    11   ar
    37     4     5    1
    38     5     1    1
    39    37    31   ar
    40    11     6   ar
    41    23    18   ar
    42    42    43    1
    43    29    30    1
    44    16    17    1
    45    24    25    1
    46    24    26    1
@<TRIPOS>MOLECULE
*****
 43 46 0 0 0
SMALL
GASTEIGER

@<TRIPOS>ATOM
      1 N           4.0791    0.6483   18.8177 N.3     1  UNL1       -0.2700
      2 C           2.6169    0.9824   18.7915 C.3     1  UNL1        0.0816
      3 C           2.1342    1.0621   20.2095 C.3     1  UNL1        0.0981
      4 C           3.2979    0.7772   21.1120 C.3     1  UNL1        0.0483
      5 C           4.4999    0.5214   20.2520 C.3     1  UNL1        0.0770
      6 C           3.2652    0.7524   22.6114 C.ar    1  UNL1       -0.0206
      7 C           3.2497    2.0388   23.3827 C.ar    1  UNL1       -0.0042
      8 C           3.2170    2.0139   24.8822 C.ar    1  UNL1       -0.0003
      9 C           3.1999    0.7026   25.6104 C.ar    1  UNL1        0.0001
     10 C           3.2154   -0.5838   24.8391 C.ar    1  UNL1       -0.0003
     11 C           3.2481   -0.5589   23.3397 C.ar    1  UNL1       -0.0042
     12 C           3.1672    0.6778   27.1098 C.2     1  UNL1        0.0047
     13 C           3.1812   -0.6332   27.8386 C.2     1  UNL1        0.0580
     14 C           3.1485   -0.6581   29.3380 C.2     1  UNL1        0.2497
     15 O           1.8335   -0.6607   30.0596 O.2     1  UNL1       -0.2698
     16 N           4.4309   -0.6804   30.1160 N.am    1  UNL1       -0.2794
     17 H           5.2940   -0.6786   29.6424 H       1  UNL1        0.1552
     18 C           4.3981   -0.7053   31.6154 C.ar    1  UNL1        0.0636
     19 C           4.4584   -2.0143   32.3453 C.ar    1  UNL1        0.0159
     20 C           4.4256   -2.0391   33.8447 C.ar    1  UNL1        0.0014
     21 C           4.3326   -0.7549   34.6142 C.ar    1  UNL1        0.0013
     22 C           4.2724    0.5542   33.8843 C.ar    1  UNL1        0.0153
     23 C           4.3051    0.5790   32.3849 C.ar    1  UNL1        0.0552
     24 N           4.2449    1.8880   31.6550 N.pl3   1  UNL1       -0.3560
     25 H           4.1838    2.7309   32.1600 H       1  UNL1        0.1424
     26 H           4.2664    1.9043   30.6708 H       1  UNL1        0.1424
     27 C           0.7336    1.3723   20.6478 C.2     1  UNL1        0.2274
     28 O          -0.2437    0.2582   20.8798 O.2     1  UNL1       -0.2747
     29 N           0.3103    2.7964   20.8542 N.am    1  UNL1       -0.2839
     30 H           0.9517    3.5276   20.7019 H       1  UNL1        0.1549
     31 C          -1.0904    3.1066   21.2925 C.ar    1  UNL1        0.0504
     32 C          -1.3781    3.3938   22.7364 C.ar    1  UNL1        0.0155
     33 C          -2.7787    3.7039   23.1747 C.ar    1  UNL1        0.0127
     34 C          -3.8915    3.7268   22.1691 C.ar    1  UNL1        0.0578
     35 CL         -5.2921    4.0370   22.6075 Cl      1  UNL1       -0.0822
     36 C          -3.6038    3.4396   20.7253 C.ar    1  UNL1        0.0127
     37 C          -2.2032    3.1295   20.2870 C.ar    1  UNL1        0.0155
     38 C           4.9648    0.4719   17.6201 C.3     1  UNL1        0.0993
     39 C           7.0716    0.2316   17.5594 C.3     1  UNL1        0.0307
     40 C           5.8967   -0.7009   17.5427 C.3     1  UNL1        0.1031
     41 C           4.7219   -1.6333   17.5260 C.3     1  UNL1        0.0307
     42 O           6.8286   -1.8737   17.4652 O.3     1  UNL1       -0.3854
     43 H           7.7458   -1.5581   17.4587 H       1  UNL1        0.2103
@<TRIPOS>BOND
     1    39    40    1
     2    40    41    1
     3    40    42    1
     4    40    38    1
     5    38     1    1
     6     1     2    1
     7     2     3    1
     8     3    27    1
     9    27    28    2
    10    27    29   am
    11    29    31    1
    12    31    32   ar
    13    32    33   ar
    14    33    34   ar
    15    34    35    1
    16    34    36   ar
    17    36    37   ar
    18     3     4    1
    19     4     6    1
    20     6     7   ar
    21     7     8   ar
    22     8     9   ar
    23     9    12    1
    24    12    13    2
    25    13    14    1
    26    14    15    2
    27    14    16   am
    28    16    18    1
    29    18    19   ar
    30    19    20   ar
    31    20    21   ar
    32    21    22   ar
    33    22    23   ar
    34    23    24    1
    35     9    10   ar
    36    10    11   ar
    37     4     5    1
    38     5     1    1
    39    37    31   ar
    40    11     6   ar
    41    23    18   ar
    42    42    43    1
    43    29    30    1
    44    16    17    1
    45    24    25    1
    46    24    26    1
@<TRIPOS>MOLECULE
*****
 43 46 0 0 0
SMALL
GASTEIGER

@<TRIPOS>ATOM
      1 N           3.3898   -1.6211   19.7297 N.3     1  UNL1       -0.2700
      2 C           2.5569   -0.3934   19.5077 C.3     1  UNL1        0.0816
      3 C           2.2668    0.2182   20.8463 C.3     1  UNL1        0.0981
      4 C           2.9204   -0.6313   21.8956 C.3     1  UNL1        0.0483
      5 C           3.6144   -1.7681   21.2056 C.3     1  UNL1        0.0770
      6 C           2.8859   -0.3870   23.3751 C.ar    1  UNL1       -0.0206
      7 C           3.7686   -1.1855   24.2880 C.ar    1  UNL1       -0.0042
      8 C           3.7341   -0.9411   25.7675 C.ar    1  UNL1       -0.0003
      9 C           2.8169    0.1018   26.3343 C.ar    1  UNL1        0.0001
     10 C           1.9342    0.9002   25.4215 C.ar    1  UNL1       -0.0003
     11 C           1.9687    0.6559   23.9419 C.ar    1  UNL1       -0.0042
     12 C           2.7825    0.3461   27.8138 C.2     1  UNL1        0.0047
     13 C           3.4151   -0.6391   28.7515 C.2     1  UNL1        0.0580
     14 C           3.3807   -0.3948   30.2311 C.2     1  UNL1        0.2497
     15 O           2.0845   -0.0546   30.9051 O.2     1  UNL1       -0.2698
     16 N           4.6423   -0.4908   31.0367 N.am    1  UNL1       -0.2794
     17 H           5.4931   -0.7141   30.5944 H       1  UNL1        0.1552
     18 C           4.6078   -0.2465   32.5163 C.ar    1  UNL1        0.0636
     19 C           4.6297    1.1568   33.0455 C.ar    1  UNL1        0.0159
     20 C           4.5952    1.4010   34.5251 C.ar    1  UNL1        0.0014
     21 C           4.5388    0.2418   35.4754 C.ar    1  UNL1        0.0013
     22 C           4.5169   -1.1616   34.9462 C.ar    1  UNL1        0.0153
     23 C           4.5514   -1.4057   33.4666 C.ar    1  UNL1        0.0552
     24 N           4.5296   -2.8091   32.9374 N.pl3   1  UNL1       -0.3560
     25 H           4.4925   -3.5699   33.5611 H       1  UNL1        0.1424
     26 H           4.5522   -2.9693   31.9663 H       1  UNL1        0.1424
     27 C           1.4641    1.4613   21.0923 C.2     1  UNL1        0.2274
     28 O           2.1568    2.7824   21.2503 O.2     1  UNL1       -0.2747
     29 N          -0.0313    1.3833   21.1803 N.am    1  UNL1       -0.2839
     30 H          -0.4859    0.5162   21.0765 H       1  UNL1        0.1549
     31 C          -0.8340    2.6264   21.4263 C.ar    1  UNL1        0.0504
     32 C          -1.5841    3.2703   20.2981 C.ar    1  UNL1        0.0155
     33 C          -2.3868    4.5133   20.5442 C.ar    1  UNL1        0.0127
     34 C          -2.4394    5.1124   21.9183 C.ar    1  UNL1        0.0578
     35 CL         -3.2421    6.3555   22.1644 Cl      1  UNL1       -0.0822
     36 C          -1.6893    4.4685   23.0465 C.ar    1  UNL1        0.0127
     37 C          -0.8866    3.2255   22.8004 C.ar    1  UNL1        0.0155
     38 C           3.9071   -2.5403   18.6633 C.3     1  UNL1        0.0993
     39 C           3.2292   -4.4921   19.1434 C.3     1  UNL1        0.0307
     40 C           4.5716   -3.8304   19.0427 C.3     1  UNL1        0.1031
     41 C           5.9139   -3.1687   18.9421 C.3     1  UNL1        0.0307
     42 O           5.2361   -5.1205   19.4222 O.3     1  UNL1       -0.3854
     43 H           4.5609   -5.8021   19.5654 H       1  UNL1        0.2103
@<TRIPOS>BOND
     1    39    40    1
     2    40    41    1
     3    40    42    1
     4    40    38    1
     5    38     1    1
     6     1     2    1
     7     2     3    1
     8     3    27    1
     9    27    28    2
    10    27    29   am
    11    29    31    1
    12    31    32   ar
    13    32    33   ar
    14    33    34   ar
    15    34    35    1
    16    34    36   ar
    17    36    37   ar
    18     3     4    1
    19     4     6    1
    20     6     7   ar
    21     7     8   ar
    22     8     9   ar
    23     9    12    1
    24    12    13    2
    25    13    14    1
    26    14    15    2
    27    14    16   am
    28    16    18    1
    29    18    19   ar
    30    19    20   ar
    31    20    21   ar
    32    21    22   ar
    33    22    23   ar
    34    23    24    1
    35     9    10   ar
    36    10    11   ar
    37     4     5    1
    38     5     1    1
    39    37    31   ar
    40    11     6   ar
    41    23    18   ar
    42    42    43    1
    43    29    30    1
    44    16    17    1
    45    24    25    1
    46    24    26    1
@<TRIPOS>MOLECULE
*****
 43 46 0 0 0
SMALL
GASTEIGER

@<TRIPOS>ATOM
      1 N           5.4016   -3.7872   21.4518 N.3     1  UNL1       -0.2700
      2 C           6.3557   -4.2011   22.5329 C.3     1  UNL1        0.0816
      3 C           5.9976   -3.4485   23.7801 C.3     1  UNL1        0.0981
      4 C           4.8224   -2.5696   23.4700 C.3     1  UNL1        0.0483
      5 C           4.4540   -2.7789   22.0311 C.3     1  UNL1        0.0770
      6 C           4.1360   -1.6440   24.4302 C.ar    1  UNL1       -0.0206
      7 C           3.2336   -0.5626   23.9144 C.ar    1  UNL1       -0.0042
      8 C           2.5472    0.3630   24.8747 C.ar    1  UNL1       -0.0003
      9 C           2.7633    0.2072   26.3509 C.ar    1  UNL1        0.0001
     10 C           3.6657   -0.8742   26.8667 C.ar    1  UNL1       -0.0003
     11 C           4.3521   -1.7998   25.9064 C.ar    1  UNL1       -0.0042
     12 C           2.0770    1.1328   27.3111 C.2     1  UNL1        0.0047
     13 C           1.8280    0.6971   28.7247 C.2     1  UNL1        0.0580
     14 C           1.1417    1.6227   29.6850 C.2     1  UNL1        0.2497
     15 O          -0.1823    1.2412   30.2778 O.2     1  UNL1       -0.2698
     16 N           1.7792    2.9298   30.0525 N.am    1  UNL1       -0.2794
     17 H           2.6482    3.1802   29.6634 H       1  UNL1        0.1552
     18 C           1.0928    3.8552   31.0128 C.ar    1  UNL1        0.0636
     19 C           1.2387    3.6455   32.4909 C.ar    1  UNL1        0.0159
     20 C           0.5523    4.5710   33.4511 C.ar    1  UNL1        0.0014
     21 C          -0.2801    5.7064   32.9333 C.ar    1  UNL1        0.0013
     22 C          -0.4261    5.9161   31.4553 C.ar    1  UNL1        0.0153
     23 C           0.2604    4.9906   30.4950 C.ar    1  UNL1        0.0552
     24 N           0.1145    5.2004   29.0170 N.pl3   1  UNL1       -0.3560
     25 H          -0.4319    5.9455   28.6771 H       1  UNL1        0.1424
     26 H           0.5650    4.5929   28.3867 H       1  UNL1        0.1424
     27 C           6.6929   -3.5561   25.1049 C.2     1  UNL1        0.2274
     28 O           7.6938   -2.5162   25.5133 O.2     1  UNL1       -0.2747
     29 N           6.3873   -4.7036   26.0213 N.am    1  UNL1       -0.2839
     30 H           5.7304   -5.3862   25.7533 H       1  UNL1        0.1549
     31 C           7.0826   -4.8112   27.3461 C.ar    1  UNL1        0.0504
     32 C           6.5585   -4.0564   28.5317 C.ar    1  UNL1        0.0155
     33 C           7.2538   -4.1640   29.8564 C.ar    1  UNL1        0.0127
     34 C           8.4731   -5.0265   29.9956 C.ar    1  UNL1        0.0578
     35 CL          9.1684   -5.1341   31.3204 Cl      1  UNL1       -0.0822
     36 C           8.9972   -5.7813   28.8101 C.ar    1  UNL1        0.0127
     37 C           8.3019   -5.6737   27.4853 C.ar    1  UNL1        0.0155
     38 C           5.3962   -4.2928   20.0396 C.3     1  UNL1        0.0993
     39 C           3.5268   -4.2950   19.0370 C.3     1  UNL1        0.0307
     40 C           4.7758   -3.4689   18.9504 C.3     1  UNL1        0.1031
     41 C           6.0247   -2.6428   18.8639 C.3     1  UNL1        0.0307
     42 O           4.1555   -2.6450   17.8613 O.3     1  UNL1       -0.3854
     43 H           3.2602   -2.9711   17.6793 H       1  UNL1        0.2103
@<TRIPOS>BOND
     1    39    40    1
     2    40    41    1
     3    40    42    1
     4    40    38    1
     5    38     1    1
     6     1     2    1
     7     2     3    1
     8     3    27    1
     9    27    28    2
    10    27    29   am
    11    29    31    1
    12    31    32   ar
    13    32    33   ar
    14    33    34   ar
    15    34    35    1
    16    34    36   ar
    17    36    37   ar
    18     3     4    1
    19     4     6    1
    20     6     7   ar
    21     7     8   ar
    22     8     9   ar
    23     9    12    1
    24    12    13    2
    25    13    14    1
    26    14    15    2
    27    14    16   am
    28    16    18    1
    29    18    19   ar
    30    19    20   ar
    31    20    21   ar
    32    21    22   ar
    33    22    23   ar
    34    23    24    1
    35     9    10   ar
    36    10    11   ar
    37     4     5    1
    38     5     1    1
    39    37    31   ar
    40    11     6   ar
    41    23    18   ar
    42    42    43    1
    43    29    30    1
    44    16    17    1
    45    24    25    1
    46    24    26    1
