@<TRIPOS>MOLECULE
*****
 35 39 0 0 0
SMALL
GASTEIGER

@<TRIPOS>ATOM
      1 C           3.7817   -1.1363   25.0415 C.ar    1  UNL1        0.1453
      2 C           2.7831   -0.0763   24.6817 C.ar    1  UNL1        0.0375
      3 C           2.3168    0.0642   23.2631 C.ar    1  UNL1        0.0033
      4 C           2.8489   -0.8552   22.2041 C.ar    1  UNL1        0.0046
      5 C           2.3825   -0.7146   20.7853 C.ar    1  UNL1        0.0537
      6 C           2.9147   -1.6340   19.7263 C.ar    1  UNL1        0.0045
      7 C           3.9133   -2.6940   20.0860 C.ar    1  UNL1        0.0001
      8 C           4.3796   -2.8345   21.5047 C.ar    1  UNL1        0.0001
      9 C           3.8475   -1.9151   22.5637 C.ar    1  UNL1        0.0032
     10 C           4.3139   -2.0557   23.9825 C.ar    1  UNL1        0.0375
     11 C           1.3840    0.3454   20.4256 C.2     1  UNL1        0.2495
     12 O          -0.0772    0.1146   20.6742 O.2     1  UNL1       -0.2698
     13 N           1.8466    1.6361   19.8175 N.am    1  UNL1       -0.2803
     14 H           2.8056    1.7876   19.6544 H       1  UNL1        0.1552
     15 C           0.8481    2.6961   19.4578 C.ar    1  UNL1        0.0537
     16 C           0.4560    3.7315   20.4698 C.ar    1  UNL1        0.0353
     17 C          -0.5425    4.7915   20.1102 C.ar    1  UNL1        0.1002
     18 N          -1.1489    4.8161   18.7385 N.ar    1  UNL1       -0.2422
     19 C          -0.7569    3.7807   17.7264 C.ar    1  UNL1        0.1002
     20 C           0.2416    2.7207   18.0861 C.ar    1  UNL1        0.0353
     21 O           4.2481   -1.2769   26.4602 O.3     1  UNL1       -0.4534
     22 C           1.3997    1.3581   30.2276 C.ar    1  UNL1        0.1739
     23 C           2.6889    2.1103   30.0790 C.ar    1  UNL1        0.0592
     24 C           3.7233    1.6397   29.0999 C.ar    1  UNL1        0.0875
     25 N           5.0125    2.3919   28.9513 N.ar    1  UNL1       -0.2435
     26 C           6.0469    1.9213   27.9723 C.ar    1  UNL1        0.1020
     27 C           5.7921    0.6983   27.1419 C.ar    1  UNL1        0.0581
     28 C           4.5029   -0.0539   27.2905 C.ar    1  UNL1        0.1483
     29 C           3.4685    0.4167   28.2696 C.ar    1  UNL1        0.0554
     30 C           2.1793   -0.3355   28.4182 C.ar    1  UNL1        0.0446
     31 C           1.1449    0.1351   29.3973 C.ar    1  UNL1        0.1726
     32 C           0.4329    3.2224   31.7572 C.3     1  UNL1        0.2526
     33 O           0.3653    1.8287   31.2067 O.3     1  UNL1       -0.4683
     34 O          -0.1443   -0.6171   29.5459 O.3     1  UNL1       -0.4684
     35 C          -1.3587   -0.1828   28.7801 C.3     1  UNL1        0.2526
@<TRIPOS>BOND
     1    32    33    1
     2    33    22    1
     3    22    23   ar
     4    23    24   ar
     5    24    25   ar
     6    25    26   ar
     7    26    27   ar
     8    27    28   ar
     9    28    21    1
    10    21     1    1
    11     1     2   ar
    12     2     3   ar
    13     3     4   ar
    14     4     5   ar
    15     5    11    1
    16    11    12    2
    17    11    13   am
    18    13    15    1
    19    15    16   ar
    20    16    17   ar
    21    17    18   ar
    22    18    19   ar
    23    19    20   ar
    24     5     6   ar
    25     6     7   ar
    26     7     8   ar
    27     8     9   ar
    28     9    10   ar
    29    28    29   ar
    30    29    30   ar
    31    30    31   ar
    32    31    34    1
    33    34    35    1
    34    31    22   ar
    35    29    24   ar
    36    10     1   ar
    37     9     4   ar
    38    20    15   ar
    39    13    14    1
@<TRIPOS>MOLECULE
*****
 35 39 0 0 0
SMALL
GASTEIGER

@<TRIPOS>ATOM
      1 C           2.1952   -0.8553   20.7209 C.ar    1  UNL1        0.1453
      2 C           2.7021   -1.0252   22.1225 C.ar    1  UNL1        0.0375
      3 C           2.2177   -0.1138   23.2109 C.ar    1  UNL1        0.0033
      4 C           1.2263    0.9675   22.8979 C.ar    1  UNL1        0.0046
      5 C           0.7419    1.8789   23.9864 C.ar    1  UNL1        0.0537
      6 C          -0.2495    2.9602   23.6733 C.ar    1  UNL1        0.0045
      7 C          -0.7564    3.1301   22.2718 C.ar    1  UNL1        0.0001
      8 C          -0.2720    2.2187   21.1834 C.ar    1  UNL1        0.0001
      9 C           0.7194    1.1374   21.4964 C.ar    1  UNL1        0.0032
     10 C           1.2038    0.2260   20.4079 C.ar    1  UNL1        0.0375
     11 C           1.2488    1.7089   25.3878 C.2     1  UNL1        0.2495
     12 O           2.5365    2.3564   25.8033 O.2     1  UNL1       -0.2698
     13 N           0.4680    0.8915   26.3738 N.am    1  UNL1       -0.2803
     14 H          -0.3772    0.4666   26.1011 H       1  UNL1        0.1552
     15 C           0.9749    0.7216   27.7753 C.ar    1  UNL1        0.0537
     16 C           1.9691   -0.3574   28.0876 C.ar    1  UNL1        0.0353
     17 C           2.4760   -0.5274   29.4890 C.ar    1  UNL1        0.1002
     18 N           1.9888    0.3816   30.5782 N.ar    1  UNL1       -0.2422
     19 C           0.9946    1.4605   30.2659 C.ar    1  UNL1        0.1002
     20 C           0.4877    1.6305   28.8645 C.ar    1  UNL1        0.0353
     21 O           2.6796   -1.7667   19.6325 O.3     1  UNL1       -0.4534
     22 C           7.8683   -3.1362   20.3046 C.ar    1  UNL1        0.1739
     23 C           7.8250   -2.2513   19.0942 C.ar    1  UNL1        0.0592
     24 C           6.5170   -1.6876   18.6236 C.ar    1  UNL1        0.0875
     25 N           6.4737   -0.8027   17.4132 N.ar    1  UNL1       -0.2435
     26 C           5.1657   -0.2391   16.9426 C.ar    1  UNL1        0.1020
     27 C           3.9010   -0.5604   17.6824 C.ar    1  UNL1        0.0581
     28 C           3.9443   -1.4453   18.8928 C.ar    1  UNL1        0.1483
     29 C           5.2523   -2.0089   19.3633 C.ar    1  UNL1        0.0554
     30 C           5.2956   -2.8939   20.5737 C.ar    1  UNL1        0.0446
     31 C           6.6036   -3.4575   21.0443 C.ar    1  UNL1        0.1726
     32 C           9.4295   -5.1761   20.6939 C.3     1  UNL1        0.2526
     33 O           9.1763   -3.6998   20.7752 O.3     1  UNL1       -0.4683
     34 O           6.6469   -4.3425   22.2547 O.3     1  UNL1       -0.4684
     35 C           6.6196   -3.7379   23.6272 C.3     1  UNL1        0.2526
@<TRIPOS>BOND
     1    32    33    1
     2    33    22    1
     3    22    23   ar
     4    23    24   ar
     5    24    25   ar
     6    25    26   ar
     7    26    27   ar
     8    27    28   ar
     9    28    21    1
    10    21     1    1
    11     1     2   ar
    12     2     3   ar
    13     3     4   ar
    14     4     5   ar
    15     5    11    1
    16    11    12    2
    17    11    13   am
    18    13    15    1
    19    15    16   ar
    20    16    17   ar
    21    17    18   ar
    22    18    19   ar
    23    19    20   ar
    24     5     6   ar
    25     6     7   ar
    26     7     8   ar
    27     8     9   ar
    28     9    10   ar
    29    28    29   ar
    30    29    30   ar
    31    30    31   ar
    32    31    34    1
    33    34    35    1
    34    31    22   ar
    35    29    24   ar
    36    10     1   ar
    37     9     4   ar
    38    20    15   ar
    39    13    14    1
@<TRIPOS>MOLECULE
*****
 35 39 0 0 0
SMALL
GASTEIGER

@<TRIPOS>ATOM
      1 C           7.0392   -2.8861   22.7372 C.ar    1  UNL1        0.1453
      2 C           6.5107   -2.4848   24.0825 C.ar    1  UNL1        0.0375
      3 C           6.5991   -3.4376   25.2376 C.ar    1  UNL1        0.0033
      4 C           7.2161   -4.7915   25.0476 C.ar    1  UNL1        0.0046
      5 C           7.3045   -5.7443   26.2028 C.ar    1  UNL1        0.0537
      6 C           7.9215   -7.0982   26.0128 C.ar    1  UNL1        0.0045
      7 C           8.4500   -7.4995   24.6675 C.ar    1  UNL1        0.0001
      8 C           8.3616   -6.5468   23.5124 C.ar    1  UNL1        0.0001
      9 C           7.7446   -5.1928   23.7024 C.ar    1  UNL1        0.0032
     10 C           7.6562   -4.2400   22.5471 C.ar    1  UNL1        0.0375
     11 C           6.7760   -5.3430   27.5480 C.2     1  UNL1        0.2495
     12 O           5.4109   -5.7891   27.9811 O.2     1  UNL1       -0.2698
     13 N           7.6126   -4.4957   28.4602 N.am    1  UNL1       -0.2803
     14 H           8.5085   -4.2029   28.1760 H       1  UNL1        0.1552
     15 C           7.0841   -4.0943   29.8055 C.ar    1  UNL1        0.0537
     16 C           6.5749   -2.7007   30.0260 C.ar    1  UNL1        0.0353
     17 C           6.0464   -2.2994   31.3712 C.ar    1  UNL1        0.1002
     18 N           6.0271   -3.2917   32.4959 N.ar    1  UNL1       -0.2422
     19 C           6.5362   -4.6853   32.2754 C.ar    1  UNL1        0.1002
     20 C           7.0647   -5.0866   30.9302 C.ar    1  UNL1        0.0353
     21 O           6.9508   -1.9334   21.5820 O.3     1  UNL1       -0.4534
     22 C           1.8079   -0.3863   20.9434 C.ar    1  UNL1        0.1739
     23 C           2.1550   -1.1897   19.7252 C.ar    1  UNL1        0.0592
     24 C           3.5275   -1.7773   19.5802 C.ar    1  UNL1        0.0875
     25 N           3.8746   -2.5807   18.3620 N.ar    1  UNL1       -0.2435
     26 C           5.2471   -3.1682   18.2171 C.ar    1  UNL1        0.1020
     27 C           6.2725   -2.9525   19.2904 C.ar    1  UNL1        0.0581
     28 C           5.9254   -2.1491   20.5087 C.ar    1  UNL1        0.1483
     29 C           4.5529   -1.5615   20.6536 C.ar    1  UNL1        0.0554
     30 C           4.2058   -0.7582   21.8718 C.ar    1  UNL1        0.0446
     31 C           2.8333   -0.1706   22.0167 C.ar    1  UNL1        0.1726
     32 C           0.1414    1.5650   20.5372 C.3     1  UNL1        0.2526
     33 O           0.4354    0.2013   21.0884 O.3     1  UNL1       -0.4683
     34 O           2.4862    0.6328   23.2350 O.3     1  UNL1       -0.4684
     35 C           2.7050    0.0550   24.6019 C.3     1  UNL1        0.2526
@<TRIPOS>BOND
     1    32    33    1
     2    33    22    1
     3    22    23   ar
     4    23    24   ar
     5    24    25   ar
     6    25    26   ar
     7    26    27   ar
     8    27    28   ar
     9    28    21    1
    10    21     1    1
    11     1     2   ar
    12     2     3   ar
    13     3     4   ar
    14     4     5   ar
    15     5    11    1
    16    11    12    2
    17    11    13   am
    18    13    15    1
    19    15    16   ar
    20    16    17   ar
    21    17    18   ar
    22    18    19   ar
    23    19    20   ar
    24     5     6   ar
    25     6     7   ar
    26     7     8   ar
    27     8     9   ar
    28     9    10   ar
    29    28    29   ar
    30    29    30   ar
    31    30    31   ar
    32    31    34    1
    33    34    35    1
    34    31    22   ar
    35    29    24   ar
    36    10     1   ar
    37     9     4   ar
    38    20    15   ar
    39    13    14    1
@<TRIPOS>MOLECULE
*****
 35 39 0 0 0
SMALL
GASTEIGER

@<TRIPOS>ATOM
      1 C           4.2459   -2.7501   21.6974 C.ar    1  UNL1        0.1453
      2 C           5.1974   -3.8392   22.0960 C.ar    1  UNL1        0.0375
      3 C           5.7598   -3.8722   23.4861 C.ar    1  UNL1        0.0033
      4 C           5.3707   -2.8162   24.4779 C.ar    1  UNL1        0.0046
      5 C           5.9331   -2.8493   25.8681 C.ar    1  UNL1        0.0537
      6 C           5.5440   -1.7933   26.8598 C.ar    1  UNL1        0.0045
      7 C           4.5926   -0.7042   26.4613 C.ar    1  UNL1        0.0001
      8 C           4.0302   -0.6712   25.0711 C.ar    1  UNL1        0.0001
      9 C           4.4193   -1.7272   24.0794 C.ar    1  UNL1        0.0032
     10 C           3.8569   -1.6941   22.6891 C.ar    1  UNL1        0.0375
     11 C           6.8845   -3.9383   26.2666 C.2     1  UNL1        0.2495
     12 O           8.3530   -3.7854   26.0015 O.2     1  UNL1       -0.2698
     13 N           6.3674   -5.1802   26.9300 N.am    1  UNL1       -0.2803
     14 H           5.4036   -5.2805   27.1040 H       1  UNL1        0.1552
     15 C           7.3189   -6.2693   27.3286 C.ar    1  UNL1        0.0537
     16 C           7.5906   -7.4080   26.3907 C.ar    1  UNL1        0.0353
     17 C           8.5420   -8.4971   26.7892 C.ar    1  UNL1        0.1002
     18 N           9.2216   -8.4474   28.1254 N.ar    1  UNL1       -0.2422
     19 C           8.9498   -7.3087   29.0632 C.ar    1  UNL1        0.1002
     20 C           7.9985   -6.2196   28.6648 C.ar    1  UNL1        0.0353
     21 O           3.6836   -2.7171   20.3073 O.3     1  UNL1       -0.4534
     22 C           1.5037    2.0633   19.0244 C.ar    1  UNL1        0.1739
     23 C           2.7493    1.9389   18.1980 C.ar    1  UNL1        0.0592
     24 C           3.6057    0.7126   18.3121 C.ar    1  UNL1        0.0875
     25 N           4.8513    0.5882   17.4857 N.ar    1  UNL1       -0.2435
     26 C           5.7076   -0.6380   17.5998 C.ar    1  UNL1        0.1020
     27 C           5.3184   -1.7398   18.5403 C.ar    1  UNL1        0.0581
     28 C           4.0728   -1.6154   19.3667 C.ar    1  UNL1        0.1483
     29 C           3.2165   -0.3892   19.2526 C.ar    1  UNL1        0.0554
     30 C           1.9708   -0.2647   20.0791 C.ar    1  UNL1        0.0446
     31 C           1.1145    0.9615   19.9650 C.ar    1  UNL1        0.1726
     32 C          -0.3274    3.4208   17.7778 C.3     1  UNL1        0.2526
     33 O           0.6473    3.2895   18.9103 O.3     1  UNL1       -0.4683
     34 O          -0.1312    1.0860   20.7914 O.3     1  UNL1       -0.4684
     35 C          -0.1331    1.9462   22.0202 C.3     1  UNL1        0.2526
@<TRIPOS>BOND
     1    32    33    1
     2    33    22    1
     3    22    23   ar
     4    23    24   ar
     5    24    25   ar
     6    25    26   ar
     7    26    27   ar
     8    27    28   ar
     9    28    21    1
    10    21     1    1
    11     1     2   ar
    12     2     3   ar
    13     3     4   ar
    14     4     5   ar
    15     5    11    1
    16    11    12    2
    17    11    13   am
    18    13    15    1
    19    15    16   ar
    20    16    17   ar
    21    17    18   ar
    22    18    19   ar
    23    19    20   ar
    24     5     6   ar
    25     6     7   ar
    26     7     8   ar
    27     8     9   ar
    28     9    10   ar
    29    28    29   ar
    30    29    30   ar
    31    30    31   ar
    32    31    34    1
    33    34    35    1
    34    31    22   ar
    35    29    24   ar
    36    10     1   ar
    37     9     4   ar
    38    20    15   ar
    39    13    14    1
@<TRIPOS>MOLECULE
*****
 35 39 0 0 0
SMALL
GASTEIGER

@<TRIPOS>ATOM
      1 C           0.6607    1.3865   23.6940 C.ar    1  UNL1        0.1453
      2 C           1.9014    0.6411   24.0878 C.ar    1  UNL1        0.0375
      3 C           2.7540   -0.0047   23.0361 C.ar    1  UNL1        0.0033
      4 C           2.3659    0.0948   21.5906 C.ar    1  UNL1        0.0046
      5 C           3.2185   -0.5510   20.5389 C.ar    1  UNL1        0.0537
      6 C           2.8303   -0.4515   19.0934 C.ar    1  UNL1        0.0045
      7 C           1.5896    0.2939   18.6996 C.ar    1  UNL1        0.0001
      8 C           0.7371    0.9397   19.7513 C.ar    1  UNL1        0.0001
      9 C           1.1252    0.8402   21.1968 C.ar    1  UNL1        0.0032
     10 C           0.2726    1.4860   22.2485 C.ar    1  UNL1        0.0375
     11 C           4.4591   -1.2964   20.9327 C.2     1  UNL1        0.2495
     12 O           5.7715   -0.5752   21.0201 O.2     1  UNL1       -0.2698
     13 N           4.3875   -2.7630   21.2392 N.am    1  UNL1       -0.2803
     14 H           3.5262   -3.2363   21.1819 H       1  UNL1        0.1552
     15 C           5.6282   -3.5084   21.6331 C.ar    1  UNL1        0.0537
     16 C           6.6437   -3.8772   20.5925 C.ar    1  UNL1        0.0353
     17 C           7.8843   -4.6226   20.9862 C.ar    1  UNL1        0.1002
     18 N           8.1095   -4.9992   22.4206 N.ar    1  UNL1       -0.2422
     19 C           7.0941   -4.6304   23.4612 C.ar    1  UNL1        0.1002
     20 C           5.8534   -3.8850   23.0674 C.ar    1  UNL1        0.0353
     21 O          -0.1919    2.0322   24.7457 O.3     1  UNL1       -0.4534
     22 C           0.6073    1.9918   30.0945 C.ar    1  UNL1        0.1739
     23 C           1.1535    3.2991   29.6021 C.ar    1  UNL1        0.0592
     24 C           1.0903    3.6361   28.1418 C.ar    1  UNL1        0.0875
     25 N           1.6366    4.9434   27.6494 N.ar    1  UNL1       -0.2435
     26 C           1.5734    5.2804   26.1891 C.ar    1  UNL1        0.1020
     27 C           0.9639    4.3100   25.2212 C.ar    1  UNL1        0.0581
     28 C           0.4176    3.0026   25.7136 C.ar    1  UNL1        0.1483
     29 C           0.4808    2.6657   27.1738 C.ar    1  UNL1        0.0554
     30 C          -0.0654    1.3583   27.6663 C.ar    1  UNL1        0.0446
     31 C          -0.0022    1.0214   29.1265 C.ar    1  UNL1        0.1726
     32 C           1.4155    2.5505   32.4996 C.3     1  UNL1        0.2526
     33 O           0.6705    1.6548   31.5548 O.3     1  UNL1       -0.4683
     34 O          -0.5485   -0.2860   29.6190 O.3     1  UNL1       -0.4684
     35 C          -1.7338   -0.9066   28.9409 C.3     1  UNL1        0.2526
@<TRIPOS>BOND
     1    32    33    1
     2    33    22    1
     3    22    23   ar
     4    23    24   ar
     5    24    25   ar
     6    25    26   ar
     7    26    27   ar
     8    27    28   ar
     9    28    21    1
    10    21     1    1
    11     1     2   ar
    12     2     3   ar
    13     3     4   ar
    14     4     5   ar
    15     5    11    1
    16    11    12    2
    17    11    13   am
    18    13    15    1
    19    15    16   ar
    20    16    17   ar
    21    17    18   ar
    22    18    19   ar
    23    19    20   ar
    24     5     6   ar
    25     6     7   ar
    26     7     8   ar
    27     8     9   ar
    28     9    10   ar
    29    28    29   ar
    30    29    30   ar
    31    30    31   ar
    32    31    34    1
    33    34    35    1
    34    31    22   ar
    35    29    24   ar
    36    10     1   ar
    37     9     4   ar
    38    20    15   ar
    39    13    14    1
@<TRIPOS>MOLECULE
*****
 35 39 0 0 0
SMALL
GASTEIGER

@<TRIPOS>ATOM
      1 C           3.4996   -1.5259   22.5160 C.ar    1  UNL1        0.1453
      2 C           4.4992   -2.5665   22.9260 C.ar    1  UNL1        0.0375
      3 C           5.0196   -2.5936   24.3325 C.ar    1  UNL1        0.0033
      4 C           4.5405   -1.5802   25.3292 C.ar    1  UNL1        0.0046
      5 C           5.0609   -1.6073   26.7358 C.ar    1  UNL1        0.0537
      6 C           4.5818   -0.5939   27.7324 C.ar    1  UNL1        0.0045
      7 C           3.5822    0.4467   27.3225 C.ar    1  UNL1        0.0001
      8 C           3.0618    0.4739   25.9160 C.ar    1  UNL1        0.0001
      9 C           3.5409   -0.5396   24.9193 C.ar    1  UNL1        0.0032
     10 C           3.0204   -0.5124   23.5127 C.ar    1  UNL1        0.0375
     11 C           6.0605   -2.6479   27.1456 C.2     1  UNL1        0.2495
     12 O           7.5289   -2.3621   27.0351 O.2     1  UNL1       -0.2698
     13 N           5.5917   -3.9743   27.6661 N.am    1  UNL1       -0.2803
     14 H           4.6280   -4.1618   27.7386 H       1  UNL1        0.1552
     15 C           6.5913   -5.0149   28.0760 C.ar    1  UNL1        0.0537
     16 C           7.0720   -5.0751   29.4956 C.ar    1  UNL1        0.0353
     17 C           8.0715   -6.1157   29.9055 C.ar    1  UNL1        0.1002
     18 N           8.5903   -7.0961   28.8958 N.ar    1  UNL1       -0.2422
     19 C           8.1096   -7.0359   27.4762 C.ar    1  UNL1        0.1002
     20 C           7.1101   -5.9954   27.0663 C.ar    1  UNL1        0.0353
     21 O           2.9791   -1.4988   21.1095 O.3     1  UNL1       -0.4534
     22 C           5.6877    1.4050   17.4378 C.ar    1  UNL1        0.1739
     23 C           5.9934   -0.0328   17.1390 C.ar    1  UNL1        0.0592
     24 C           5.3927   -1.1182   17.9822 C.ar    1  UNL1        0.0875
     25 N           5.6984   -2.5560   17.6835 N.ar    1  UNL1       -0.2435
     26 C           5.0977   -3.6414   18.5267 C.ar    1  UNL1        0.1020
     27 C           4.1913   -3.2889   19.6687 C.ar    1  UNL1        0.0581
     28 C           3.8856   -1.8512   19.9675 C.ar    1  UNL1        0.1483
     29 C           4.4863   -0.7658   19.1243 C.ar    1  UNL1        0.0554
     30 C           4.1806    0.6720   19.4230 C.ar    1  UNL1        0.0446
     31 C           4.7813    1.7574   18.5798 C.ar    1  UNL1        0.1726
     32 C           7.6794    2.9760   16.8764 C.3     1  UNL1        0.2526
     33 O           6.2885    2.4904   16.5945 O.3     1  UNL1       -0.4683
     34 O           4.4756    3.1953   18.8785 O.3     1  UNL1       -0.4684
     35 C           3.3713    3.8956   18.1437 C.3     1  UNL1        0.2526
@<TRIPOS>BOND
     1    32    33    1
     2    33    22    1
     3    22    23   ar
     4    23    24   ar
     5    24    25   ar
     6    25    26   ar
     7    26    27   ar
     8    27    28   ar
     9    28    21    1
    10    21     1    1
    11     1     2   ar
    12     2     3   ar
    13     3     4   ar
    14     4     5   ar
    15     5    11    1
    16    11    12    2
    17    11    13   am
    18    13    15    1
    19    15    16   ar
    20    16    17   ar
    21    17    18   ar
    22    18    19   ar
    23    19    20   ar
    24     5     6   ar
    25     6     7   ar
    26     7     8   ar
    27     8     9   ar
    28     9    10   ar
    29    28    29   ar
    30    29    30   ar
    31    30    31   ar
    32    31    34    1
    33    34    35    1
    34    31    22   ar
    35    29    24   ar
    36    10     1   ar
    37     9     4   ar
    38    20    15   ar
    39    13    14    1
@<TRIPOS>MOLECULE
*****
 35 39 0 0 0
SMALL
GASTEIGER

@<TRIPOS>ATOM
      1 C           4.6465   -1.0414   33.6572 C.ar    1  UNL1        0.1453
      2 C           3.6358   -0.1148   33.0488 C.ar    1  UNL1        0.0375
      3 C           3.5174   -0.0090   31.5573 C.ar    1  UNL1        0.0033
      4 C           4.4098   -0.8296   30.6740 C.ar    1  UNL1        0.0046
      5 C           4.2914   -0.7237   29.1824 C.ar    1  UNL1        0.0537
      6 C           5.1837   -1.5444   28.2991 C.ar    1  UNL1        0.0045
      7 C           6.1945   -2.4709   28.9074 C.ar    1  UNL1        0.0001
      8 C           6.3128   -2.5768   30.3989 C.ar    1  UNL1        0.0001
      9 C           5.4205   -1.7561   31.2822 C.ar    1  UNL1        0.0032
     10 C           5.5388   -1.8621   32.7739 C.ar    1  UNL1        0.0375
     11 C           3.2807    0.2028   28.5741 C.2     1  UNL1        0.2495
     12 O           3.5484    1.6780   28.5268 O.2     1  UNL1       -0.2698
     13 N           2.0023   -0.3458   28.0132 N.am    1  UNL1       -0.2803
     14 H           1.8266   -1.3140   28.0443 H       1  UNL1        0.1552
     15 C           0.9915    0.5808   27.4050 C.ar    1  UNL1        0.0537
     16 C          -0.1878    1.0379   28.2114 C.ar    1  UNL1        0.0353
     17 C          -1.1985    1.9644   27.6032 C.ar    1  UNL1        0.1002
     18 N          -1.0300    2.4338   26.1886 N.ar    1  UNL1       -0.2422
     19 C           0.1493    1.9766   25.3821 C.ar    1  UNL1        0.1002
     20 C           1.1601    1.0501   25.9903 C.ar    1  UNL1        0.0353
     21 O           4.7648   -1.1473   35.1487 O.3     1  UNL1       -0.4534
     22 C           3.7809    2.5522   38.9692 C.ar    1  UNL1        0.1739
     23 C           5.2557    2.6120   38.7021 C.ar    1  UNL1        0.0592
     24 C           5.8705    1.7021   37.6802 C.ar    1  UNL1        0.0875
     25 N           7.3452    1.7619   37.4132 N.ar    1  UNL1       -0.2435
     26 C           7.9599    0.8520   36.3914 C.ar    1  UNL1        0.1020
     27 C           7.0998   -0.1177   35.6365 C.ar    1  UNL1        0.0581
     28 C           5.6250   -0.1775   35.9035 C.ar    1  UNL1        0.1483
     29 C           5.0103    0.7324   36.9254 C.ar    1  UNL1        0.0554
     30 C           3.5354    0.6726   37.1925 C.ar    1  UNL1        0.0446
     31 C           2.9208    1.5825   38.2143 C.ar    1  UNL1        0.1726
     32 C           3.9299    4.6521   40.4918 C.3     1  UNL1        0.2526
     33 O           3.1662    3.4621   39.9911 O.3     1  UNL1       -0.4683
     34 O           1.4459    1.5227   38.4814 O.3     1  UNL1       -0.4684
     35 C           0.9016    0.5304   39.4658 C.3     1  UNL1        0.2526
@<TRIPOS>BOND
     1    32    33    1
     2    33    22    1
     3    22    23   ar
     4    23    24   ar
     5    24    25   ar
     6    25    26   ar
     7    26    27   ar
     8    27    28   ar
     9    28    21    1
    10    21     1    1
    11     1     2   ar
    12     2     3   ar
    13     3     4   ar
    14     4     5   ar
    15     5    11    1
    16    11    12    2
    17    11    13   am
    18    13    15    1
    19    15    16   ar
    20    16    17   ar
    21    17    18   ar
    22    18    19   ar
    23    19    20   ar
    24     5     6   ar
    25     6     7   ar
    26     7     8   ar
    27     8     9   ar
    28     9    10   ar
    29    28    29   ar
    30    29    30   ar
    31    30    31   ar
    32    31    34    1
    33    34    35    1
    34    31    22   ar
    35    29    24   ar
    36    10     1   ar
    37     9     4   ar
    38    20    15   ar
    39    13    14    1
@<TRIPOS>MOLECULE
*****
 35 39 0 0 0
SMALL
GASTEIGER

@<TRIPOS>ATOM
      1 C           1.0214    4.1159   18.8412 C.ar    1  UNL1        0.1453
      2 C           0.9857    2.6220   18.9716 C.ar    1  UNL1        0.0375
      3 C           2.2044    1.8112   18.6437 C.ar    1  UNL1        0.0033
      4 C           3.4587    2.4943   18.1854 C.ar    1  UNL1        0.0046
      5 C           4.6773    1.6834   17.8575 C.ar    1  UNL1        0.0537
      6 C           5.9317    2.3665   17.3991 C.ar    1  UNL1        0.0045
      7 C           5.9673    3.8604   17.2687 C.ar    1  UNL1        0.0001
      8 C           4.7487    4.6712   17.5966 C.ar    1  UNL1        0.0001
      9 C           3.4944    3.9881   18.0550 C.ar    1  UNL1        0.0032
     10 C           2.2757    4.7990   18.3829 C.ar    1  UNL1        0.0375
     11 C           4.6416    0.1895   17.9879 C.2     1  UNL1        0.2495
     12 O           4.4551   -0.6654   16.7696 O.2     1  UNL1       -0.2698
     13 N           4.7925   -0.4493   19.3366 N.am    1  UNL1       -0.2803
     14 H           4.9149    0.1119   20.1362 H       1  UNL1        0.1552
     15 C           4.7567   -1.9433   19.4671 C.ar    1  UNL1        0.0537
     16 C           5.9964   -2.6918   19.8580 C.ar    1  UNL1        0.0353
     17 C           5.9608   -4.1856   19.9885 C.ar    1  UNL1        0.1002
     18 N           4.6854   -4.9310   19.7281 N.ar    1  UNL1       -0.2422
     19 C           3.4457   -4.1824   19.3371 C.ar    1  UNL1        0.1002
     20 C           3.4814   -2.6886   19.2066 C.ar    1  UNL1        0.0353
     21 O          -0.1972    4.9267   19.1691 O.3     1  UNL1       -0.4534
     22 C          -4.9062    3.8936   21.6201 C.ar    1  UNL1        0.1739
     23 C          -5.1349    3.6459   20.1585 C.ar    1  UNL1        0.0592
     24 C          -4.0147    3.8422   19.1803 C.ar    1  UNL1        0.0875
     25 N          -4.2434    3.5946   17.7187 N.ar    1  UNL1       -0.2435
     26 C          -3.1233    3.7909   16.7406 C.ar    1  UNL1        0.1020
     27 C          -1.7745    4.2350   17.2241 C.ar    1  UNL1        0.0581
     28 C          -1.5459    4.4827   18.6857 C.ar    1  UNL1        0.1483
     29 C          -2.6660    4.2863   19.6638 C.ar    1  UNL1        0.0554
     30 C          -2.4374    4.5340   21.1255 C.ar    1  UNL1        0.0446
     31 C          -3.5575    4.3376   22.1036 C.ar    1  UNL1        0.1726
     32 C          -7.2339    4.5854   22.5440 C.3     1  UNL1        0.2526
     33 O          -6.0263    3.6972   22.5984 O.3     1  UNL1       -0.4683
     34 O          -3.3289    4.5853   23.5653 O.3     1  UNL1       -0.4684
     35 C          -3.0839    3.4316   24.4921 C.3     1  UNL1        0.2526
@<TRIPOS>BOND
     1    32    33    1
     2    33    22    1
     3    22    23   ar
     4    23    24   ar
     5    24    25   ar
     6    25    26   ar
     7    26    27   ar
     8    27    28   ar
     9    28    21    1
    10    21     1    1
    11     1     2   ar
    12     2     3   ar
    13     3     4   ar
    14     4     5   ar
    15     5    11    1
    16    11    12    2
    17    11    13   am
    18    13    15    1
    19    15    16   ar
    20    16    17   ar
    21    17    18   ar
    22    18    19   ar
    23    19    20   ar
    24     5     6   ar
    25     6     7   ar
    26     7     8   ar
    27     8     9   ar
    28     9    10   ar
    29    28    29   ar
    30    29    30   ar
    31    30    31   ar
    32    31    34    1
    33    34    35    1
    34    31    22   ar
    35    29    24   ar
    36    10     1   ar
    37     9     4   ar
    38    20    15   ar
    39    13    14    1
@<TRIPOS>MOLECULE
*****
 35 39 0 0 0
SMALL
GASTEIGER

@<TRIPOS>ATOM
      1 C           0.3465    1.8629   21.1176 C.ar    1  UNL1        0.1453
      2 C           1.1858    1.4252   22.2813 C.ar    1  UNL1        0.0375
      3 C           0.8168    1.8467   23.6727 C.ar    1  UNL1        0.0033
      4 C          -0.3914    2.7060   23.9005 C.ar    1  UNL1        0.0046
      5 C          -0.7604    3.1276   25.2920 C.ar    1  UNL1        0.0537
      6 C          -1.9686    3.9868   25.5198 C.ar    1  UNL1        0.0045
      7 C          -2.8079    4.4245   24.3561 C.ar    1  UNL1        0.0001
      8 C          -2.4389    4.0029   22.9647 C.ar    1  UNL1        0.0001
      9 C          -1.2307    3.1437   22.7369 C.ar    1  UNL1        0.0032
     10 C          -0.8617    2.7221   21.3454 C.ar    1  UNL1        0.0375
     11 C           0.0789    2.6899   26.4556 C.2     1  UNL1        0.2495
     12 O           1.4724    3.2209   26.6171 O.2     1  UNL1       -0.2698
     13 N          -0.4754    1.7212   27.4578 N.am    1  UNL1       -0.2803
     14 H          -1.3901    1.3727   27.3518 H       1  UNL1        0.1552
     15 C           0.3638    1.2835   28.6215 C.ar    1  UNL1        0.0537
     16 C           1.1094   -0.0167   28.5614 C.ar    1  UNL1        0.0353
     17 C           1.9487   -0.4544   29.7250 C.ar    1  UNL1        0.1002
     18 N           2.0423    0.4080   30.9487 N.ar    1  UNL1       -0.2422
     19 C           1.2967    1.7082   31.0087 C.ar    1  UNL1        0.1002
     20 C           0.4575    2.1459   29.8451 C.ar    1  UNL1        0.0353
     21 O           0.7155    1.4413   19.7261 O.3     1  UNL1       -0.4534
     22 C           5.1905   -1.0224   17.9502 C.ar    1  UNL1        0.1739
     23 C           5.4043    0.4444   17.7208 C.ar    1  UNL1        0.0592
     24 C           4.3389    1.4271   18.1074 C.ar    1  UNL1        0.0875
     25 N           4.5527    2.8939   17.8780 N.ar    1  UNL1       -0.2435
     26 C           3.4874    3.8765   18.2646 C.ar    1  UNL1        0.1020
     27 C           2.2083    3.3923   18.8807 C.ar    1  UNL1        0.0581
     28 C           1.9946    1.9255   19.1101 C.ar    1  UNL1        0.1483
     29 C           3.0599    0.9429   18.7235 C.ar    1  UNL1        0.0554
     30 C           2.8461   -0.5240   18.9529 C.ar    1  UNL1        0.0446
     31 C           3.9115   -1.5067   18.5663 C.ar    1  UNL1        0.1726
     32 C           7.4144   -2.2557   18.4829 C.3     1  UNL1        0.2526
     33 O           6.2559   -2.0052   17.5636 O.3     1  UNL1       -0.4683
     34 O           3.6977   -2.9736   18.7957 O.3     1  UNL1       -0.4684
     35 C           4.1880   -3.6141   20.0603 C.3     1  UNL1        0.2526
@<TRIPOS>BOND
     1    32    33    1
     2    33    22    1
     3    22    23   ar
     4    23    24   ar
     5    24    25   ar
     6    25    26   ar
     7    26    27   ar
     8    27    28   ar
     9    28    21    1
    10    21     1    1
    11     1     2   ar
    12     2     3   ar
    13     3     4   ar
    14     4     5   ar
    15     5    11    1
    16    11    12    2
    17    11    13   am
    18    13    15    1
    19    15    16   ar
    20    16    17   ar
    21    17    18   ar
    22    18    19   ar
    23    19    20   ar
    24     5     6   ar
    25     6     7   ar
    26     7     8   ar
    27     8     9   ar
    28     9    10   ar
    29    28    29   ar
    30    29    30   ar
    31    30    31   ar
    32    31    34    1
    33    34    35    1
    34    31    22   ar
    35    29    24   ar
    36    10     1   ar
    37     9     4   ar
    38    20    15   ar
    39    13    14    1
