@<TRIPOS>MOLECULE
*****
 28 31 0 0 0
SMALL
GASTEIGER

@<TRIPOS>ATOM
      1 C           3.8736    0.9783   18.2691 C.ar    1  UNL1       -0.0208
      2 C           3.7900    2.4636   18.4611 C.ar    1  UNL1       -0.0042
      3 C           2.4524    3.1272   18.6039 C.ar    1  UNL1        0.0012
      4 C           1.1984    2.3055   18.5547 C.ar    1  UNL1        0.0193
      5 C           1.2820    0.8202   18.3627 C.ar    1  UNL1        0.0012
      6 C           2.6196    0.1566   18.2200 C.ar    1  UNL1       -0.0042
      7 C          -0.1392    2.9691   18.6975 C.ar    1  UNL1        0.1015
      8 C          -0.7483    3.6878   17.5303 C.ar    1  UNL1        0.0258
      9 C          -2.0860    4.3515   17.6731 C.ar    1  UNL1        0.0641
     10 C          -2.8145    4.2964   18.9832 C.ar    1  UNL1        0.2805
     11 O          -4.1520    4.9601   19.1260 O.2     1  UNL1       -0.2652
     12 N          -2.2053    3.5777   20.1504 N.ar    1  UNL1       -0.1945
     13 N          -0.8677    2.9141   20.0076 N.ar    1  UNL1       -0.1626
     14 C          -2.9338    3.5226   21.4605 C.ar    1  UNL1        0.0861
     15 C          -2.2310    3.9143   22.7265 C.ar    1  UNL1        0.0216
     16 C          -2.9595    3.8593   24.0366 C.ar    1  UNL1        0.0312
     17 C          -4.3908    3.4125   24.0806 C.ar    1  UNL1        0.1402
     18 F          -5.1192    3.3575   25.3907 F       1  UNL1       -0.2042
     19 C          -5.0935    3.0208   22.8147 C.ar    1  UNL1        0.0312
     20 C          -4.3650    3.0759   21.5046 C.ar    1  UNL1        0.0216
     21 C           5.2112    0.3146   18.1263 C.3     1  UNL1        0.0437
     22 C           5.6947   -0.6336   19.1832 C.3     1  UNL1        0.0768
     23 C           3.6188   -1.7474   21.4414 C.3     1  UNL1        0.0173
     24 C           4.1804   -2.5352   20.2951 C.3     1  UNL1        0.0576
     25 C           3.8865   -3.9731   19.9856 C.3     1  UNL1        0.0174
     26 C           4.6591   -4.3499   18.7562 C.3     1  UNL1        0.0187
     27 C           5.4305   -3.1447   18.3060 C.3     1  UNL1        0.0721
     28 N           5.1346   -2.0232   19.2572 N.3     1  UNL1       -0.2737
@<TRIPOS>BOND
     1    24    23    1
     2    24    25    1
     3    25    26    1
     4    26    27    1
     5    27    28    1
     6    28    22    1
     7    22    21    1
     8    21     1    1
     9     1     2   ar
    10     2     3   ar
    11     3     4   ar
    12     4     7    1
    13     7     8   ar
    14     8     9   ar
    15     9    10   ar
    16    10    11    2
    17    10    12   ar
    18    12    14    1
    19    14    15   ar
    20    15    16   ar
    21    16    17   ar
    22    17    18    1
    23    17    19   ar
    24    19    20   ar
    25    12    13   ar
    26     4     5   ar
    27     5     6   ar
    28    28    24    1
    29     6     1   ar
    30    13     7   ar
    31    20    14   ar
@<TRIPOS>MOLECULE
*****
 28 31 0 0 0
SMALL
GASTEIGER

@<TRIPOS>ATOM
      1 C           6.3544   -3.7551   24.5298 C.ar    1  UNL1       -0.0208
      2 C           5.2954   -2.7051   24.3685 C.ar    1  UNL1       -0.0042
      3 C           4.9011   -2.2422   22.9973 C.ar    1  UNL1        0.0012
      4 C           5.5659   -2.8291   21.7875 C.ar    1  UNL1        0.0193
      5 C           6.6249   -3.8790   21.9489 C.ar    1  UNL1        0.0012
      6 C           7.0192   -4.3420   23.3200 C.ar    1  UNL1       -0.0042
      7 C           5.1715   -2.3660   20.4163 C.ar    1  UNL1        0.1015
      8 C           5.6270   -3.1283   19.2074 C.ar    1  UNL1        0.0258
      9 C           5.2326   -2.6653   17.8362 C.ar    1  UNL1        0.0641
     10 C           4.3828   -1.4399   17.6740 C.ar    1  UNL1        0.2805
     11 O           3.9885   -0.9769   16.3028 O.2     1  UNL1       -0.2652
     12 N           3.9274   -0.6776   18.8829 N.ar    1  UNL1       -0.1945
     13 N           4.3217   -1.1407   20.2540 N.ar    1  UNL1       -0.1626
     14 C           3.0775    0.5477   18.7207 C.ar    1  UNL1        0.0861
     15 C           1.5874    0.4175   18.6081 C.ar    1  UNL1        0.0216
     16 C           0.7376    1.6428   18.4458 C.ar    1  UNL1        0.0312
     17 C           1.3779    2.9984   18.3962 C.ar    1  UNL1        0.1402
     18 F           0.5281    4.2238   18.2339 F       1  UNL1       -0.2042
     19 C           2.8680    3.1286   18.5087 C.ar    1  UNL1        0.0312
     20 C           3.7178    1.9033   18.6710 C.ar    1  UNL1        0.0216
     21 C           6.7488   -4.2181   25.9011 C.3     1  UNL1        0.0437
     22 C           8.1268   -4.7591   26.1425 C.3     1  UNL1        0.0768
     23 C           8.2990   -7.5118   24.3983 C.3     1  UNL1        0.0173
     24 C           8.3824   -7.4082   25.8924 C.3     1  UNL1        0.0576
     25 C           8.5597   -8.5515   26.8470 C.3     1  UNL1        0.0174
     26 C           8.5900   -7.9928   28.2388 C.3     1  UNL1        0.0187
     27 C           8.4316   -6.5041   28.1443 C.3     1  UNL1        0.0721
     28 N           8.3033   -6.1429   26.6941 N.3     1  UNL1       -0.2737
@<TRIPOS>BOND
     1    24    23    1
     2    24    25    1
     3    25    26    1
     4    26    27    1
     5    27    28    1
     6    28    22    1
     7    22    21    1
     8    21     1    1
     9     1     2   ar
    10     2     3   ar
    11     3     4   ar
    12     4     7    1
    13     7     8   ar
    14     8     9   ar
    15     9    10   ar
    16    10    11    2
    17    10    12   ar
    18    12    14    1
    19    14    15   ar
    20    15    16   ar
    21    16    17   ar
    22    17    18    1
    23    17    19   ar
    24    19    20   ar
    25    12    13   ar
    26     4     5   ar
    27     5     6   ar
    28    28    24    1
    29     6     1   ar
    30    13     7   ar
    31    20    14   ar
@<TRIPOS>MOLECULE
*****
 28 31 0 0 0
SMALL
GASTEIGER

@<TRIPOS>ATOM
      1 C           3.1636   -1.2451   19.0858 C.ar    1  UNL1       -0.0208
      2 C           3.2692   -0.0700   18.1595 C.ar    1  UNL1       -0.0042
      3 C           2.2687    1.0442   18.2446 C.ar    1  UNL1        0.0012
      4 C           1.1625    0.9834   19.2558 C.ar    1  UNL1        0.0193
      5 C           1.0568   -0.1917   20.1820 C.ar    1  UNL1        0.0012
      6 C           2.0573   -1.3060   20.0970 C.ar    1  UNL1       -0.0042
      7 C           0.1619    2.0977   19.3407 C.ar    1  UNL1        0.1015
      8 C           0.1035    3.1372   18.2610 C.ar    1  UNL1        0.0258
      9 C          -0.8971    4.2516   18.3460 C.ar    1  UNL1        0.0641
     10 C          -1.8393    4.3263   19.5107 C.ar    1  UNL1        0.2805
     11 O          -2.8398    5.4406   19.5957 O.2     1  UNL1       -0.2652
     12 N          -1.7808    3.2867   20.5905 N.ar    1  UNL1       -0.1945
     13 N          -0.7803    2.1725   20.5055 N.ar    1  UNL1       -0.1626
     14 C          -2.7230    3.3615   21.7553 C.ar    1  UNL1        0.0861
     15 C          -2.1942    3.6408   23.1310 C.ar    1  UNL1        0.0216
     16 C          -3.1364    3.7156   24.2958 C.ar    1  UNL1        0.0312
     17 C          -4.6074    3.5110   24.0849 C.ar    1  UNL1        0.1402
     18 F          -5.5495    3.5857   25.2497 F       1  UNL1       -0.2042
     19 C          -5.1361    3.2317   22.7093 C.ar    1  UNL1        0.0312
     20 C          -4.1939    3.1569   21.5445 C.ar    1  UNL1        0.0216
     21 C           4.1641   -2.3595   19.0008 C.3     1  UNL1        0.0437
     22 C           5.3144   -2.4095   19.9621 C.3     1  UNL1        0.0768
     23 C           5.5115    0.4977   21.4314 C.3     1  UNL1        0.0173
     24 C           5.1762   -0.8048   22.0955 C.3     1  UNL1        0.0576
     25 C           4.8726   -0.9997   23.5514 C.3     1  UNL1        0.0174
     26 C           4.5944   -2.4566   23.7760 C.3     1  UNL1        0.0187
     27 C           4.7261   -3.1620   22.4587 C.3     1  UNL1        0.0721
     28 N           5.0856   -2.1411   21.4201 N.3     1  UNL1       -0.2737
@<TRIPOS>BOND
     1    24    23    1
     2    24    25    1
     3    25    26    1
     4    26    27    1
     5    27    28    1
     6    28    22    1
     7    22    21    1
     8    21     1    1
     9     1     2   ar
    10     2     3   ar
    11     3     4   ar
    12     4     7    1
    13     7     8   ar
    14     8     9   ar
    15     9    10   ar
    16    10    11    2
    17    10    12   ar
    18    12    14    1
    19    14    15   ar
    20    15    16   ar
    21    16    17   ar
    22    17    18    1
    23    17    19   ar
    24    19    20   ar
    25    12    13   ar
    26     4     5   ar
    27     5     6   ar
    28    28    24    1
    29     6     1   ar
    30    13     7   ar
    31    20    14   ar
@<TRIPOS>MOLECULE
*****
 28 31 0 0 0
SMALL
GASTEIGER

@<TRIPOS>ATOM
      1 C           6.8532   -3.4627   20.9238 C.ar    1  UNL1       -0.0208
      2 C           8.0838   -4.3190   20.9719 C.ar    1  UNL1       -0.0042
      3 C           8.4112   -5.0923   22.2147 C.ar    1  UNL1        0.0012
      4 C           7.5082   -5.0093   23.4095 C.ar    1  UNL1        0.0193
      5 C           6.2776   -4.1529   23.3615 C.ar    1  UNL1        0.0012
      6 C           5.9501   -3.3796   22.1186 C.ar    1  UNL1       -0.0042
      7 C           7.8357   -5.7827   24.6524 C.ar    1  UNL1        0.1015
      8 C           8.2115   -7.2316   24.5569 C.ar    1  UNL1        0.0258
      9 C           8.5390   -8.0050   25.7998 C.ar    1  UNL1        0.0641
     10 C           8.4907   -7.3293   27.1381 C.ar    1  UNL1        0.2805
     11 O           8.8182   -8.1026   28.3810 O.2     1  UNL1       -0.2652
     12 N           8.1149   -5.8803   27.2336 N.ar    1  UNL1       -0.1945
     13 N           7.7874   -5.1070   25.9907 N.ar    1  UNL1       -0.1626
     14 C           8.0665   -5.2046   28.5719 C.ar    1  UNL1        0.0861
     15 C           6.8601   -5.3634   29.4491 C.ar    1  UNL1        0.0216
     16 C           6.8118   -4.6877   30.7874 C.ar    1  UNL1        0.0312
     17 C           7.9699   -3.8532   31.2485 C.ar    1  UNL1        0.1402
     18 F           7.9215   -3.1775   32.5869 F       1  UNL1       -0.2042
     19 C           9.1762   -3.6944   30.3713 C.ar    1  UNL1        0.0312
     20 C           9.2245   -4.3701   29.0330 C.ar    1  UNL1        0.0216
     21 C           6.5257   -2.6893   19.6809 C.3     1  UNL1        0.0437
     22 C           5.2147   -2.9074   18.9855 C.3     1  UNL1        0.0768
     23 C           4.3827   -0.4934   16.9533 C.3     1  UNL1        0.0173
     24 C           3.7070   -0.8261   18.2504 C.3     1  UNL1        0.0576
     25 C           2.5301   -0.1077   18.8412 C.3     1  UNL1        0.0174
     26 C           2.1852   -0.7733   20.1405 C.3     1  UNL1        0.0187
     27 C           3.1489   -1.9031   20.3527 C.3     1  UNL1        0.0721
     28 N           4.0894   -1.9357   19.1845 N.3     1  UNL1       -0.2737
@<TRIPOS>BOND
     1    24    23    1
     2    24    25    1
     3    25    26    1
     4    26    27    1
     5    27    28    1
     6    28    22    1
     7    22    21    1
     8    21     1    1
     9     1     2   ar
    10     2     3   ar
    11     3     4   ar
    12     4     7    1
    13     7     8   ar
    14     8     9   ar
    15     9    10   ar
    16    10    11    2
    17    10    12   ar
    18    12    14    1
    19    14    15   ar
    20    15    16   ar
    21    16    17   ar
    22    17    18    1
    23    17    19   ar
    24    19    20   ar
    25    12    13   ar
    26     4     5   ar
    27     5     6   ar
    28    28    24    1
    29     6     1   ar
    30    13     7   ar
    31    20    14   ar
@<TRIPOS>MOLECULE
*****
 28 31 0 0 0
SMALL
GASTEIGER

@<TRIPOS>ATOM
      1 C           3.0026   -1.0153   19.1691 C.ar    1  UNL1       -0.0208
      2 C           1.8941   -1.1048   20.1757 C.ar    1  UNL1       -0.0042
      3 C           0.8667   -0.0150   20.2586 C.ar    1  UNL1        0.0012
      4 C           0.9479    1.1641   19.3350 C.ar    1  UNL1        0.0193
      5 C           2.0564    1.2535   18.3285 C.ar    1  UNL1        0.0012
      6 C           3.0838    0.1638   18.2455 C.ar    1  UNL1       -0.0042
      7 C          -0.0796    2.2539   19.4180 C.ar    1  UNL1        0.1015
      8 C          -0.1867    3.2689   18.3188 C.ar    1  UNL1        0.0258
      9 C          -1.2142    4.3587   18.4018 C.ar    1  UNL1        0.0641
     10 C          -2.1345    4.4333   19.5839 C.ar    1  UNL1        0.2805
     11 O          -3.1619    5.5230   19.6670 O.2     1  UNL1       -0.2652
     12 N          -2.0273    3.4182   20.6831 N.ar    1  UNL1       -0.1945
     13 N          -0.9999    2.3285   20.6001 N.ar    1  UNL1       -0.1626
     14 C          -2.9476    3.4929   21.8653 C.ar    1  UNL1        0.0861
     15 C          -4.4054    3.1794   21.7019 C.ar    1  UNL1        0.0216
     16 C          -5.3256    3.2540   22.8840 C.ar    1  UNL1        0.0312
     17 C          -4.7881    3.6422   24.2296 C.ar    1  UNL1        0.1402
     18 F          -5.7084    3.7169   25.4118 F       1  UNL1       -0.2042
     19 C          -3.3304    3.9557   24.3930 C.ar    1  UNL1        0.0312
     20 C          -2.4101    3.8810   23.2108 C.ar    1  UNL1        0.0216
     21 C           4.0301   -2.1051   19.0861 C.3     1  UNL1        0.0437
     22 C           4.9648   -2.3437   20.2348 C.3     1  UNL1        0.0768
     23 C           7.0250   -4.0368   22.1158 C.3     1  UNL1        0.0173
     24 C           7.3767   -3.3209   20.8454 C.3     1  UNL1        0.0576
     25 C           8.7371   -3.2575   20.2167 C.3     1  UNL1        0.0174
     26 C           8.6308   -2.4401   18.9634 C.3     1  UNL1        0.0187
     27 C           7.2047   -1.9983   18.8177 C.3     1  UNL1        0.0721
     28 N           6.4297   -2.5427   19.9808 N.3     1  UNL1       -0.2737
@<TRIPOS>BOND
     1    24    23    1
     2    24    25    1
     3    25    26    1
     4    26    27    1
     5    27    28    1
     6    28    22    1
     7    22    21    1
     8    21     1    1
     9     1     2   ar
    10     2     3   ar
    11     3     4   ar
    12     4     7    1
    13     7     8   ar
    14     8     9   ar
    15     9    10   ar
    16    10    11    2
    17    10    12   ar
    18    12    14    1
    19    14    15   ar
    20    15    16   ar
    21    16    17   ar
    22    17    18    1
    23    17    19   ar
    24    19    20   ar
    25    12    13   ar
    26     4     5   ar
    27     5     6   ar
    28    28    24    1
    29     6     1   ar
    30    13     7   ar
    31    20    14   ar
@<TRIPOS>MOLECULE
*****
 28 31 0 0 0
SMALL
GASTEIGER

@<TRIPOS>ATOM
      1 C          -0.7720    2.6988   24.7935 C.ar    1  UNL1       -0.0208
      2 C          -1.0698    3.3248   23.4633 C.ar    1  UNL1       -0.0042
      3 C          -0.4146    2.7959   22.2220 C.ar    1  UNL1        0.0012
      4 C           0.5384    1.6409   22.3109 C.ar    1  UNL1        0.0193
      5 C           0.8361    1.0149   23.6410 C.ar    1  UNL1        0.0012
      6 C           0.1809    1.5438   24.8823 C.ar    1  UNL1       -0.0042
      7 C           1.1936    1.1120   21.0695 C.ar    1  UNL1        0.1015
      8 C           0.7759    1.6261   19.7237 C.ar    1  UNL1        0.0258
      9 C           1.4311    1.0971   18.4823 C.ar    1  UNL1        0.0641
     10 C           2.5040    0.0541   18.5868 C.ar    1  UNL1        0.2805
     11 O           3.1592   -0.4749   17.3455 O.2     1  UNL1       -0.2652
     12 N           2.9217   -0.4601   19.9327 N.ar    1  UNL1       -0.1945
     13 N           2.2665    0.0689   21.1740 N.ar    1  UNL1       -0.1626
     14 C           3.9946   -1.5031   20.0371 C.ar    1  UNL1        0.0861
     15 C           3.6603   -2.9480   19.8118 C.ar    1  UNL1        0.0216
     16 C           4.7332   -3.9911   19.9163 C.ar    1  UNL1        0.0312
     17 C           6.1403   -3.5893   20.2461 C.ar    1  UNL1        0.1402
     18 F           7.2132   -4.6324   20.3505 F       1  UNL1       -0.2042
     19 C           6.4745   -2.1445   20.4713 C.ar    1  UNL1        0.0312
     20 C           5.4016   -1.1014   20.3669 C.ar    1  UNL1        0.0216
     21 C          -1.4272    3.2277   26.0349 C.3     1  UNL1        0.0437
     22 C          -1.6406    2.3246   27.2134 C.3     1  UNL1        0.0768
     23 C          -1.2541   -0.5217   28.7620 C.3     1  UNL1        0.0173
     24 C          -0.3045    0.6388   28.8003 C.3     1  UNL1        0.0576
     25 C           0.9893    0.6948   29.5571 C.3     1  UNL1        0.0174
     26 C           1.6114    2.0378   29.3130 C.3     1  UNL1        0.0187
     27 C           0.7019    2.8118   28.4052 C.3     1  UNL1        0.0721
     28 N          -0.4822    1.9471   28.0884 N.3     1  UNL1       -0.2737
@<TRIPOS>BOND
     1    24    23    1
     2    24    25    1
     3    25    26    1
     4    26    27    1
     5    27    28    1
     6    28    22    1
     7    22    21    1
     8    21     1    1
     9     1     2   ar
    10     2     3   ar
    11     3     4   ar
    12     4     7    1
    13     7     8   ar
    14     8     9   ar
    15     9    10   ar
    16    10    11    2
    17    10    12   ar
    18    12    14    1
    19    14    15   ar
    20    15    16   ar
    21    16    17   ar
    22    17    18    1
    23    17    19   ar
    24    19    20   ar
    25    12    13   ar
    26     4     5   ar
    27     5     6   ar
    28    28    24    1
    29     6     1   ar
    30    13     7   ar
    31    20    14   ar
@<TRIPOS>MOLECULE
*****
 28 31 0 0 0
SMALL
GASTEIGER

@<TRIPOS>ATOM
      1 C           1.6803   -0.2308   20.9433 C.ar    1  UNL1       -0.0208
      2 C           2.6226   -1.3639   20.6642 C.ar    1  UNL1       -0.0042
      3 C           3.5692   -1.8319   21.7295 C.ar    1  UNL1        0.0012
      4 C           3.5734   -1.1668   23.0740 C.ar    1  UNL1        0.0193
      5 C           2.6311   -0.0337   23.3531 C.ar    1  UNL1        0.0012
      6 C           1.6845    0.4343   22.2878 C.ar    1  UNL1       -0.0042
      7 C           4.5201   -1.6349   24.1393 C.ar    1  UNL1        0.1015
      8 C           4.6589   -0.8565   25.4140 C.ar    1  UNL1        0.0258
      9 C           5.6055   -1.3246   26.4793 C.ar    1  UNL1        0.0641
     10 C           6.4133   -2.5710   26.2699 C.ar    1  UNL1        0.2805
     11 O           7.3599   -3.0391   27.3351 O.2     1  UNL1       -0.2652
     12 N           6.2745   -3.3494   24.9951 N.ar    1  UNL1       -0.1945
     13 N           5.3279   -2.8813   23.9299 N.ar    1  UNL1       -0.1626
     14 C           7.0823   -4.5958   24.7857 C.ar    1  UNL1        0.0861
     15 C           7.9225   -4.7466   23.5522 C.ar    1  UNL1        0.0216
     16 C           8.7303   -5.9931   23.3427 C.ar    1  UNL1        0.0312
     17 C           8.6979   -7.0887   24.3668 C.ar    1  UNL1        0.1402
     18 F           9.5057   -8.3351   24.1574 F       1  UNL1       -0.2042
     19 C           7.8577   -6.9379   25.6002 C.ar    1  UNL1        0.0312
     20 C           7.0499   -5.6914   25.8096 C.ar    1  UNL1        0.0216
     21 C           0.7336    0.2373   19.8780 C.3     1  UNL1        0.0437
     22 C           1.2565    0.6182   18.5247 C.3     1  UNL1        0.0768
     23 C           3.8765   -0.7597   17.1513 C.3     1  UNL1        0.0173
     24 C           3.8186    0.6089   17.7624 C.3     1  UNL1        0.0576
     25 C           4.9546    1.5845   17.8495 C.3     1  UNL1        0.0174
     26 C           4.4525    2.8208   18.5346 C.3     1  UNL1        0.0187
     27 C           3.0060    2.6093   18.8710 C.3     1  UNL1        0.0721
     28 N           2.6143    1.2423   18.3937 N.3     1  UNL1       -0.2737
@<TRIPOS>BOND
     1    24    23    1
     2    24    25    1
     3    25    26    1
     4    26    27    1
     5    27    28    1
     6    28    22    1
     7    22    21    1
     8    21     1    1
     9     1     2   ar
    10     2     3   ar
    11     3     4   ar
    12     4     7    1
    13     7     8   ar
    14     8     9   ar
    15     9    10   ar
    16    10    11    2
    17    10    12   ar
    18    12    14    1
    19    14    15   ar
    20    15    16   ar
    21    16    17   ar
    22    17    18    1
    23    17    19   ar
    24    19    20   ar
    25    12    13   ar
    26     4     5   ar
    27     5     6   ar
    28    28    24    1
    29     6     1   ar
    30    13     7   ar
    31    20    14   ar
@<TRIPOS>MOLECULE
*****
 28 31 0 0 0
SMALL
GASTEIGER

@<TRIPOS>ATOM
      1 C           2.8312   -1.4388   20.6698 C.ar    1  UNL1       -0.0208
      2 C           1.7102   -1.0814   19.7395 C.ar    1  UNL1       -0.0042
      3 C           0.7959    0.0607   20.0707 C.ar    1  UNL1        0.0012
      4 C           1.0027    0.8454   21.3323 C.ar    1  UNL1        0.0193
      5 C           2.1237    0.4879   22.2626 C.ar    1  UNL1        0.0012
      6 C           3.0379   -0.6541   21.9314 C.ar    1  UNL1       -0.0042
      7 C           0.0883    1.9875   21.6635 C.ar    1  UNL1        0.1015
      8 C           0.4644    2.9612   22.7407 C.ar    1  UNL1        0.0258
      9 C          -0.4499    4.1033   23.0720 C.ar    1  UNL1        0.0641
     10 C          -1.7403    4.2717   22.3259 C.ar    1  UNL1        0.2805
     11 O          -2.6546    5.4137   22.6571 O.2     1  UNL1       -0.2652
     12 N          -2.1163    3.2979   21.2486 N.ar    1  UNL1       -0.1945
     13 N          -1.2020    2.1558   20.9175 N.ar    1  UNL1       -0.1626
     14 C          -3.4067    3.4663   20.5026 C.ar    1  UNL1        0.0861
     15 C          -4.7125    3.2119   21.1957 C.ar    1  UNL1        0.0216
     16 C          -6.0029    3.3803   20.4497 C.ar    1  UNL1        0.0312
     17 C          -5.9875    3.8030   19.0105 C.ar    1  UNL1        0.1402
     18 F          -7.2778    3.9713   18.2644 F       1  UNL1       -0.2042
     19 C          -4.6817    4.0573   18.3174 C.ar    1  UNL1        0.0312
     20 C          -3.3914    3.8889   19.0635 C.ar    1  UNL1        0.0216
     21 C           3.7455   -2.5809   20.3386 C.3     1  UNL1        0.0437
     22 C           4.9352   -2.3567   19.4530 C.3     1  UNL1        0.0768
     23 C           3.8654   -0.8658   16.7545 C.3     1  UNL1        0.0173
     24 C           4.7997   -0.2824   17.7726 C.3     1  UNL1        0.0576
     25 C           5.4064    1.0888   17.7290 C.3     1  UNL1        0.0174
     26 C           6.2731    1.2510   18.9426 C.3     1  UNL1        0.0187
     27 C           6.2021   -0.0201   19.7361 C.3     1  UNL1        0.0721
     28 N           5.2915   -0.9676   19.0130 N.3     1  UNL1       -0.2737
@<TRIPOS>BOND
     1    24    23    1
     2    24    25    1
     3    25    26    1
     4    26    27    1
     5    27    28    1
     6    28    22    1
     7    22    21    1
     8    21     1    1
     9     1     2   ar
    10     2     3   ar
    11     3     4   ar
    12     4     7    1
    13     7     8   ar
    14     8     9   ar
    15     9    10   ar
    16    10    11    2
    17    10    12   ar
    18    12    14    1
    19    14    15   ar
    20    15    16   ar
    21    16    17   ar
    22    17    18    1
    23    17    19   ar
    24    19    20   ar
    25    12    13   ar
    26     4     5   ar
    27     5     6   ar
    28    28    24    1
    29     6     1   ar
    30    13     7   ar
    31    20    14   ar
@<TRIPOS>MOLECULE
*****
 28 31 0 0 0
SMALL
GASTEIGER

@<TRIPOS>ATOM
      1 C           6.7519   -3.8186   25.4973 C.ar    1  UNL1       -0.0208
      2 C           7.2450   -4.6412   24.3440 C.ar    1  UNL1       -0.0042
      3 C           6.8672   -4.2682   22.9411 C.ar    1  UNL1        0.0012
      4 C           5.9964   -3.0727   22.6915 C.ar    1  UNL1        0.0193
      5 C           5.5034   -2.2501   23.8448 C.ar    1  UNL1        0.0012
      6 C           5.8811   -2.6230   25.2477 C.ar    1  UNL1       -0.0042
      7 C           5.6187   -2.6997   21.2885 C.ar    1  UNL1        0.1015
      8 C           6.3100   -3.3508   20.1275 C.ar    1  UNL1        0.0258
      9 C           5.9322   -2.9778   18.7245 C.ar    1  UNL1        0.0641
     10 C           4.8632   -1.9538   18.4827 C.ar    1  UNL1        0.2805
     11 O           4.4854   -1.5809   17.0798 O.2     1  UNL1       -0.2652
     12 N           4.1719   -1.3027   19.6438 N.ar    1  UNL1       -0.1945
     13 N           4.5496   -1.6757   21.0467 N.ar    1  UNL1       -0.1626
     14 C           3.1028   -0.2787   19.4020 C.ar    1  UNL1        0.0861
     15 C           3.4433    1.0152   18.7237 C.ar    1  UNL1        0.0216
     16 C           2.3742    2.0392   18.4819 C.ar    1  UNL1        0.0312
     17 C           0.9647    1.7693   18.9184 C.ar    1  UNL1        0.1402
     18 F          -0.1044    2.7934   18.6766 F       1  UNL1       -0.2042
     19 C           0.6243    0.4755   19.5967 C.ar    1  UNL1        0.0312
     20 C           1.6933   -0.5485   19.8385 C.ar    1  UNL1        0.0216
     21 C           7.1297   -4.1915   26.9003 C.3     1  UNL1        0.0437
     22 C           6.2351   -3.8137   28.0435 C.3     1  UNL1        0.0768
     23 C           6.2230   -1.9661   30.7334 C.3     1  UNL1        0.0173
     24 C           6.5519   -3.4282   30.6696 C.3     1  UNL1        0.0576
     25 C           6.9330   -4.2977   31.8309 C.3     1  UNL1        0.0174
     26 C           7.1741   -5.6845   31.3122 C.3     1  UNL1        0.0187
     27 C           6.9420   -5.6719   29.8302 C.3     1  UNL1        0.0721
     28 N           6.5575   -4.2774   29.4332 N.3     1  UNL1       -0.2737
@<TRIPOS>BOND
     1    24    23    1
     2    24    25    1
     3    25    26    1
     4    26    27    1
     5    27    28    1
     6    28    22    1
     7    22    21    1
     8    21     1    1
     9     1     2   ar
    10     2     3   ar
    11     3     4   ar
    12     4     7    1
    13     7     8   ar
    14     8     9   ar
    15     9    10   ar
    16    10    11    2
    17    10    12   ar
    18    12    14    1
    19    14    15   ar
    20    15    16   ar
    21    16    17   ar
    22    17    18    1
    23    17    19   ar
    24    19    20   ar
    25    12    13   ar
    26     4     5   ar
    27     5     6   ar
    28    28    24    1
    29     6     1   ar
    30    13     7   ar
    31    20    14   ar
