@<TRIPOS>MOLECULE
*****
 33 37 0 0 0
SMALL
GASTEIGER

@<TRIPOS>ATOM
      1 C          -9.9928  -17.2421   22.9266 C.ar    1  UNL1        0.0436
      2 C         -11.4274  -17.0469   23.3185 C.ar    1  UNL1        0.0142
      3 C         -12.5224  -17.6034   22.4576 C.ar    1  UNL1        0.0010
      4 C         -12.1828  -18.3551   21.2048 C.ar    1  UNL1       -0.0032
      5 C         -10.7481  -18.5503   20.8129 C.ar    1  UNL1       -0.0091
      6 C          -9.6531  -17.9938   21.6738 C.ar    1  UNL1       -0.0101
      7 C          -8.2184  -18.1890   21.2819 C.3     1  UNL1        0.0444
      8 C          -7.8787  -18.9407   20.0291 C.3     1  UNL1        0.0749
      9 N          -8.9738  -19.4972   19.1681 N.3     1  UNL1       -0.2934
     10 C         -10.4085  -19.3019   19.5600 C.3     1  UNL1        0.0954
     11 H          -8.8191  -20.5036   19.1088 H       1  UNL1        0.1236
     12 C          -5.2671  -15.1322   23.3926 C.3     1  UNL1        0.0191
     13 C          -6.5349  -15.6306   24.0206 C.3     1  UNL1        0.0774
     14 C          -7.6300  -16.1871   23.1596 C.3     1  UNL1        0.1067
     15 N          -8.8977  -16.6856   23.7876 N.pl3   1  UNL1       -0.3050
     16 C          -9.0704  -16.6276   25.2765 C.3     1  UNL1        0.1067
     17 C          -7.9754  -16.0711   26.1374 C.3     1  UNL1        0.0774
     18 C          -8.1481  -16.0132   27.6263 C.3     1  UNL1        0.0191
     19 N          -6.7076  -15.5726   25.5095 N.3     1  UNL1       -0.2709
     20 C          -5.6126  -15.0162   26.3704 C.3     1  UNL1        0.0897
     21 C          -6.4441  -19.1359   19.6372 C.3     1  UNL1        0.0886
     22 N          -5.5104  -19.8724   20.5514 N.3     1  UNL1       -0.2667
     23 C          -5.6020  -21.3647   20.6733 C.3     1  UNL1        0.0899
     24 C          -4.4851  -19.1167   21.3436 C.3     1  UNL1        0.0978
     25 C          -4.6802  -18.9069   22.8160 C.3     1  UNL1        0.0224
     26 C          -3.6549  -18.1512   23.6083 C.3     1  UNL1        0.0065
     27 C          -2.4345  -17.6053   22.9282 C.3     1  UNL1        0.0277
     28 C          -2.2394  -17.8151   21.4558 C.ar    1  UNL1       -0.0073
     29 C          -1.0189  -17.2692   20.7757 C.ar    1  UNL1       -0.0015
     30 C          -0.8238  -17.4790   19.3033 C.ar    1  UNL1        0.0203
     31 C          -1.8491  -18.2347   18.5110 C.ar    1  UNL1        0.0985
     32 N          -3.0695  -18.7806   19.1911 N.ar    1  UNL1       -0.2471
     33 C          -3.2647  -18.5708   20.6635 C.ar    1  UNL1        0.0695
@<TRIPOS>BOND
     1    13    12    1
     2    13    14    1
     3    14    15    1
     4    15     1    1
     5     1     2   ar
     6     2     3   ar
     7     3     4   ar
     8     4     5   ar
     9     5     6   ar
    10     6     7    1
    11     7     8    1
    12     8    21    1
    13    21    22    1
    14    22    23    1
    15    24    22    1
    16    24    25    1
    17    25    26    1
    18    26    27    1
    19    27    28    1
    20    28    29   ar
    21    29    30   ar
    22    30    31   ar
    23    31    32   ar
    24    32    33   ar
    25     8     9    1
    26     9    10    1
    27    15    16    1
    28    16    17    1
    29    17    18    1
    30    17    19    1
    31    19    20    1
    32    19    13    1
    33     6     1   ar
    34    33    24    1
    35    10     5    1
    36    33    28   ar
    37     9    11    1
@<TRIPOS>MOLECULE
*****
 33 37 0 0 0
SMALL
GASTEIGER

@<TRIPOS>ATOM
      1 C          -5.3495  -16.6236   24.3145 C.ar    1  UNL1        0.0436
      2 C          -4.6947  -16.5270   25.6605 C.ar    1  UNL1        0.0142
      3 C          -5.4598  -15.9807   26.8293 C.ar    1  UNL1        0.0010
      4 C          -6.8798  -15.5309   26.6520 C.ar    1  UNL1       -0.0032
      5 C          -7.5346  -15.6275   25.3060 C.ar    1  UNL1       -0.0091
      6 C          -6.7695  -16.1739   24.1372 C.ar    1  UNL1       -0.0101
      7 C          -7.4243  -16.2705   22.7911 C.3     1  UNL1        0.0444
      8 C          -8.8442  -15.8207   22.6138 C.3     1  UNL1        0.0749
      9 N          -9.6094  -15.2743   23.7826 N.3     1  UNL1       -0.2934
     10 C          -8.9546  -15.1777   25.1287 C.3     1  UNL1        0.0954
     11 H         -10.4329  -15.8650   23.8976 H       1  UNL1        0.1236
     12 C          -4.7992  -20.1711   20.5578 C.3     1  UNL1        0.0191
     13 C          -4.3092  -18.9438   21.2673 C.3     1  UNL1        0.0774
     14 C          -5.0744  -18.3974   22.4361 C.3     1  UNL1        0.1067
     15 N          -4.5844  -17.1700   23.1457 N.pl3   1  UNL1       -0.3050
     16 C          -3.3293  -16.4890   22.6864 C.3     1  UNL1        0.1067
     17 C          -2.5641  -17.0353   21.5177 C.3     1  UNL1        0.0774
     18 C          -1.3090  -16.3543   21.0584 C.3     1  UNL1        0.0191
     19 N          -3.0541  -18.2627   20.8081 N.3     1  UNL1       -0.2709
     20 C          -2.2890  -18.8090   19.6393 C.3     1  UNL1        0.0897
     21 C          -9.4991  -15.9173   21.2678 C.3     1  UNL1        0.0886
     22 N         -10.6735  -16.8290   21.0687 N.3     1  UNL1       -0.2667
     23 C         -11.2059  -17.0757   19.6882 C.3     1  UNL1        0.0899
     24 C         -11.3155  -17.4938   22.2501 C.3     1  UNL1        0.0978
     25 C         -12.6473  -17.0156   22.7478 C.3     1  UNL1        0.0224
     26 C         -13.2894  -17.6804   23.9292 C.3     1  UNL1        0.0065
     27 C         -12.5996  -18.8236   24.6130 C.3     1  UNL1        0.0277
     28 C         -11.2679  -19.3018   24.1153 C.ar    1  UNL1       -0.0073
     29 C         -10.5782  -20.4450   24.7991 C.ar    1  UNL1       -0.0015
     30 C          -9.2464  -20.9232   24.3014 C.ar    1  UNL1        0.0203
     31 C          -8.6043  -20.2584   23.1200 C.ar    1  UNL1        0.0985
     32 N          -9.2941  -19.1152   22.4363 N.ar    1  UNL1       -0.2471
     33 C         -10.6258  -18.6370   22.9339 C.ar    1  UNL1        0.0695
@<TRIPOS>BOND
     1    13    12    1
     2    13    14    1
     3    14    15    1
     4    15     1    1
     5     1     2   ar
     6     2     3   ar
     7     3     4   ar
     8     4     5   ar
     9     5     6   ar
    10     6     7    1
    11     7     8    1
    12     8    21    1
    13    21    22    1
    14    22    23    1
    15    24    22    1
    16    24    25    1
    17    25    26    1
    18    26    27    1
    19    27    28    1
    20    28    29   ar
    21    29    30   ar
    22    30    31   ar
    23    31    32   ar
    24    32    33   ar
    25     8     9    1
    26     9    10    1
    27    15    16    1
    28    16    17    1
    29    17    18    1
    30    17    19    1
    31    19    20    1
    32    19    13    1
    33     6     1   ar
    34    33    24    1
    35    10     5    1
    36    33    28   ar
    37     9    11    1
@<TRIPOS>MOLECULE
*****
 33 37 0 0 0
SMALL
GASTEIGER

@<TRIPOS>ATOM
      1 C         -10.2057  -16.6932   22.8191 C.ar    1  UNL1        0.0436
      2 C         -11.5485  -16.1184   23.1601 C.ar    1  UNL1        0.0142
      3 C         -12.7556  -16.5056   22.3582 C.ar    1  UNL1        0.0010
      4 C         -12.6197  -17.4675   21.2153 C.ar    1  UNL1       -0.0032
      5 C         -11.2769  -18.0423   20.8743 C.ar    1  UNL1       -0.0091
      6 C         -10.0698  -17.6551   21.6762 C.ar    1  UNL1       -0.0101
      7 C          -8.7269  -18.2299   21.3352 C.3     1  UNL1        0.0444
      8 C          -8.5911  -19.1918   20.1923 C.3     1  UNL1        0.0749
      9 N          -9.7982  -19.5790   19.3904 N.3     1  UNL1       -0.2934
     10 C         -11.1411  -19.0042   19.7314 C.3     1  UNL1        0.0954
     11 H          -9.8855  -20.5928   19.4604 H       1  UNL1        0.1236
     12 C          -5.3267  -14.9186   23.0358 C.3     1  UNL1        0.0191
     13 C          -6.5590  -15.4187   23.7294 C.3     1  UNL1        0.0774
     14 C          -7.7662  -15.8059   22.9274 C.3     1  UNL1        0.1067
     15 N          -8.9985  -16.3061   23.6210 N.pl3   1  UNL1       -0.3050
     16 C          -9.0238  -16.4191   25.1166 C.3     1  UNL1        0.1067
     17 C          -7.8168  -16.0320   25.9185 C.3     1  UNL1        0.0774
     18 C          -7.8421  -16.1450   27.4140 C.3     1  UNL1        0.0191
     19 N          -6.5843  -15.5318   25.2249 N.3     1  UNL1       -0.2709
     20 C          -5.3773  -15.1447   26.0268 C.3     1  UNL1        0.0897
     21 C          -7.2482  -19.7666   19.8513 C.3     1  UNL1        0.0886
     22 N          -6.2124  -19.9393   20.9224 N.3     1  UNL1       -0.2667
     23 C          -6.5907  -20.5470   22.2406 C.3     1  UNL1        0.0899
     24 C          -4.7983  -19.5044   20.6753 C.3     1  UNL1        0.0978
     25 C          -4.1516  -19.7739   19.3489 C.3     1  UNL1        0.0224
     26 C          -2.7375  -19.3389   19.1018 C.3     1  UNL1        0.0065
     27 C          -1.9700  -18.6345   20.1810 C.3     1  UNL1        0.0277
     28 C          -2.6166  -18.3649   21.5073 C.ar    1  UNL1       -0.0073
     29 C          -1.8492  -17.6605   22.5866 C.ar    1  UNL1       -0.0015
     30 C          -2.4959  -17.3910   23.9129 C.ar    1  UNL1        0.0203
     31 C          -3.9100  -17.8259   24.1600 C.ar    1  UNL1        0.0985
     32 N          -4.6774  -18.5304   23.0808 N.ar    1  UNL1       -0.2471
     33 C          -4.0308  -18.7999   21.7545 C.ar    1  UNL1        0.0695
@<TRIPOS>BOND
     1    13    12    1
     2    13    14    1
     3    14    15    1
     4    15     1    1
     5     1     2   ar
     6     2     3   ar
     7     3     4   ar
     8     4     5   ar
     9     5     6   ar
    10     6     7    1
    11     7     8    1
    12     8    21    1
    13    21    22    1
    14    22    23    1
    15    24    22    1
    16    24    25    1
    17    25    26    1
    18    26    27    1
    19    27    28    1
    20    28    29   ar
    21    29    30   ar
    22    30    31   ar
    23    31    32   ar
    24    32    33   ar
    25     8     9    1
    26     9    10    1
    27    15    16    1
    28    16    17    1
    29    17    18    1
    30    17    19    1
    31    19    20    1
    32    19    13    1
    33     6     1   ar
    34    33    24    1
    35    10     5    1
    36    33    28   ar
    37     9    11    1
@<TRIPOS>MOLECULE
*****
 33 37 0 0 0
SMALL
GASTEIGER

@<TRIPOS>ATOM
      1 C          -5.9490  -20.2300   20.8439 C.ar    1  UNL1        0.0436
      2 C          -5.7190  -21.1979   19.7212 C.ar    1  UNL1        0.0142
      3 C          -4.3226  -21.4934   19.2600 C.ar    1  UNL1        0.0010
      4 C          -3.1562  -20.8210   19.9215 C.ar    1  UNL1       -0.0032
      5 C          -3.3862  -19.8531   21.0441 C.ar    1  UNL1       -0.0091
      6 C          -4.7826  -19.5577   21.5053 C.ar    1  UNL1       -0.0101
      7 C          -5.0127  -18.5898   22.6280 C.3     1  UNL1        0.0444
      8 C          -3.8463  -17.9174   23.2894 C.3     1  UNL1        0.0749
      9 N          -2.4499  -18.2129   22.8281 N.3     1  UNL1       -0.2934
     10 C          -2.2198  -19.1808   21.7055 C.3     1  UNL1        0.0954
     11 H          -1.9429  -18.5736   23.6364 H       1  UNL1        0.1236
     12 C          -9.5363  -20.2067   24.6030 C.3     1  UNL1        0.0191
     13 C          -9.1391  -19.9229   23.1847 C.3     1  UNL1        0.0774
     14 C          -7.7427  -20.2184   22.7234 C.3     1  UNL1        0.1067
     15 N          -7.3454  -19.9345   21.3051 N.pl3   1  UNL1       -0.3050
     16 C          -8.3446  -19.3552   20.3480 C.3     1  UNL1        0.1067
     17 C          -9.7410  -19.0597   20.8092 C.3     1  UNL1        0.0774
     18 C         -10.7401  -18.4803   19.8521 C.3     1  UNL1        0.0191
     19 N         -10.1383  -19.3435   22.2276 N.3     1  UNL1       -0.2709
     20 C         -11.5346  -19.0480   22.6888 C.3     1  UNL1        0.0897
     21 C          -4.0763  -16.9496   24.4120 C.3     1  UNL1        0.0886
     22 N          -4.9709  -15.7630   24.2078 N.3     1  UNL1       -0.2667
     23 C          -4.5602  -14.6666   23.2700 C.3     1  UNL1        0.0899
     24 C          -6.2761  -15.6727   24.9414 C.3     1  UNL1        0.0978
     25 C          -6.2887  -15.5010   26.4316 C.3     1  UNL1        0.0224
     26 C          -7.5939  -15.4107   27.1651 C.3     1  UNL1        0.0065
     27 C          -8.8866  -15.4921   26.4086 C.3     1  UNL1        0.0277
     28 C          -8.8741  -15.6638   24.9186 C.ar    1  UNL1       -0.0073
     29 C         -10.1668  -15.7452   24.1621 C.ar    1  UNL1       -0.0015
     30 C         -10.1543  -15.9169   22.6720 C.ar    1  UNL1        0.0203
     31 C          -8.8490  -16.0072   21.9384 C.ar    1  UNL1        0.0985
     32 N          -7.5563  -15.9258   22.6949 N.ar    1  UNL1       -0.2471
     33 C          -7.5688  -15.7541   24.1849 C.ar    1  UNL1        0.0695
@<TRIPOS>BOND
     1    13    12    1
     2    13    14    1
     3    14    15    1
     4    15     1    1
     5     1     2   ar
     6     2     3   ar
     7     3     4   ar
     8     4     5   ar
     9     5     6   ar
    10     6     7    1
    11     7     8    1
    12     8    21    1
    13    21    22    1
    14    22    23    1
    15    24    22    1
    16    24    25    1
    17    25    26    1
    18    26    27    1
    19    27    28    1
    20    28    29   ar
    21    29    30   ar
    22    30    31   ar
    23    31    32   ar
    24    32    33   ar
    25     8     9    1
    26     9    10    1
    27    15    16    1
    28    16    17    1
    29    17    18    1
    30    17    19    1
    31    19    20    1
    32    19    13    1
    33     6     1   ar
    34    33    24    1
    35    10     5    1
    36    33    28   ar
    37     9    11    1
@<TRIPOS>MOLECULE
*****
 33 37 0 0 0
SMALL
GASTEIGER

@<TRIPOS>ATOM
      1 C          -7.9324  -16.0047   23.9610 C.ar    1  UNL1        0.0436
      2 C          -7.9118  -15.1905   25.2205 C.ar    1  UNL1        0.0142
      3 C          -6.6361  -15.0391   25.9949 C.ar    1  UNL1        0.0010
      4 C          -5.3810  -15.7019   25.5096 C.ar    1  UNL1       -0.0032
      5 C          -5.4016  -16.5161   24.2501 C.ar    1  UNL1       -0.0091
      6 C          -6.6773  -16.6675   23.4757 C.ar    1  UNL1       -0.0101
      7 C          -6.6980  -17.4818   22.2161 C.3     1  UNL1        0.0444
      8 C          -5.4429  -18.1446   21.7309 C.3     1  UNL1        0.0749
      9 N          -4.1672  -17.9932   22.5053 N.3     1  UNL1       -0.2934
     10 C          -4.1466  -17.1790   23.7648 C.3     1  UNL1        0.0954
     11 H          -3.4865  -17.5735   21.8722 H       1  UNL1        0.1236
     12 C         -12.9049  -17.4947   23.7271 C.3     1  UNL1        0.0191
     13 C         -11.6944  -16.9011   23.0696 C.3     1  UNL1        0.0774
     14 C         -10.4186  -16.7497   23.8440 C.3     1  UNL1        0.1067
     15 N          -9.2081  -16.1561   23.1866 N.pl3   1  UNL1       -0.3050
     16 C          -9.2733  -15.7140   21.7547 C.3     1  UNL1        0.1067
     17 C         -10.5489  -15.8654   20.9803 C.3     1  UNL1        0.0774
     18 C         -10.6140  -15.4232   19.5484 C.3     1  UNL1        0.0191
     19 N         -11.7595  -16.4590   21.6377 N.3     1  UNL1       -0.2709
     20 C         -13.0352  -16.6104   20.8633 C.3     1  UNL1        0.0897
     21 C          -5.4635  -18.9589   20.4713 C.3     1  UNL1        0.0886
     22 N          -6.3768  -20.1435   20.3589 N.3     1  UNL1       -0.2667
     23 C          -5.8080  -21.5315   20.3570 C.3     1  UNL1        0.0899
     24 C          -7.8588  -19.9401   20.2483 C.3     1  UNL1        0.0978
     25 C          -8.4712  -19.5908   18.9242 C.3     1  UNL1        0.0224
     26 C          -9.9532  -19.3875   18.8136 C.3     1  UNL1        0.0065
     27 C         -10.8229  -19.5334   20.0270 C.3     1  UNL1        0.0277
     28 C         -10.2106  -19.8826   21.3510 C.ar    1  UNL1       -0.0073
     29 C         -11.0803  -20.0285   22.5644 C.ar    1  UNL1       -0.0015
     30 C         -10.4679  -20.3778   23.8885 C.ar    1  UNL1        0.0203
     31 C          -8.9859  -20.5811   23.9991 C.ar    1  UNL1        0.0985
     32 N          -8.1162  -20.4353   22.7857 N.ar    1  UNL1       -0.2471
     33 C          -8.7285  -20.0860   21.4617 C.ar    1  UNL1        0.0695
@<TRIPOS>BOND
     1    13    12    1
     2    13    14    1
     3    14    15    1
     4    15     1    1
     5     1     2   ar
     6     2     3   ar
     7     3     4   ar
     8     4     5   ar
     9     5     6   ar
    10     6     7    1
    11     7     8    1
    12     8    21    1
    13    21    22    1
    14    22    23    1
    15    24    22    1
    16    24    25    1
    17    25    26    1
    18    26    27    1
    19    27    28    1
    20    28    29   ar
    21    29    30   ar
    22    30    31   ar
    23    31    32   ar
    24    32    33   ar
    25     8     9    1
    26     9    10    1
    27    15    16    1
    28    16    17    1
    29    17    18    1
    30    17    19    1
    31    19    20    1
    32    19    13    1
    33     6     1   ar
    34    33    24    1
    35    10     5    1
    36    33    28   ar
    37     9    11    1
@<TRIPOS>MOLECULE
*****
 33 37 0 0 0
SMALL
GASTEIGER

@<TRIPOS>ATOM
      1 C          -4.9816  -16.4487   24.1496 C.ar    1  UNL1        0.0436
      2 C          -4.2869  -16.1347   25.4414 C.ar    1  UNL1        0.0142
      3 C          -5.0432  -15.4823   26.5604 C.ar    1  UNL1        0.0010
      4 C          -6.4943  -15.1440   26.3877 C.ar    1  UNL1       -0.0032
      5 C          -7.1890  -15.4579   25.0959 C.ar    1  UNL1       -0.0091
      6 C          -6.4327  -16.1103   23.9769 C.ar    1  UNL1       -0.0101
      7 C          -7.1274  -16.4243   22.6850 C.3     1  UNL1        0.0444
      8 C          -8.5785  -16.0859   22.5123 C.3     1  UNL1        0.0749
      9 N          -9.3349  -15.4335   23.6314 N.3     1  UNL1       -0.2934
     10 C          -8.6401  -15.1196   24.9232 C.3     1  UNL1        0.0954
     11 H         -10.1146  -16.0506   23.8589 H       1  UNL1        0.1236
     12 C          -0.9811  -16.4693   20.8336 C.3     1  UNL1        0.0191
     13 C          -2.2250  -17.1113   21.3724 C.3     1  UNL1        0.0774
     14 C          -2.9813  -16.4590   22.4916 C.3     1  UNL1        0.1067
     15 N          -4.2252  -17.1010   23.0304 N.pl3   1  UNL1       -0.3050
     16 C          -4.7128  -18.3955   22.4502 C.3     1  UNL1        0.1067
     17 C          -3.9566  -19.0478   21.3311 C.3     1  UNL1        0.0774
     18 C          -4.4442  -20.3423   20.7509 C.3     1  UNL1        0.0191
     19 N          -2.7126  -18.4058   20.7922 N.3     1  UNL1       -0.2709
     20 C          -1.9563  -19.0582   19.6731 C.3     1  UNL1        0.0897
     21 C          -9.2733  -16.3999   21.2205 C.3     1  UNL1        0.0886
     22 N         -10.0090  -17.6973   21.0606 N.3     1  UNL1       -0.2667
     23 C         -10.5248  -18.1058   19.7126 C.3     1  UNL1        0.0899
     24 C         -10.2288  -18.5861   22.2487 C.3     1  UNL1        0.0978
     25 C          -9.2132  -19.6324   22.6008 C.3     1  UNL1        0.0224
     26 C          -9.4331  -20.5213   23.7889 C.3     1  UNL1        0.0065
     27 C         -10.6686  -20.3639   24.6249 C.3     1  UNL1        0.0277
     28 C         -11.6842  -19.3177   24.2728 C.ar    1  UNL1       -0.0073
     29 C         -12.9196  -19.1604   25.1088 C.ar    1  UNL1       -0.0015
     30 C         -13.9352  -18.1141   24.7566 C.ar    1  UNL1        0.0203
     31 C         -13.7154  -17.2253   23.5686 C.ar    1  UNL1        0.0985
     32 N         -12.4799  -17.3826   22.7326 N.ar    1  UNL1       -0.2471
     33 C         -11.4643  -18.4288   23.0847 C.ar    1  UNL1        0.0695
@<TRIPOS>BOND
     1    13    12    1
     2    13    14    1
     3    14    15    1
     4    15     1    1
     5     1     2   ar
     6     2     3   ar
     7     3     4   ar
     8     4     5   ar
     9     5     6   ar
    10     6     7    1
    11     7     8    1
    12     8    21    1
    13    21    22    1
    14    22    23    1
    15    24    22    1
    16    24    25    1
    17    25    26    1
    18    26    27    1
    19    27    28    1
    20    28    29   ar
    21    29    30   ar
    22    30    31   ar
    23    31    32   ar
    24    32    33   ar
    25     8     9    1
    26     9    10    1
    27    15    16    1
    28    16    17    1
    29    17    18    1
    30    17    19    1
    31    19    20    1
    32    19    13    1
    33     6     1   ar
    34    33    24    1
    35    10     5    1
    36    33    28   ar
    37     9    11    1
@<TRIPOS>MOLECULE
*****
 33 37 0 0 0
SMALL
GASTEIGER

@<TRIPOS>ATOM
      1 C          -4.3191  -17.5456   22.9384 C.ar    1  UNL1        0.0436
      2 C          -2.9128  -17.0956   23.2026 C.ar    1  UNL1        0.0142
      3 C          -1.7703  -17.7383   22.4735 C.ar    1  UNL1        0.0010
      4 C          -2.0341  -18.8309   21.4802 C.ar    1  UNL1       -0.0032
      5 C          -3.4404  -19.2809   21.2161 C.ar    1  UNL1       -0.0091
      6 C          -4.5829  -18.6382   21.9452 C.ar    1  UNL1       -0.0101
      7 C          -5.9893  -19.0882   21.6811 C.3     1  UNL1        0.0444
      8 C          -6.2531  -20.1809   20.6878 C.3     1  UNL1        0.0749
      9 N          -5.1105  -20.8235   19.9587 N.3     1  UNL1       -0.2934
     10 C          -3.7042  -20.3736   20.2229 C.3     1  UNL1        0.0954
     11 H          -5.2817  -20.6853   18.9627 H       1  UNL1        0.1236
     12 C          -9.3083  -16.1031   23.1068 C.3     1  UNL1        0.0191
     13 C          -7.9563  -16.1817   23.7517 C.3     1  UNL1        0.0774
     14 C          -6.8137  -16.8244   23.0226 C.3     1  UNL1        0.1067
     15 N          -5.4617  -16.9029   23.6675 N.pl3   1  UNL1       -0.3050
     16 C          -5.2523  -16.3388   25.0416 C.3     1  UNL1        0.1067
     17 C          -6.3948  -15.6962   25.7707 C.3     1  UNL1        0.0774
     18 C          -6.1853  -15.1321   27.1447 C.3     1  UNL1        0.0191
     19 N          -7.7468  -15.6176   25.1257 N.3     1  UNL1       -0.2709
     20 C          -8.8893  -14.9750   25.8549 C.3     1  UNL1        0.0897
     21 C          -7.6593  -20.6309   20.4237 C.3     1  UNL1        0.0886
     22 N          -8.8055  -19.6962   20.6743 N.3     1  UNL1       -0.2667
     23 C          -9.2785  -18.7804   19.5845 C.3     1  UNL1        0.0899
     24 C          -9.4786  -19.6774   22.0146 C.3     1  UNL1        0.0978
     25 C          -8.8580  -20.3963   23.1757 C.3     1  UNL1        0.0224
     26 C          -9.5311  -20.3775   24.5161 C.3     1  UNL1        0.0065
     27 C         -10.8248  -19.6398   24.6954 C.3     1  UNL1        0.0277
     28 C         -11.4454  -18.9209   23.5343 C.ar    1  UNL1       -0.0073
     29 C         -12.7391  -18.1832   23.7136 C.ar    1  UNL1       -0.0015
     30 C         -13.3597  -17.4643   22.5525 C.ar    1  UNL1        0.0203
     31 C         -12.6865  -17.4831   21.2122 C.ar    1  UNL1        0.0985
     32 N         -11.3929  -18.2208   21.0329 N.ar    1  UNL1       -0.2471
     33 C         -10.7723  -18.9397   22.1939 C.ar    1  UNL1        0.0695
@<TRIPOS>BOND
     1    13    12    1
     2    13    14    1
     3    14    15    1
     4    15     1    1
     5     1     2   ar
     6     2     3   ar
     7     3     4   ar
     8     4     5   ar
     9     5     6   ar
    10     6     7    1
    11     7     8    1
    12     8    21    1
    13    21    22    1
    14    22    23    1
    15    24    22    1
    16    24    25    1
    17    25    26    1
    18    26    27    1
    19    27    28    1
    20    28    29   ar
    21    29    30   ar
    22    30    31   ar
    23    31    32   ar
    24    32    33   ar
    25     8     9    1
    26     9    10    1
    27    15    16    1
    28    16    17    1
    29    17    18    1
    30    17    19    1
    31    19    20    1
    32    19    13    1
    33     6     1   ar
    34    33    24    1
    35    10     5    1
    36    33    28   ar
    37     9    11    1
@<TRIPOS>MOLECULE
*****
 33 37 0 0 0
SMALL
GASTEIGER

@<TRIPOS>ATOM
      1 C          -4.3050  -17.5205   22.9552 C.ar    1  UNL1        0.0436
      2 C          -2.9024  -17.0580   23.2177 C.ar    1  UNL1        0.0142
      3 C          -1.7551  -17.6908   22.4876 C.ar    1  UNL1        0.0010
      4 C          -2.0102  -18.7861   21.4950 C.ar    1  UNL1       -0.0032
      5 C          -3.4128  -19.2486   21.2325 C.ar    1  UNL1       -0.0091
      6 C          -4.5601  -18.6157   21.9626 C.ar    1  UNL1       -0.0101
      7 C          -5.9628  -19.0782   21.7000 C.3     1  UNL1        0.0444
      8 C          -6.2179  -20.1735   20.7074 C.3     1  UNL1        0.0749
      9 N          -5.0705  -20.8063   19.9773 N.3     1  UNL1       -0.2934
     10 C          -3.6679  -20.3438   20.2399 C.3     1  UNL1        0.0954
     11 H          -5.2439  -20.6699   18.9815 H       1  UNL1        0.1236
     12 C          -6.1976  -15.1570   27.1780 C.3     1  UNL1        0.0191
     13 C          -6.3987  -15.7059   25.7967 C.3     1  UNL1        0.0774
     14 C          -5.2513  -16.3387   25.0666 C.3     1  UNL1        0.1067
     15 N          -5.4524  -16.8877   23.6852 N.pl3   1  UNL1       -0.3050
     16 C          -6.8010  -16.8038   23.0339 C.3     1  UNL1        0.1067
     17 C          -7.9485  -16.1710   23.7639 C.3     1  UNL1        0.0774
     18 C          -9.2971  -16.0872   23.1126 C.3     1  UNL1        0.0191
     19 N          -7.7473  -15.6221   25.1453 N.3     1  UNL1       -0.2709
     20 C          -8.8948  -14.9893   25.8753 C.3     1  UNL1        0.0897
     21 C          -7.6205  -20.6360   20.4449 C.3     1  UNL1        0.0886
     22 N          -8.7732  -19.7049   20.6780 N.3     1  UNL1       -0.2667
     23 C          -9.2402  -18.7993   19.5771 C.3     1  UNL1        0.0899
     24 C          -9.4590  -19.6795   22.0118 C.3     1  UNL1        0.0978
     25 C          -8.8549  -20.4017   23.1796 C.3     1  UNL1        0.0224
     26 C          -9.5407  -20.3763   24.5133 C.3     1  UNL1        0.0065
     27 C         -10.8304  -19.6287   24.6794 C.3     1  UNL1        0.0277
     28 C         -11.4345  -18.9065   23.5117 C.ar    1  UNL1       -0.0073
     29 C         -12.7242  -18.1589   23.6778 C.ar    1  UNL1       -0.0015
     30 C         -13.3283  -17.4367   22.5101 C.ar    1  UNL1        0.0203
     31 C         -12.6425  -17.4621   21.1763 C.ar    1  UNL1        0.0985
     32 N         -11.3528  -18.2097   21.0102 N.ar    1  UNL1       -0.2471
     33 C         -10.7487  -18.9319   22.1779 C.ar    1  UNL1        0.0695
@<TRIPOS>BOND
     1    13    12    1
     2    13    14    1
     3    14    15    1
     4    15     1    1
     5     1     2   ar
     6     2     3   ar
     7     3     4   ar
     8     4     5   ar
     9     5     6   ar
    10     6     7    1
    11     7     8    1
    12     8    21    1
    13    21    22    1
    14    22    23    1
    15    24    22    1
    16    24    25    1
    17    25    26    1
    18    26    27    1
    19    27    28    1
    20    28    29   ar
    21    29    30   ar
    22    30    31   ar
    23    31    32   ar
    24    32    33   ar
    25     8     9    1
    26     9    10    1
    27    15    16    1
    28    16    17    1
    29    17    18    1
    30    17    19    1
    31    19    20    1
    32    19    13    1
    33     6     1   ar
    34    33    24    1
    35    10     5    1
    36    33    28   ar
    37     9    11    1
@<TRIPOS>MOLECULE
*****
 33 37 0 0 0
SMALL
GASTEIGER

@<TRIPOS>ATOM
      1 C          -4.3733  -17.4660   22.9638 C.ar    1  UNL1        0.0436
      2 C          -2.9662  -16.9884   23.1681 C.ar    1  UNL1        0.0142
      3 C          -1.8413  -17.6200   22.4028 C.ar    1  UNL1        0.0010
      4 C          -2.1235  -18.7292   21.4333 C.ar    1  UNL1       -0.0032
      5 C          -3.5307  -19.2068   21.2290 C.ar    1  UNL1       -0.0091
      6 C          -4.6556  -18.5753   21.9943 C.ar    1  UNL1       -0.0101
      7 C          -6.0628  -19.0529   21.7901 C.3     1  UNL1        0.0444
      8 C          -6.3451  -20.1621   20.8206 C.3     1  UNL1        0.0749
      9 N          -5.2201  -20.7937   20.0553 N.3     1  UNL1       -0.2934
     10 C          -3.8129  -20.3160   20.2595 C.3     1  UNL1        0.0954
     11 H          -5.4320  -20.6707   19.0651 H       1  UNL1        0.1236
     12 C          -9.3550  -16.0199   23.2680 C.3     1  UNL1        0.0191
     13 C          -7.9891  -16.1114   23.8812 C.3     1  UNL1        0.0774
     14 C          -6.8641  -16.7430   23.1159 C.3     1  UNL1        0.1067
     15 N          -5.4983  -16.8345   23.7291 N.pl3   1  UNL1       -0.3050
     16 C          -5.2574  -16.2944   25.1076 C.3     1  UNL1        0.1067
     17 C          -6.3822  -15.6628   25.8729 C.3     1  UNL1        0.0774
     18 C          -6.1413  -15.1228   27.2514 C.3     1  UNL1        0.0191
     19 N          -7.7482  -15.5713   25.2597 N.3     1  UNL1       -0.2709
     20 C          -8.8731  -14.9398   26.0250 C.3     1  UNL1        0.0897
     21 C          -7.7522  -20.6397   20.6163 C.3     1  UNL1        0.0886
     22 N          -8.7201  -19.8070   19.8291 N.3     1  UNL1       -0.2667
     23 C          -8.5315  -19.6341   18.3510 C.3     1  UNL1        0.0899
     24 C          -9.8765  -19.1472   20.5199 C.3     1  UNL1        0.0978
     25 C         -10.7991  -18.2510   19.7480 C.3     1  UNL1        0.0224
     26 C         -11.9556  -17.5912   20.4387 C.3     1  UNL1        0.0065
     27 C         -12.1895  -17.8275   21.9014 C.3     1  UNL1        0.0277
     28 C         -11.2670  -18.7236   22.6733 C.ar    1  UNL1       -0.0073
     29 C         -11.5009  -18.9598   24.1360 C.ar    1  UNL1       -0.0015
     30 C         -10.5783  -19.8560   24.9079 C.ar    1  UNL1        0.0203
     31 C          -9.4218  -20.5158   24.2172 C.ar    1  UNL1        0.0985
     32 N          -9.1879  -20.2796   22.7545 N.ar    1  UNL1       -0.2471
     33 C         -10.1105  -19.3834   21.9826 C.ar    1  UNL1        0.0695
@<TRIPOS>BOND
     1    13    12    1
     2    13    14    1
     3    14    15    1
     4    15     1    1
     5     1     2   ar
     6     2     3   ar
     7     3     4   ar
     8     4     5   ar
     9     5     6   ar
    10     6     7    1
    11     7     8    1
    12     8    21    1
    13    21    22    1
    14    22    23    1
    15    24    22    1
    16    24    25    1
    17    25    26    1
    18    26    27    1
    19    27    28    1
    20    28    29   ar
    21    29    30   ar
    22    30    31   ar
    23    31    32   ar
    24    32    33   ar
    25     8     9    1
    26     9    10    1
    27    15    16    1
    28    16    17    1
    29    17    18    1
    30    17    19    1
    31    19    20    1
    32    19    13    1
    33     6     1   ar
    34    33    24    1
    35    10     5    1
    36    33    28   ar
    37     9    11    1
