@<TRIPOS>MOLECULE
*****
 23 26 0 0 0
SMALL
GASTEIGER

@<TRIPOS>ATOM
      1 C          -6.6023  -20.2294   20.8274 C.ar    1  UNL1        0.1387
      2 C          -7.2446  -20.2246   19.4719 C.ar    1  UNL1        0.0366
      3 C          -8.6281  -19.6712   19.2994 C.ar    1  UNL1       -0.0014
      4 C          -9.3692  -19.1225   20.4826 C.ar    1  UNL1       -0.0245
      5 C          -8.7269  -19.1273   21.8380 C.ar    1  UNL1       -0.0217
      6 C          -7.3435  -19.6807   22.0105 C.ar    1  UNL1        0.0324
      7 C          -9.2854  -18.6327   23.1394 C.3     1  UNL1        0.0434
      8 C         -10.6243  -18.0113   23.4066 C.3     1  UNL1        0.0768
      9 N         -11.7351  -17.7309   22.4386 N.3     1  UNL1       -0.2721
     10 C         -11.7817  -18.0027   20.9641 C.3     1  UNL1        0.0768
     11 C         -10.7287  -18.6220   20.0936 C.3     1  UNL1        0.0433
     12 O          -5.2189  -20.7829   20.9998 O.3     1  UNL1       -0.4707
     13 C          -4.1126  -20.3326   20.0923 C.3     1  UNL1        0.2320
     14 C          -1.7222  -16.6584   21.1104 C.ar    1  UNL1       -0.0000
     15 C          -1.7275  -17.1843   19.7057 C.ar    1  UNL1       -0.0002
     16 C          -2.5242  -18.4090   19.3663 C.ar    1  UNL1       -0.0007
     17 C          -3.3158  -19.1078   20.4317 C.ar    1  UNL1        0.0212
     18 C          -3.3105  -18.5819   21.8364 C.ar    1  UNL1       -0.0007
     19 C          -2.5138  -17.3572   22.1758 C.ar    1  UNL1       -0.0002
     20 C         -12.9618  -17.0946   23.0221 C.3     1  UNL1        0.0721
     21 C         -13.7990  -17.8485   24.0125 C.3     1  UNL1        0.0160
     22 C         -13.9527  -18.4976   25.3559 C.3     1  UNL1        0.0014
     23 C         -15.0954  -18.5050   24.3843 C.3     1  UNL1        0.0014
@<TRIPOS>BOND
     1    14    15   ar
     2    15    16   ar
     3    16    17   ar
     4    17    13    1
     5    13    12    1
     6    12     1    1
     7     1     2   ar
     8     2     3   ar
     9     3     4   ar
    10     4     5   ar
    11     5     6   ar
    12     5     7    1
    13     7     8    1
    14     8     9    1
    15     9    20    1
    16    20    21    1
    17    21    22    1
    18    22    23    1
    19     9    10    1
    20    10    11    1
    21    17    18   ar
    22    18    19   ar
    23    19    14   ar
    24     6     1   ar
    25    23    21    1
    26    11     4    1
@<TRIPOS>MOLECULE
*****
 23 26 0 0 0
SMALL
GASTEIGER

@<TRIPOS>ATOM
      1 C          -8.6794  -16.2783   23.9536 C.ar    1  UNL1        0.1387
      2 C          -7.7881  -15.2460   24.5781 C.ar    1  UNL1        0.0366
      3 C          -6.3013  -15.3306   24.3975 C.ar    1  UNL1       -0.0014
      4 C          -5.7060  -16.4475   23.5925 C.ar    1  UNL1       -0.0245
      5 C          -6.5972  -17.4797   22.9681 C.ar    1  UNL1       -0.0217
      6 C          -8.0839  -17.3952   23.1485 C.ar    1  UNL1        0.0324
      7 C          -6.2131  -18.6658   22.1338 C.3     1  UNL1        0.0434
      8 C          -4.8427  -19.1123   21.7181 C.3     1  UNL1        0.0768
      9 N          -3.5183  -18.4832   22.0338 N.3     1  UNL1       -0.2721
     10 C          -3.2368  -17.2522   22.8434 C.3     1  UNL1        0.0768
     11 C          -4.2104  -16.3462   23.5370 C.3     1  UNL1        0.0433
     12 O         -10.1660  -16.1937   24.1341 O.3     1  UNL1       -0.4707
     13 C         -11.0735  -16.3073   22.9452 C.3     1  UNL1        0.2320
     14 C         -10.7927  -19.8882   20.2344 C.ar    1  UNL1       -0.0000
     15 C         -11.0549  -20.0753   21.6993 C.ar    1  UNL1       -0.0002
     16 C         -11.1486  -18.8817   22.6030 C.ar    1  UNL1       -0.0007
     17 C         -10.9799  -17.5010   22.0416 C.ar    1  UNL1        0.0212
     18 C         -10.7177  -17.3139   20.5766 C.ar    1  UNL1       -0.0007
     19 C         -10.6241  -18.5075   19.6730 C.ar    1  UNL1       -0.0002
     20 C          -2.3161  -19.1769   21.4649 C.3     1  UNL1        0.0721
     21 C          -1.5252  -18.5283   20.3677 C.3     1  UNL1        0.0160
     22 C          -0.2225  -18.0035   19.8410 C.3     1  UNL1        0.0014
     23 C          -1.4582  -17.9297   18.9939 C.3     1  UNL1        0.0014
@<TRIPOS>BOND
     1    14    15   ar
     2    15    16   ar
     3    16    17   ar
     4    17    13    1
     5    13    12    1
     6    12     1    1
     7     1     2   ar
     8     2     3   ar
     9     3     4   ar
    10     4     5   ar
    11     5     6   ar
    12     5     7    1
    13     7     8    1
    14     8     9    1
    15     9    20    1
    16    20    21    1
    17    21    22    1
    18    22    23    1
    19     9    10    1
    20    10    11    1
    21    17    18   ar
    22    18    19   ar
    23    19    14   ar
    24     6     1   ar
    25    23    21    1
    26    11     4    1
@<TRIPOS>MOLECULE
*****
 23 26 0 0 0
SMALL
GASTEIGER

@<TRIPOS>ATOM
      1 C          -5.8934  -19.1685   22.0754 C.ar    1  UNL1        0.1387
      2 C          -5.7060  -17.8476   22.7611 C.ar    1  UNL1        0.0366
      3 C          -6.9011  -17.0342   23.1617 C.ar    1  UNL1       -0.0014
      4 C          -8.2835  -17.5419   22.8765 C.ar    1  UNL1       -0.0245
      5 C          -8.4708  -18.8627   22.1909 C.ar    1  UNL1       -0.0217
      6 C          -7.2759  -19.6760   21.7903 C.ar    1  UNL1        0.0324
      7 C          -9.7511  -19.5483   21.8154 C.3     1  UNL1        0.0434
      8 C         -11.1603  -19.0822   22.0330 C.3     1  UNL1        0.0768
      9 N         -11.6370  -17.8156   22.6797 N.3     1  UNL1       -0.2721
     10 C         -10.8225  -16.7021   23.2686 C.3     1  UNL1        0.0768
     11 C          -9.3301  -16.5803   23.3562 C.3     1  UNL1        0.0433
     12 O          -4.6984  -19.9817   21.6748 O.3     1  UNL1       -0.4707
     13 C          -3.3507  -19.6704   22.2553 C.3     1  UNL1        0.2320
     14 C          -0.6648  -16.6811   20.2306 C.ar    1  UNL1       -0.0000
     15 C          -1.5121  -16.2604   21.3946 C.ar    1  UNL1       -0.0002
     16 C          -2.4074  -17.2568   22.0696 C.ar    1  UNL1       -0.0007
     17 C          -2.4554  -18.6740   21.5804 C.ar    1  UNL1        0.0212
     18 C          -1.6081  -19.0947   20.4163 C.ar    1  UNL1       -0.0007
     19 C          -0.7128  -18.0983   19.7414 C.ar    1  UNL1       -0.0002
     20 C         -13.1251  -17.6391   22.7464 C.3     1  UNL1        0.0721
     21 C         -13.8795  -18.0849   23.9639 C.3     1  UNL1        0.0160
     22 C         -15.1720  -18.4599   24.6261 C.3     1  UNL1        0.0014
     23 C         -13.8935  -18.4820   25.4103 C.3     1  UNL1        0.0014
@<TRIPOS>BOND
     1    14    15   ar
     2    15    16   ar
     3    16    17   ar
     4    17    13    1
     5    13    12    1
     6    12     1    1
     7     1     2   ar
     8     2     3   ar
     9     3     4   ar
    10     4     5   ar
    11     5     6   ar
    12     5     7    1
    13     7     8    1
    14     8     9    1
    15     9    20    1
    16    20    21    1
    17    21    22    1
    18    22    23    1
    19     9    10    1
    20    10    11    1
    21    17    18   ar
    22    18    19   ar
    23    19    14   ar
    24     6     1   ar
    25    23    21    1
    26    11     4    1
@<TRIPOS>MOLECULE
*****
 23 26 0 0 0
SMALL
GASTEIGER

@<TRIPOS>ATOM
      1 C          -9.5250  -19.0422   21.3899 C.ar    1  UNL1        0.1387
      2 C          -9.3846  -19.4739   19.9603 C.ar    1  UNL1        0.0366
      3 C          -8.0211  -19.6703   19.3666 C.ar    1  UNL1       -0.0014
      4 C          -6.7981  -19.4348   20.2027 C.ar    1  UNL1       -0.0245
      5 C          -6.9386  -19.0031   21.6322 C.ar    1  UNL1       -0.0217
      6 C          -8.3020  -18.8068   22.2259 C.ar    1  UNL1        0.0324
      7 C          -5.8587  -18.7162   22.6330 C.3     1  UNL1        0.0434
      8 C          -4.3715  -18.7903   22.4512 C.3     1  UNL1        0.0768
      9 N          -3.5971  -19.1695   21.2239 N.3     1  UNL1       -0.2721
     10 C          -4.1184  -19.5683   19.8752 C.3     1  UNL1        0.0768
     11 C          -5.5430  -19.6864   19.4206 C.3     1  UNL1        0.0433
     12 O         -10.8885  -18.8459   21.9835 O.3     1  UNL1       -0.4707
     13 C         -11.1866  -17.6145   22.7866 C.3     1  UNL1        0.2320
     14 C          -8.5235  -16.4748   26.2303 C.ar    1  UNL1       -0.0000
     15 C          -9.2283  -17.7989   26.2335 C.ar    1  UNL1       -0.0002
     16 C         -10.1160  -18.1788   25.0856 C.ar    1  UNL1       -0.0007
     17 C         -10.2989  -17.2346   23.9345 C.ar    1  UNL1        0.0212
     18 C          -9.5941  -15.9106   23.9313 C.ar    1  UNL1       -0.0007
     19 C          -8.7064  -15.5306   25.0792 C.ar    1  UNL1       -0.0002
     20 C          -2.1038  -19.1470   21.3638 C.3     1  UNL1        0.0721
     21 C          -1.2694  -18.3855   20.3769 C.3     1  UNL1        0.0160
     22 C           0.0078  -17.6822   20.0250 C.3     1  UNL1        0.0014
     23 C          -1.1016  -17.7699   19.0194 C.3     1  UNL1        0.0014
@<TRIPOS>BOND
     1    14    15   ar
     2    15    16   ar
     3    16    17   ar
     4    17    13    1
     5    13    12    1
     6    12     1    1
     7     1     2   ar
     8     2     3   ar
     9     3     4   ar
    10     4     5   ar
    11     5     6   ar
    12     5     7    1
    13     7     8    1
    14     8     9    1
    15     9    20    1
    16    20    21    1
    17    21    22    1
    18    22    23    1
    19     9    10    1
    20    10    11    1
    21    17    18   ar
    22    18    19   ar
    23    19    14   ar
    24     6     1   ar
    25    23    21    1
    26    11     4    1
@<TRIPOS>MOLECULE
*****
 23 26 0 0 0
SMALL
GASTEIGER

@<TRIPOS>ATOM
      1 C          -9.7653  -18.1888   24.0496 C.ar    1  UNL1        0.1387
      2 C          -9.0679  -16.9091   24.4046 C.ar    1  UNL1        0.0366
      3 C          -7.6492  -16.6834   23.9727 C.ar    1  UNL1       -0.0014
      4 C          -6.9280  -17.7374   23.1859 C.ar    1  UNL1       -0.0245
      5 C          -7.6255  -19.0170   22.8311 C.ar    1  UNL1       -0.0217
      6 C          -9.0441  -19.2427   23.2628 C.ar    1  UNL1        0.0324
      7 C          -7.0944  -20.1888   22.0597 C.3     1  UNL1        0.0434
      8 C          -5.7347  -20.3702   21.4527 C.3     1  UNL1        0.0768
      9 N          -4.5704  -19.4248   21.4673 N.3     1  UNL1       -0.2721
     10 C          -4.4780  -18.0643   22.0923 C.3     1  UNL1        0.0768
     11 C          -5.5272  -17.3134   22.8572 C.3     1  UNL1        0.0433
     12 O         -11.1840  -18.4144   24.4815 O.3     1  UNL1       -0.4707
     13 C         -12.2997  -18.2884   23.4868 C.3     1  UNL1        0.2320
     14 C         -11.4338  -16.8848   19.3000 C.ar    1  UNL1       -0.0000
     15 C         -11.9243  -15.9118   20.3308 C.ar    1  UNL1       -0.0002
     16 C         -12.2129  -16.3796   21.7264 C.ar    1  UNL1       -0.0007
     17 C         -12.0111  -17.8205   22.0912 C.ar    1  UNL1        0.0212
     18 C         -11.5206  -18.7935   21.0604 C.ar    1  UNL1       -0.0007
     19 C         -11.2319  -18.3257   19.6647 C.ar    1  UNL1       -0.0002
     20 C          -3.3349  -19.9030   20.7637 C.3     1  UNL1        0.0721
     21 C          -2.4290  -18.9181   20.0859 C.3     1  UNL1        0.0160
     22 C          -1.1385  -18.1546   20.0452 C.3     1  UNL1        0.0014
     23 C          -2.1505  -17.9757   18.9526 C.3     1  UNL1        0.0014
@<TRIPOS>BOND
     1    14    15   ar
     2    15    16   ar
     3    16    17   ar
     4    17    13    1
     5    13    12    1
     6    12     1    1
     7     1     2   ar
     8     2     3   ar
     9     3     4   ar
    10     4     5   ar
    11     5     6   ar
    12     5     7    1
    13     7     8    1
    14     8     9    1
    15     9    20    1
    16    20    21    1
    17    21    22    1
    18    22    23    1
    19     9    10    1
    20    10    11    1
    21    17    18   ar
    22    18    19   ar
    23    19    14   ar
    24     6     1   ar
    25    23    21    1
    26    11     4    1
@<TRIPOS>MOLECULE
*****
 23 26 0 0 0
SMALL
GASTEIGER

@<TRIPOS>ATOM
      1 C          -7.5149  -19.5779   19.8744 C.ar    1  UNL1        0.1387
      2 C          -6.1472  -20.1852   19.9776 C.ar    1  UNL1        0.0366
      3 C          -5.1917  -19.7068   21.0303 C.ar    1  UNL1       -0.0014
      4 C          -5.6039  -18.6211   21.9798 C.ar    1  UNL1       -0.0245
      5 C          -6.9715  -18.0140   21.8766 C.ar    1  UNL1       -0.0217
      6 C          -7.9271  -18.4923   20.8239 C.ar    1  UNL1        0.0324
      7 C          -7.5791  -16.9293   22.7160 C.3     1  UNL1        0.0434
      8 C          -6.9689  -16.1841   23.8660 C.3     1  UNL1        0.0768
      9 N          -5.6006  -16.3395   24.4605 N.3     1  UNL1       -0.2721
     10 C          -4.5044  -17.2784   24.0520 C.3     1  UNL1        0.0768
     11 C          -4.5059  -18.2938   22.9479 C.3     1  UNL1        0.0433
     12 O          -8.4704  -20.0563   18.8217 O.3     1  UNL1       -0.4707
     13 C          -9.9006  -20.3347   19.1778 C.3     1  UNL1        0.2320
     14 C         -12.0739  -17.6291   22.0425 C.ar    1  UNL1       -0.0000
     15 C         -11.6233  -18.9881   22.4897 C.ar    1  UNL1       -0.0002
     16 C         -10.8989  -19.8900   21.5349 C.ar    1  UNL1       -0.0007
     17 C         -10.6251  -19.4328   20.1327 C.ar    1  UNL1        0.0212
     18 C         -11.0756  -18.0739   19.6855 C.ar    1  UNL1       -0.0007
     19 C         -11.8000  -17.1719   20.6403 C.ar    1  UNL1       -0.0002
     20 C          -5.2869  -15.4365   25.6164 C.3     1  UNL1        0.0721
     21 C          -6.2686  -15.2891   26.7411 C.3     1  UNL1        0.0160
     22 C          -7.4234  -15.8229   27.5357 C.3     1  UNL1        0.0014
     23 C          -6.8140  -14.5000   27.8942 C.3     1  UNL1        0.0014
@<TRIPOS>BOND
     1    14    15   ar
     2    15    16   ar
     3    16    17   ar
     4    17    13    1
     5    13    12    1
     6    12     1    1
     7     1     2   ar
     8     2     3   ar
     9     3     4   ar
    10     4     5   ar
    11     5     6   ar
    12     5     7    1
    13     7     8    1
    14     8     9    1
    15     9    20    1
    16    20    21    1
    17    21    22    1
    18    22    23    1
    19     9    10    1
    20    10    11    1
    21    17    18   ar
    22    18    19   ar
    23    19    14   ar
    24     6     1   ar
    25    23    21    1
    26    11     4    1
@<TRIPOS>MOLECULE
*****
 23 26 0 0 0
SMALL
GASTEIGER

@<TRIPOS>ATOM
      1 C          -4.4422  -18.2000   22.9156 C.ar    1  UNL1        0.1387
      2 C          -4.7448  -19.5159   22.2621 C.ar    1  UNL1        0.0366
      3 C          -6.1598  -19.8732   21.9153 C.ar    1  UNL1       -0.0014
      4 C          -7.2721  -18.9146   22.2219 C.ar    1  UNL1       -0.0245
      5 C          -6.9695  -17.5989   22.8753 C.ar    1  UNL1       -0.0217
      6 C          -5.5546  -17.2415   23.2222 C.ar    1  UNL1        0.0324
      7 C          -7.9216  -16.5071   23.2647 C.3     1  UNL1        0.0434
      8 C          -9.4115  -16.4615   23.0966 C.3     1  UNL1        0.0768
      9 N         -10.3171  -17.4964   22.4978 N.3     1  UNL1       -0.2721
     10 C          -9.9567  -18.8325   21.9191 C.3     1  UNL1        0.0768
     11 C          -8.6015  -19.4637   21.7963 C.3     1  UNL1        0.0433
     12 O          -3.0273  -17.8428   23.2624 O.3     1  UNL1       -0.4707
     13 C          -2.2704  -16.8661   22.4120 C.3     1  UNL1        0.2320
     14 C          -1.2079  -17.9278   18.1701 C.ar    1  UNL1       -0.0000
     15 C          -2.6135  -17.5340   18.5150 C.ar    1  UNL1       -0.0002
     16 C          -2.9677  -17.1801   19.9289 C.ar    1  UNL1       -0.0007
     17 C          -1.9162  -17.2200   20.9979 C.ar    1  UNL1        0.0212
     18 C          -0.5106  -17.6138   20.6530 C.ar    1  UNL1       -0.0007
     19 C          -0.1564  -17.9677   19.2391 C.ar    1  UNL1       -0.0002
     20 C         -11.7762  -17.1493   22.4745 C.3     1  UNL1        0.0721
     21 C         -12.7128  -17.7789   23.4627 C.3     1  UNL1        0.0160
     22 C         -12.9389  -18.6074   24.6925 C.3     1  UNL1        0.0014
     23 C         -14.1091  -18.0408   23.9444 C.3     1  UNL1        0.0014
@<TRIPOS>BOND
     1    14    15   ar
     2    15    16   ar
     3    16    17   ar
     4    17    13    1
     5    13    12    1
     6    12     1    1
     7     1     2   ar
     8     2     3   ar
     9     3     4   ar
    10     4     5   ar
    11     5     6   ar
    12     5     7    1
    13     7     8    1
    14     8     9    1
    15     9    20    1
    16    20    21    1
    17    21    22    1
    18    22    23    1
    19     9    10    1
    20    10    11    1
    21    17    18   ar
    22    18    19   ar
    23    19    14   ar
    24     6     1   ar
    25    23    21    1
    26    11     4    1
@<TRIPOS>MOLECULE
*****
 23 26 0 0 0
SMALL
GASTEIGER

@<TRIPOS>ATOM
      1 C          -4.7408  -16.0345   23.3293 C.ar    1  UNL1        0.1387
      2 C          -5.2825  -15.1776   24.4349 C.ar    1  UNL1        0.0366
      3 C          -6.6751  -15.4029   24.9448 C.ar    1  UNL1       -0.0014
      4 C          -7.5259  -16.4853   24.3491 C.ar    1  UNL1       -0.0245
      5 C          -6.9841  -17.3421   23.2437 C.ar    1  UNL1       -0.0217
      6 C          -5.5916  -17.1168   22.7337 C.ar    1  UNL1        0.0324
      7 C          -7.6590  -18.4667   22.5156 C.3     1  UNL1        0.0434
      8 C          -9.0423  -19.0121   22.7135 C.3     1  UNL1        0.0768
      9 N         -10.0923  -18.5676   23.6880 N.3     1  UNL1       -0.2721
     10 C         -10.0185  -17.4680   24.7055 C.3     1  UNL1        0.0768
     11 C          -8.8763  -16.5412   24.9998 C.3     1  UNL1        0.0433
     12 O          -3.3482  -15.8091   22.8194 O.3     1  UNL1       -0.4707
     13 C          -2.4284  -16.9753   22.6098 C.3     1  UNL1        0.2320
     14 C          -3.1217  -19.7985   19.1749 C.ar    1  UNL1       -0.0000
     15 C          -2.5307  -18.4430   18.9239 C.ar    1  UNL1       -0.0002
     16 C          -2.2996  -17.5018   20.0688 C.ar    1  UNL1       -0.0007
     17 C          -2.6595  -17.9164   21.4648 C.ar    1  UNL1        0.0212
     18 C          -3.2505  -19.2720   21.7157 C.ar    1  UNL1       -0.0007
     19 C          -3.4816  -20.2131   20.5708 C.ar    1  UNL1       -0.0002
     20 C         -11.3875  -19.3226   23.6385 C.3     1  UNL1        0.0721
     21 C         -12.6713  -18.6338   23.9959 C.3     1  UNL1        0.0160
     22 C         -13.7704  -17.6737   23.6497 C.3     1  UNL1        0.0014
     23 C         -13.7957  -18.4012   24.9612 C.3     1  UNL1        0.0014
@<TRIPOS>BOND
     1    14    15   ar
     2    15    16   ar
     3    16    17   ar
     4    17    13    1
     5    13    12    1
     6    12     1    1
     7     1     2   ar
     8     2     3   ar
     9     3     4   ar
    10     4     5   ar
    11     5     6   ar
    12     5     7    1
    13     7     8    1
    14     8     9    1
    15     9    20    1
    16    20    21    1
    17    21    22    1
    18    22    23    1
    19     9    10    1
    20    10    11    1
    21    17    18   ar
    22    18    19   ar
    23    19    14   ar
    24     6     1   ar
    25    23    21    1
    26    11     4    1
@<TRIPOS>MOLECULE
*****
 23 26 0 0 0
SMALL
GASTEIGER

@<TRIPOS>ATOM
      1 C         -11.3913   -6.8982   18.4631 C.ar    1  UNL1        0.1387
      2 C         -11.5540   -7.6223   17.1595 C.ar    1  UNL1        0.0366
      3 C         -12.9263   -7.8866   16.6145 C.ar    1  UNL1       -0.0014
      4 C         -14.1359   -7.4269   17.3732 C.ar    1  UNL1       -0.0245
      5 C         -13.9732   -6.7029   18.6766 C.ar    1  UNL1       -0.0217
      6 C         -12.6010   -6.4385   19.2217 C.ar    1  UNL1        0.0324
      7 C         -15.0373   -6.1632   19.5859 C.3     1  UNL1        0.0434
      8 C         -16.5268   -6.2143   19.4160 C.3     1  UNL1        0.0768
      9 N         -17.3200   -6.8177   18.2951 N.3     1  UNL1       -0.2721
     10 C         -16.8198   -7.5190   17.0671 C.3     1  UNL1        0.0768
     11 C         -15.4027   -7.7902   16.6568 C.3     1  UNL1        0.0433
     12 O         -10.0191   -6.6339   19.0080 O.3     1  UNL1       -0.4707
     13 C          -9.5826   -5.2269   19.2907 C.3     1  UNL1        0.2320
     14 C         -10.4357   -1.9648   16.3107 C.ar    1  UNL1       -0.0000
     15 C         -11.1552   -1.9853   17.6267 C.ar    1  UNL1       -0.0002
     16 C         -10.8709   -3.0727   18.6200 C.ar    1  UNL1       -0.0007
     17 C          -9.8670   -4.1395   18.2974 C.ar    1  UNL1        0.0212
     18 C          -9.1475   -4.1189   16.9814 C.ar    1  UNL1       -0.0007
     19 C          -9.4318   -3.0316   15.9880 C.ar    1  UNL1       -0.0002
     20 C         -18.8107   -6.7049   18.4184 C.3     1  UNL1        0.0721
     21 C         -19.5698   -7.6853   19.2627 C.3     1  UNL1        0.0160
     22 C         -20.2161   -9.0284   19.4299 C.3     1  UNL1        0.0014
     23 C         -20.2383   -8.0399   20.5578 C.3     1  UNL1        0.0014
@<TRIPOS>BOND
     1    14    15   ar
     2    15    16   ar
     3    16    17   ar
     4    17    13    1
     5    13    12    1
     6    12     1    1
     7     1     2   ar
     8     2     3   ar
     9     3     4   ar
    10     4     5   ar
    11     5     6   ar
    12     5     7    1
    13     7     8    1
    14     8     9    1
    15     9    20    1
    16    20    21    1
    17    21    22    1
    18    22    23    1
    19     9    10    1
    20    10    11    1
    21    17    18   ar
    22    18    19   ar
    23    19    14   ar
    24     6     1   ar
    25    23    21    1
    26    11     4    1
