@<TRIPOS>MOLECULE
*****
 27 29 0 0 0
SMALL
GASTEIGER

@<TRIPOS>ATOM
      1 C          -7.4599  -19.3850   20.4135 C.ar    1  UNL1        0.0238
      2 C          -7.8796  -19.9212   19.0770 C.ar    1  UNL1        0.0020
      3 C          -9.3362  -20.0839   18.7581 C.ar    1  UNL1        0.0001
      4 C         -10.3731  -19.7104   19.7756 C.ar    1  UNL1        0.0001
      5 C          -9.9534  -19.1742   21.1121 C.ar    1  UNL1        0.0030
      6 C          -8.4968  -19.0115   21.4311 C.ar    1  UNL1        0.0021
      7 C         -10.9903  -18.8008   22.1297 C.ar    1  UNL1        0.0343
      8 C         -10.9421  -19.3995   23.5041 C.ar    1  UNL1        0.0030
      9 C         -11.9790  -19.0260   24.5217 C.ar    1  UNL1        0.0002
     10 C         -13.0640  -18.0538   24.1648 C.ar    1  UNL1        0.0031
     11 C         -13.1122  -17.4551   22.7903 C.ar    1  UNL1        0.0372
     12 C         -12.0753  -17.8285   21.7728 C.ar    1  UNL1        0.1467
     13 O         -12.1235  -17.2298   20.3983 O.3     1  UNL1       -0.4045
     14 C         -11.3242  -15.9991   20.0879 C.3     1  UNL1        0.5753
     15 F         -10.5248  -14.7683   19.7774 F       1  UNL1       -0.1328
     16 F         -11.9635  -15.9256   18.7330 F       1  UNL1       -0.1328
     17 F         -10.6849  -16.0726   21.4428 F       1  UNL1       -0.1328
     18 C          -3.6271  -18.7804   20.5110 C.ar    1  UNL1        0.1412
     19 C          -3.8964  -19.1633   21.9361 C.ar    1  UNL1        0.0606
     20 S          -5.3649  -19.4364   22.0730 S.2     1  UNL1       -0.0658
     21 C          -6.0032  -19.2223   20.7326 C.ar    1  UNL1        0.1109
     22 N          -4.9292  -18.8169   19.7672 N.ar    1  UNL1       -0.2337
     23 N          -2.2103  -17.5771   18.6958 N.am    1  UNL1       -0.3241
     24 C          -2.2903  -18.4237   19.9314 C.2     1  UNL1        0.2610
     25 O          -1.0335  -18.9136   20.5875 O.2     1  UNL1       -0.2687
     26 H          -1.3330  -17.3430   18.3154 H       1  UNL1        0.1453
     27 H          -3.0352  -17.2556   18.2651 H       1  UNL1        0.1453
@<TRIPOS>BOND
     1    23    24   am
     2    24    25    2
     3    24    18    1
     4    18    19   ar
     5    19    20   ar
     6    20    21   ar
     7    21     1    1
     8     1     2   ar
     9     2     3   ar
    10     3     4   ar
    11     4     5   ar
    12     5     7    1
    13     7     8   ar
    14     8     9   ar
    15     9    10   ar
    16    10    11   ar
    17    11    12   ar
    18    12    13    1
    19    13    14    1
    20    14    15    1
    21    14    16    1
    22    14    17    1
    23     5     6   ar
    24    21    22   ar
    25    22    18   ar
    26     6     1   ar
    27    12     7   ar
    28    23    26    1
    29    23    27    1
@<TRIPOS>MOLECULE
*****
 27 29 0 0 0
SMALL
GASTEIGER

@<TRIPOS>ATOM
      1 C          -6.6227  -16.7487   23.6323 C.ar    1  UNL1        0.0238
      2 C          -6.6252  -15.8726   24.8498 C.ar    1  UNL1        0.0020
      3 C          -7.9105  -15.2762   25.3420 C.ar    1  UNL1        0.0001
      4 C          -9.1934  -15.5560   24.6167 C.ar    1  UNL1        0.0001
      5 C          -9.1908  -16.4321   23.3991 C.ar    1  UNL1        0.0030
      6 C          -7.9055  -17.0284   22.9070 C.ar    1  UNL1        0.0021
      7 C         -10.4736  -16.7119   22.6738 C.ar    1  UNL1        0.0343
      8 C         -10.7550  -16.0415   21.3619 C.ar    1  UNL1        0.0030
      9 C         -12.0378  -16.3212   20.6365 C.ar    1  UNL1        0.0002
     10 C         -13.0393  -17.2715   21.2231 C.ar    1  UNL1        0.0031
     11 C         -12.7579  -17.9419   22.5351 C.ar    1  UNL1        0.0372
     12 C         -11.4751  -17.6621   23.2604 C.ar    1  UNL1        0.1467
     13 O         -11.1937  -18.3326   24.5724 O.3     1  UNL1       -0.4045
     14 C         -10.2363  -19.4856   24.6354 C.3     1  UNL1        0.5753
     15 F          -9.2788  -20.6386   24.6984 F       1  UNL1       -0.1328
     16 F          -9.5335  -18.8388   25.7920 F       1  UNL1       -0.1328
     17 F         -10.9391  -20.1324   23.4788 F       1  UNL1       -0.1328
     18 C          -3.7459  -18.7491   21.9626 C.ar    1  UNL1        0.1412
     19 C          -2.9728  -17.7762   22.8028 C.ar    1  UNL1        0.0606
     20 S          -3.9564  -16.9085   23.5305 S.2     1  UNL1       -0.0658
     21 C          -5.3373  -17.3450   23.1401 C.ar    1  UNL1        0.1109
     22 N          -5.2073  -18.4826   22.1711 N.ar    1  UNL1       -0.2337
     23 N          -3.9648  -20.3515   19.9292 N.am    1  UNL1       -0.3241
     24 C          -3.1605  -19.8034   21.0705 C.2     1  UNL1        0.2610
     25 O          -1.7706  -20.3096   21.3197 O.2     1  UNL1       -0.2687
     26 H          -3.5806  -21.0434   19.3437 H       1  UNL1        0.1453
     27 H          -4.8770  -20.0193   19.7656 H       1  UNL1        0.1453
@<TRIPOS>BOND
     1    23    24   am
     2    24    25    2
     3    24    18    1
     4    18    19   ar
     5    19    20   ar
     6    20    21   ar
     7    21     1    1
     8     1     2   ar
     9     2     3   ar
    10     3     4   ar
    11     4     5   ar
    12     5     7    1
    13     7     8   ar
    14     8     9   ar
    15     9    10   ar
    16    10    11   ar
    17    11    12   ar
    18    12    13    1
    19    13    14    1
    20    14    15    1
    21    14    16    1
    22    14    17    1
    23     5     6   ar
    24    21    22   ar
    25    22    18   ar
    26     6     1   ar
    27    12     7   ar
    28    23    26    1
    29    23    27    1
@<TRIPOS>MOLECULE
*****
 27 29 0 0 0
SMALL
GASTEIGER

@<TRIPOS>ATOM
      1 C          -6.8646  -19.3240   20.3854 C.ar    1  UNL1        0.0238
      2 C          -7.1303  -20.3040   19.2814 C.ar    1  UNL1        0.0020
      3 C          -8.5289  -20.5059   18.7784 C.ar    1  UNL1        0.0001
      4 C          -9.6618  -19.7279   19.3794 C.ar    1  UNL1        0.0001
      5 C          -9.3961  -18.7479   20.4834 C.ar    1  UNL1        0.0030
      6 C          -7.9975  -18.5459   20.9864 C.ar    1  UNL1        0.0021
      7 C         -10.5290  -17.9698   21.0844 C.ar    1  UNL1        0.0343
      8 C         -11.3636  -17.0717   20.2203 C.ar    1  UNL1        0.0030
      9 C         -12.4965  -16.2936   20.8213 C.ar    1  UNL1        0.0002
     10 C         -12.7947  -16.4137   22.2864 C.ar    1  UNL1        0.0031
     11 C         -11.9601  -17.3119   23.1505 C.ar    1  UNL1        0.0372
     12 C         -10.8272  -18.0899   22.5495 C.ar    1  UNL1        0.1467
     13 O          -9.9926  -18.9881   23.4137 O.3     1  UNL1       -0.4045
     14 C          -9.7438  -18.6289   24.8486 C.3     1  UNL1        0.5753
     15 F          -9.4950  -18.2697   26.2836 F       1  UNL1       -0.1328
     16 F         -10.5433  -19.8205   25.2855 F       1  UNL1       -0.1328
     17 F          -8.9443  -17.4374   24.4116 F       1  UNL1       -0.1328
     18 C          -3.1141  -18.5322   20.9957 C.ar    1  UNL1        0.1412
     19 C          -3.5133  -19.0902   22.3297 C.ar    1  UNL1        0.0606
     20 S          -4.9668  -19.4547   22.2634 S.2     1  UNL1       -0.0658
     21 C          -5.4659  -19.1220   20.8885 C.ar    1  UNL1        0.1109
     22 N          -4.3209  -18.5518   20.1051 N.ar    1  UNL1       -0.2337
     23 N          -1.3025  -16.6703   21.0350 N.am    1  UNL1       -0.3241
     24 C          -1.7479  -18.0408   20.6187 C.2     1  UNL1        0.2610
     25 O          -0.8272  -18.9199   19.8254 O.2     1  UNL1       -0.2687
     26 H          -0.4059  -16.3478   20.7875 H       1  UNL1        0.1453
     27 H          -1.9069  -16.0933   21.5557 H       1  UNL1        0.1453
@<TRIPOS>BOND
     1    23    24   am
     2    24    25    2
     3    24    18    1
     4    18    19   ar
     5    19    20   ar
     6    20    21   ar
     7    21     1    1
     8     1     2   ar
     9     2     3   ar
    10     3     4   ar
    11     4     5   ar
    12     5     7    1
    13     7     8   ar
    14     8     9   ar
    15     9    10   ar
    16    10    11   ar
    17    11    12   ar
    18    12    13    1
    19    13    14    1
    20    14    15    1
    21    14    16    1
    22    14    17    1
    23     5     6   ar
    24    21    22   ar
    25    22    18   ar
    26     6     1   ar
    27    12     7   ar
    28    23    26    1
    29    23    27    1
@<TRIPOS>MOLECULE
*****
 27 29 0 0 0
SMALL
GASTEIGER

@<TRIPOS>ATOM
      1 C          -7.0309  -19.7250   20.1329 C.ar    1  UNL1        0.0238
      2 C          -6.8399  -21.2113   20.0669 C.ar    1  UNL1        0.0020
      3 C          -5.4562  -21.7903   20.0642 C.ar    1  UNL1        0.0001
      4 C          -4.2634  -20.8830   20.1276 C.ar    1  UNL1        0.0001
      5 C          -4.4543  -19.3967   20.1936 C.ar    1  UNL1        0.0030
      6 C          -5.8381  -18.8177   20.1963 C.ar    1  UNL1        0.0021
      7 C          -3.2615  -18.4894   20.2570 C.ar    1  UNL1        0.0343
      8 C          -2.1680  -18.6160   19.2381 C.ar    1  UNL1        0.0030
      9 C          -0.9752  -17.7086   19.3015 C.ar    1  UNL1        0.0002
     10 C          -0.8760  -16.6747   20.3837 C.ar    1  UNL1        0.0031
     11 C          -1.9695  -16.5481   21.4025 C.ar    1  UNL1        0.0372
     12 C          -3.1623  -17.4555   21.3391 C.ar    1  UNL1        0.1467
     13 O          -4.2559  -17.3288   22.3580 O.3     1  UNL1       -0.4045
     14 C          -3.9696  -17.6063   23.8040 C.3     1  UNL1        0.5753
     15 F          -3.6833  -17.8838   25.2501 F       1  UNL1       -0.1328
     16 F          -4.3487  -16.1968   24.1496 F       1  UNL1       -0.1328
     17 F          -3.5905  -19.0158   23.4584 F       1  UNL1       -0.1328
     18 C         -10.3221  -17.7268   20.6237 C.ar    1  UNL1        0.1412
     19 C         -10.7659  -18.7831   19.6555 C.ar    1  UNL1        0.0606
     20 S          -9.5870  -19.6601   19.3538 S.2     1  UNL1       -0.0658
     21 C          -8.4146  -19.1460   20.1356 C.ar    1  UNL1        0.1109
     22 N          -8.8689  -17.9511   20.9204 N.ar    1  UNL1       -0.2337
     23 N         -10.7037  -15.8497   22.3789 N.am    1  UNL1       -0.3241
     24 C         -11.1807  -16.6376   21.1950 C.2     1  UNL1        0.2610
     25 O         -12.5162  -16.3362   20.5823 O.2     1  UNL1       -0.2687
     26 H         -11.2672  -15.1348   22.7538 H       1  UNL1        0.1453
     27 H          -9.8271  -16.0475   22.7811 H       1  UNL1        0.1453
@<TRIPOS>BOND
     1    23    24   am
     2    24    25    2
     3    24    18    1
     4    18    19   ar
     5    19    20   ar
     6    20    21   ar
     7    21     1    1
     8     1     2   ar
     9     2     3   ar
    10     3     4   ar
    11     4     5   ar
    12     5     7    1
    13     7     8   ar
    14     8     9   ar
    15     9    10   ar
    16    10    11   ar
    17    11    12   ar
    18    12    13    1
    19    13    14    1
    20    14    15    1
    21    14    16    1
    22    14    17    1
    23     5     6   ar
    24    21    22   ar
    25    22    18   ar
    26     6     1   ar
    27    12     7   ar
    28    23    26    1
    29    23    27    1
@<TRIPOS>MOLECULE
*****
 27 29 0 0 0
SMALL
GASTEIGER

@<TRIPOS>ATOM
      1 C         -10.1680  -18.5321   21.4576 C.ar    1  UNL1        0.0238
      2 C         -10.3175  -19.1553   20.1014 C.ar    1  UNL1        0.0020
      3 C          -9.1047  -19.6243   19.3537 C.ar    1  UNL1        0.0001
      4 C          -7.7423  -19.4700   19.9621 C.ar    1  UNL1        0.0001
      5 C          -7.5928  -18.8468   21.3183 C.ar    1  UNL1        0.0030
      6 C          -8.8056  -18.3778   22.0660 C.ar    1  UNL1        0.0021
      7 C          -6.2304  -18.6925   21.9267 C.ar    1  UNL1        0.0343
      8 C          -5.1871  -19.7475   21.7070 C.ar    1  UNL1        0.0030
      9 C          -3.8247  -19.5932   22.3154 C.ar    1  UNL1        0.0002
     10 C          -3.5057  -18.3840   23.1436 C.ar    1  UNL1        0.0031
     11 C          -4.5491  -17.3290   23.3633 C.ar    1  UNL1        0.0372
     12 C          -5.9115  -17.4833   22.7549 C.ar    1  UNL1        0.1467
     13 O          -6.9549  -16.4282   22.9747 O.3     1  UNL1       -0.4045
     14 C          -7.0995  -15.7856   24.3223 C.3     1  UNL1        0.5753
     15 F          -7.2442  -15.1431   25.6700 F       1  UNL1       -0.1328
     16 F          -8.1484  -16.7929   24.6900 F       1  UNL1       -0.1328
     17 F          -6.0506  -14.7784   23.9546 F       1  UNL1       -0.1328
     18 C         -13.3047  -18.0133   23.6840 C.ar    1  UNL1        0.1412
     19 C         -13.1895  -16.6693   23.0279 C.ar    1  UNL1        0.0606
     20 S         -12.0005  -16.7001   22.1141 S.2     1  UNL1       -0.0658
     21 C         -11.3808  -18.0631   22.2053 C.ar    1  UNL1        0.1109
     22 N         -12.1869  -18.8747   23.1756 N.ar    1  UNL1       -0.2337
     23 N         -14.0349  -18.4421   26.1403 N.am    1  UNL1       -0.3241
     24 C         -14.3536  -18.4238   24.6746 C.2     1  UNL1        0.2610
     25 O         -15.7213  -18.8161   24.1996 O.2     1  UNL1       -0.2687
     26 H         -14.7234  -18.7116   26.7904 H       1  UNL1        0.1453
     27 H         -13.1373  -18.1847   26.4521 H       1  UNL1        0.1453
@<TRIPOS>BOND
     1    23    24   am
     2    24    25    2
     3    24    18    1
     4    18    19   ar
     5    19    20   ar
     6    20    21   ar
     7    21     1    1
     8     1     2   ar
     9     2     3   ar
    10     3     4   ar
    11     4     5   ar
    12     5     7    1
    13     7     8   ar
    14     8     9   ar
    15     9    10   ar
    16    10    11   ar
    17    11    12   ar
    18    12    13    1
    19    13    14    1
    20    14    15    1
    21    14    16    1
    22    14    17    1
    23     5     6   ar
    24    21    22   ar
    25    22    18   ar
    26     6     1   ar
    27    12     7   ar
    28    23    26    1
    29    23    27    1
@<TRIPOS>MOLECULE
*****
 27 29 0 0 0
SMALL
GASTEIGER

@<TRIPOS>ATOM
      1 C          -6.9897  -19.5727   20.1336 C.ar    1  UNL1        0.0238
      2 C          -7.4027  -20.4858   19.0176 C.ar    1  UNL1        0.0020
      3 C          -8.8528  -20.6252   18.6603 C.ar    1  UNL1        0.0001
      4 C          -9.8899  -19.8513   19.4190 C.ar    1  UNL1        0.0001
      5 C          -9.4769  -18.9382   20.5351 C.ar    1  UNL1        0.0030
      6 C          -8.0267  -18.7989   20.8923 C.ar    1  UNL1        0.0021
      7 C         -10.5139  -18.1644   21.2938 C.ar    1  UNL1        0.0343
      8 C         -11.9649  -18.3116   20.9433 C.ar    1  UNL1        0.0030
      9 C         -13.0020  -17.5378   21.7020 C.ar    1  UNL1        0.0002
     10 C         -12.5881  -16.6167   22.8112 C.ar    1  UNL1        0.0031
     11 C         -11.1371  -16.4695   23.1617 C.ar    1  UNL1        0.0372
     12 C         -10.1000  -17.2434   22.4030 C.ar    1  UNL1        0.1467
     13 O          -8.6490  -17.0961   22.7535 O.3     1  UNL1       -0.4045
     14 C          -8.1514  -15.8213   23.3677 C.3     1  UNL1        0.5753
     15 F          -7.6538  -14.5465   23.9819 F       1  UNL1       -0.1328
     16 F          -8.1333  -15.1760   22.0138 F       1  UNL1       -0.1328
     17 F          -8.1694  -16.4667   24.7216 F       1  UNL1       -0.1328
     18 C          -3.4508  -18.5565   21.3623 C.ar    1  UNL1        0.1412
     19 C          -3.1651  -19.8813   20.7193 C.ar    1  UNL1        0.0606
     20 S          -4.4559  -20.4232   20.1808 S.2     1  UNL1       -0.0658
     21 C          -5.5395  -19.4333   20.4910 C.ar    1  UNL1        0.1109
     22 N          -4.9183  -18.2797   21.2212 N.ar    1  UNL1       -0.2337
     23 N          -1.6700  -18.1632   23.2128 N.am    1  UNL1       -0.3241
     24 C          -2.4456  -17.6651   22.0294 C.2     1  UNL1        0.2610
     25 O          -2.2158  -16.2757   21.5129 O.2     1  UNL1       -0.2687
     26 H          -1.0103  -17.5781   23.6506 H       1  UNL1        0.1453
     27 H          -1.8208  -19.0751   23.5517 H       1  UNL1        0.1453
@<TRIPOS>BOND
     1    23    24   am
     2    24    25    2
     3    24    18    1
     4    18    19   ar
     5    19    20   ar
     6    20    21   ar
     7    21     1    1
     8     1     2   ar
     9     2     3   ar
    10     3     4   ar
    11     4     5   ar
    12     5     7    1
    13     7     8   ar
    14     8     9   ar
    15     9    10   ar
    16    10    11   ar
    17    11    12   ar
    18    12    13    1
    19    13    14    1
    20    14    15    1
    21    14    16    1
    22    14    17    1
    23     5     6   ar
    24    21    22   ar
    25    22    18   ar
    26     6     1   ar
    27    12     7   ar
    28    23    26    1
    29    23    27    1
@<TRIPOS>MOLECULE
*****
 27 29 0 0 0
SMALL
GASTEIGER

@<TRIPOS>ATOM
      1 C          -8.7954  -19.2153   21.9259 C.ar    1  UNL1        0.0238
      2 C          -9.2019  -19.4490   20.5011 C.ar    1  UNL1        0.0020
      3 C          -8.1588  -19.5205   19.4256 C.ar    1  UNL1        0.0001
      4 C          -6.7090  -19.3583   19.7750 C.ar    1  UNL1        0.0001
      5 C          -6.3025  -19.1247   21.1997 C.ar    1  UNL1        0.0030
      6 C          -7.3456  -19.0532   22.2752 C.ar    1  UNL1        0.0021
      7 C          -4.8528  -18.9625   21.5491 C.ar    1  UNL1        0.0343
      8 C          -3.8325  -19.8966   20.9690 C.ar    1  UNL1        0.0030
      9 C          -2.3828  -19.7344   21.3183 C.ar    1  UNL1        0.0002
     10 C          -1.9533  -18.6382   22.2477 C.ar    1  UNL1        0.0031
     11 C          -2.9736  -17.7041   22.8278 C.ar    1  UNL1        0.0372
     12 C          -4.4233  -17.8663   22.4784 C.ar    1  UNL1        0.1467
     13 O          -5.4436  -16.9321   23.0585 O.3     1  UNL1       -0.4045
     14 C          -5.0699  -16.0235   24.1920 C.3     1  UNL1        0.5753
     15 F          -4.6962  -15.1148   25.3254 F       1  UNL1       -0.1328
     16 F          -5.5540  -14.8422   23.4045 F       1  UNL1       -0.1328
     17 F          -4.5859  -17.2048   24.9794 F       1  UNL1       -0.1328
     18 C         -11.9368  -18.7633   24.1603 C.ar    1  UNL1        0.1412
     19 C         -10.9506  -19.3042   25.1528 C.ar    1  UNL1        0.0606
     20 S          -9.6539  -19.5394   24.4365 S.2     1  UNL1       -0.0658
     21 C          -9.8385  -19.1438   23.0014 C.ar    1  UNL1        0.1109
     22 N         -11.2495  -18.6641   22.8307 N.ar    1  UNL1       -0.2337
     23 N         -13.9150  -18.5510   25.8312 N.am    1  UNL1       -0.3241
     24 C         -13.3604  -18.3875   24.4471 C.2     1  UNL1        0.2610
     25 O         -14.2293  -17.8481   23.3499 O.2     1  UNL1       -0.2687
     26 H         -14.8493  -18.3044   26.0194 H       1  UNL1        0.1453
     27 H         -13.3447  -18.9051   26.5513 H       1  UNL1        0.1453
@<TRIPOS>BOND
     1    23    24   am
     2    24    25    2
     3    24    18    1
     4    18    19   ar
     5    19    20   ar
     6    20    21   ar
     7    21     1    1
     8     1     2   ar
     9     2     3   ar
    10     3     4   ar
    11     4     5   ar
    12     5     7    1
    13     7     8   ar
    14     8     9   ar
    15     9    10   ar
    16    10    11   ar
    17    11    12   ar
    18    12    13    1
    19    13    14    1
    20    14    15    1
    21    14    16    1
    22    14    17    1
    23     5     6   ar
    24    21    22   ar
    25    22    18   ar
    26     6     1   ar
    27    12     7   ar
    28    23    26    1
    29    23    27    1
@<TRIPOS>MOLECULE
*****
 27 29 0 0 0
SMALL
GASTEIGER

@<TRIPOS>ATOM
      1 C         -10.0580  -18.3602   21.7271 C.ar    1  UNL1        0.0238
      2 C         -10.0572  -19.1076   20.4266 C.ar    1  UNL1        0.0020
      3 C          -8.7578  -19.4953   19.7852 C.ar    1  UNL1        0.0001
      4 C          -7.4593  -19.1356   20.4443 C.ar    1  UNL1        0.0001
      5 C          -7.4601  -18.3882   21.7448 C.ar    1  UNL1        0.0030
      6 C          -8.7595  -18.0005   22.3862 C.ar    1  UNL1        0.0021
      7 C          -6.1616  -18.0285   22.4040 C.ar    1  UNL1        0.0343
      8 C          -6.1319  -16.9887   23.4847 C.ar    1  UNL1        0.0030
      9 C          -4.8333  -16.6290   24.1438 C.ar    1  UNL1        0.0002
     10 C          -3.5646  -17.3090   23.7222 C.ar    1  UNL1        0.0031
     11 C          -3.5944  -18.3488   22.6415 C.ar    1  UNL1        0.0372
     12 C          -4.8929  -18.7085   21.9824 C.ar    1  UNL1        0.1467
     13 O          -4.9226  -19.7483   20.9016 O.3     1  UNL1       -0.4045
     14 C          -3.8863  -19.7329   19.8173 C.3     1  UNL1        0.5753
     15 F          -2.8499  -19.7174   18.7330 F       1  UNL1       -0.1328
     16 F          -4.5823  -18.5733   19.1686 F       1  UNL1       -0.1328
     17 F          -3.1903  -20.8925   20.4660 F       1  UNL1       -0.1328
     18 C         -13.3440  -18.0058   23.7623 C.ar    1  UNL1        0.1412
     19 C         -13.3696  -16.7458   22.9488 C.ar    1  UNL1        0.0606
     20 S         -12.1418  -16.7253   22.0874 S.2     1  UNL1       -0.0658
     21 C         -11.3574  -17.9725   22.3685 C.ar    1  UNL1        0.1109
     22 N         -12.1004  -18.7639   23.4037 N.ar    1  UNL1       -0.2337
     23 N         -14.0468  -18.4620   26.2216 N.am    1  UNL1       -0.3241
     24 C         -14.3801  -18.4328   24.7594 C.2     1  UNL1        0.2610
     25 O         -15.7496  -18.8305   24.2943 O.2     1  UNL1       -0.2687
     26 H         -14.7268  -18.7422   26.8760 H       1  UNL1        0.1453
     27 H         -13.1480  -18.2009   26.5269 H       1  UNL1        0.1453
@<TRIPOS>BOND
     1    23    24   am
     2    24    25    2
     3    24    18    1
     4    18    19   ar
     5    19    20   ar
     6    20    21   ar
     7    21     1    1
     8     1     2   ar
     9     2     3   ar
    10     3     4   ar
    11     4     5   ar
    12     5     7    1
    13     7     8   ar
    14     8     9   ar
    15     9    10   ar
    16    10    11   ar
    17    11    12   ar
    18    12    13    1
    19    13    14    1
    20    14    15    1
    21    14    16    1
    22    14    17    1
    23     5     6   ar
    24    21    22   ar
    25    22    18   ar
    26     6     1   ar
    27    12     7   ar
    28    23    26    1
    29    23    27    1
@<TRIPOS>MOLECULE
*****
 27 29 0 0 0
SMALL
GASTEIGER

@<TRIPOS>ATOM
      1 C          -6.7887  -19.2129   21.3286 C.ar    1  UNL1        0.0238
      2 C          -6.9863  -20.6260   20.8658 C.ar    1  UNL1        0.0020
      3 C          -5.8639  -21.3583   20.1921 C.ar    1  UNL1        0.0001
      4 C          -4.5440  -20.6776   19.9812 C.ar    1  UNL1        0.0001
      5 C          -4.3465  -19.2646   20.4440 C.ar    1  UNL1        0.0030
      6 C          -5.4688  -18.5322   21.1177 C.ar    1  UNL1        0.0021
      7 C          -3.0265  -18.5839   20.2331 C.ar    1  UNL1        0.0343
      8 C          -2.4753  -18.4296   18.8467 C.ar    1  UNL1        0.0030
      9 C          -1.1553  -17.7489   18.6358 C.ar    1  UNL1        0.0002
     10 C          -0.3867  -17.2225   19.8114 C.ar    1  UNL1        0.0031
     11 C          -0.9380  -17.3767   21.1978 C.ar    1  UNL1        0.0372
     12 C          -2.2579  -18.0574   21.4087 C.ar    1  UNL1        0.1467
     13 O          -2.8091  -18.2117   22.7952 O.3     1  UNL1       -0.4045
     14 C          -3.5747  -17.0872   23.4273 C.3     1  UNL1        0.5753
     15 F          -4.3403  -15.9627   24.0594 F       1  UNL1       -0.1328
     16 F          -3.2774  -16.2182   22.2414 F       1  UNL1       -0.1328
     17 F          -3.8719  -17.9563   24.6132 F       1  UNL1       -0.1328
     18 C          -9.9933  -18.0038   23.1547 C.ar    1  UNL1        0.1412
     19 C          -9.2832  -16.7029   22.9233 C.ar    1  UNL1        0.0606
     20 S          -7.9964  -16.9975   22.2111 S.2     1  UNL1       -0.0658
     21 C          -7.9112  -18.4805   22.0023 C.ar    1  UNL1        0.1109
     22 N          -9.1453  -19.1024   22.5854 N.ar    1  UNL1       -0.2337
     23 N         -11.4213  -19.0124   25.0765 N.am    1  UNL1       -0.3241
     24 C         -11.3187  -18.1759   23.8357 C.2     1  UNL1        0.2610
     25 O         -12.5414  -17.5115   23.2759 O.2     1  UNL1       -0.2687
     26 H         -12.2912  -19.1254   25.5235 H       1  UNL1        0.1453
     27 H         -10.6188  -19.4485   25.4439 H       1  UNL1        0.1453
@<TRIPOS>BOND
     1    23    24   am
     2    24    25    2
     3    24    18    1
     4    18    19   ar
     5    19    20   ar
     6    20    21   ar
     7    21     1    1
     8     1     2   ar
     9     2     3   ar
    10     3     4   ar
    11     4     5   ar
    12     5     7    1
    13     7     8   ar
    14     8     9   ar
    15     9    10   ar
    16    10    11   ar
    17    11    12   ar
    18    12    13    1
    19    13    14    1
    20    14    15    1
    21    14    16    1
    22    14    17    1
    23     5     6   ar
    24    21    22   ar
    25    22    18   ar
    26     6     1   ar
    27    12     7   ar
    28    23    26    1
    29    23    27    1
