@<TRIPOS>MOLECULE
*****
 28 32 0 0 0
SMALL
GASTEIGER

@<TRIPOS>ATOM
      1 O           6.8973   -2.3917   17.4289 O.2     1  UNL1       -0.2443
      2 C           6.0080   -2.3938   18.6369 C.ar    1  UNL1        0.3527
      3 N           6.2877   -3.3330   19.7725 N.ar    1  UNL1       -0.1570
      4 C           5.3984   -3.3351   20.9805 C.ar    1  UNL1        0.2303
      5 C           4.2294   -2.3980   21.0528 C.ar    1  UNL1        0.0751
      6 C           3.9496   -1.4588   19.9171 C.ar    1  UNL1        0.0682
      7 N           4.8389   -1.4567   18.7092 N.ar    1  UNL1       -0.2794
      8 C           4.5592   -0.5175   17.5736 C.3     1  UNL1        0.1152
      9 C           3.3902    0.4195   17.6459 C.3     1  UNL1        0.0510
     10 C           2.5008    0.4175   18.8538 C.ar    1  UNL1       -0.0182
     11 C           1.3318    1.3545   18.9261 C.ar    1  UNL1        0.0041
     12 C           0.4425    1.3524   20.1341 C.ar    1  UNL1        0.0413
     13 C           0.7223    0.4132   21.2697 C.ar    1  UNL1        0.0083
     14 C           1.8913   -0.5238   21.1974 C.ar    1  UNL1        0.0017
     15 C           2.7806   -0.5217   19.9895 C.ar    1  UNL1        0.0122
     16 C          -0.7265    2.2895   20.2064 C.1     1  UNL1       -0.0644
     17 C          -1.8955    3.2266   20.2787 C.1     1  UNL1       -0.0874
     18 C          -3.0646    4.1637   20.3511 C.3     1  UNL1        0.0645
     19 C          -3.8611    5.2943   19.7702 C.3     1  UNL1        0.0140
     20 C          -4.2929    4.6562   21.0572 C.3     1  UNL1        0.0140
     21 O           5.6781   -4.2743   22.1161 O.3     1  UNL1       -0.4574
     22 C           6.9002   -4.0824   22.9644 C.3     1  UNL1        0.2390
     23 C           7.3309   -5.1607   23.9140 C.3     1  UNL1        0.1882
     24 C           7.1395   -4.9800   25.3908 C.3     1  UNL1        0.1755
     25 O           7.5702   -6.0583   26.3404 O.3     1  UNL1       -0.3484
     26 C           8.1924   -7.3173   25.8132 C.3     1  UNL1        0.1742
     27 C           8.3838   -7.4980   24.3365 C.3     1  UNL1        0.1743
     28 O           7.9531   -6.4196   23.3869 O.3     1  UNL1       -0.3472
@<TRIPOS>BOND
     1     1     2    2
     2     2     3   ar
     3     3     4   ar
     4     4    21    1
     5    21    22    1
     6    23    22    1
     7    23    24    1
     8    24    25    1
     9    25    26    1
    10    26    27    1
    11    27    28    1
    12     4     5   ar
    13     5     6   ar
    14     6     7   ar
    15     7     8    1
    16     8     9    1
    17     9    10    1
    18    10    11   ar
    19    11    12   ar
    20    12    16    1
    21    16    17    3
    22    17    18    1
    23    18    19    1
    24    19    20    1
    25    12    13   ar
    26    13    14   ar
    27    14    15   ar
    28     7     2   ar
    29    15    10   ar
    30    28    23    1
    31    15     6    1
    32    20    18    1
@<TRIPOS>MOLECULE
*****
 28 32 0 0 0
SMALL
GASTEIGER

@<TRIPOS>ATOM
      1 O           8.5534   -8.0824   26.1229 O.2     1  UNL1       -0.2443
      2 C           7.9449   -6.7115   26.1401 C.ar    1  UNL1        0.3527
      3 N           7.6135   -6.0218   24.8499 N.ar    1  UNL1       -0.1570
      4 C           7.0050   -4.6508   24.8672 C.ar    1  UNL1        0.2303
      5 C           6.7281   -3.9696   26.1745 C.ar    1  UNL1        0.0751
      6 C           7.0595   -4.6592   27.4647 C.ar    1  UNL1        0.0682
      7 N           7.6680   -6.0302   27.4475 N.ar    1  UNL1       -0.2794
      8 C           7.9994   -6.7198   28.7376 C.3     1  UNL1        0.1152
      9 C           7.7225   -6.0386   30.0449 C.3     1  UNL1        0.0510
     10 C           7.1140   -4.6676   30.0622 C.ar    1  UNL1       -0.0182
     11 C           6.8371   -3.9864   31.3695 C.ar    1  UNL1        0.0041
     12 C           6.2286   -2.6155   31.3867 C.ar    1  UNL1        0.0413
     13 C           5.8972   -1.9258   30.0966 C.ar    1  UNL1        0.0083
     14 C           6.1741   -2.6070   28.7892 C.ar    1  UNL1        0.0017
     15 C           6.7825   -3.9779   28.7720 C.ar    1  UNL1        0.0122
     16 C           5.9516   -1.9341   32.6941 C.1     1  UNL1       -0.0644
     17 C           5.6747   -1.2529   34.0014 C.1     1  UNL1       -0.0874
     18 C           5.3977   -0.5716   35.3088 C.3     1  UNL1        0.0645
     19 C           5.8656   -0.1058   36.6557 C.3     1  UNL1        0.0140
     20 C           4.4501    0.1427   36.2262 C.3     1  UNL1        0.0140
     21 O           6.6735   -3.9611   23.5770 O.3     1  UNL1       -0.4574
     22 C           5.2561   -3.5730   23.2767 C.3     1  UNL1        0.2390
     23 C           4.7842   -3.4983   21.8548 C.3     1  UNL1        0.1882
     24 C           4.7894   -2.1844   21.1310 C.3     1  UNL1        0.1755
     25 O           4.3175   -2.1096   19.7091 O.3     1  UNL1       -0.3484
     26 C           3.8404   -3.3487   19.0111 C.3     1  UNL1        0.1742
     27 C           3.8353   -4.6625   19.7349 C.3     1  UNL1        0.1743
     28 O           4.3072   -4.7372   21.1567 O.3     1  UNL1       -0.3472
@<TRIPOS>BOND
     1     1     2    2
     2     2     3   ar
     3     3     4   ar
     4     4    21    1
     5    21    22    1
     6    23    22    1
     7    23    24    1
     8    24    25    1
     9    25    26    1
    10    26    27    1
    11    27    28    1
    12     4     5   ar
    13     5     6   ar
    14     6     7   ar
    15     7     8    1
    16     8     9    1
    17     9    10    1
    18    10    11   ar
    19    11    12   ar
    20    12    16    1
    21    16    17    3
    22    17    18    1
    23    18    19    1
    24    19    20    1
    25    12    13   ar
    26    13    14   ar
    27    14    15   ar
    28     7     2   ar
    29    15    10   ar
    30    28    23    1
    31    15     6    1
    32    20    18    1
@<TRIPOS>MOLECULE
*****
 28 32 0 0 0
SMALL
GASTEIGER

@<TRIPOS>ATOM
      1 O           3.9061   -1.0262   16.2185 O.2     1  UNL1       -0.2443
      2 C           3.5093   -0.7785   17.6437 C.ar    1  UNL1        0.3527
      3 N           2.4453    0.2300   17.9615 N.ar    1  UNL1       -0.1570
      4 C           2.0485    0.4777   19.3868 C.ar    1  UNL1        0.2303
      5 C           2.7157   -0.2830   20.4941 C.ar    1  UNL1        0.0751
      6 C           3.7796   -1.2915   20.1763 C.ar    1  UNL1        0.0682
      7 N           4.1764   -1.5392   18.7511 N.ar    1  UNL1       -0.2794
      8 C           5.2404   -2.5477   18.4333 C.3     1  UNL1        0.1152
      9 C           5.9075   -3.3084   19.5406 C.3     1  UNL1        0.0510
     10 C           5.5107   -3.0606   20.9658 C.ar    1  UNL1       -0.0182
     11 C           6.1779   -3.8213   22.0731 C.ar    1  UNL1        0.0041
     12 C           5.7811   -3.5736   23.4983 C.ar    1  UNL1        0.0413
     13 C           4.7171   -2.5652   23.8161 C.ar    1  UNL1        0.0083
     14 C           4.0500   -1.8044   22.7088 C.ar    1  UNL1        0.0017
     15 C           4.4468   -2.0522   21.2837 C.ar    1  UNL1        0.0122
     16 C           6.4482   -4.3343   24.6057 C.1     1  UNL1       -0.0644
     17 C           7.1154   -5.0950   25.7131 C.1     1  UNL1       -0.0874
     18 C           7.7826   -5.8557   26.8205 C.3     1  UNL1        0.0645
     19 C           7.8533   -6.2516   28.2655 C.3     1  UNL1        0.0140
     20 C           8.8674   -6.7773   27.2934 C.3     1  UNL1        0.0140
     21 O           0.9846    1.4861   19.7046 O.3     1  UNL1       -0.4574
     22 C           0.6956    1.8471   21.1316 C.3     1  UNL1        0.2390
     23 C          -0.5877    2.5387   21.4852 C.3     1  UNL1        0.1882
     24 C          -0.7407    3.1966   22.8245 C.3     1  UNL1        0.1755
     25 O          -2.0239    3.8882   23.1781 O.3     1  UNL1       -0.3484
     26 C          -3.1541    3.9219   22.1923 C.3     1  UNL1        0.1742
     27 C          -3.0010    3.2640   20.8531 C.3     1  UNL1        0.1743
     28 O          -1.7178    2.5724   20.4995 O.3     1  UNL1       -0.3472
@<TRIPOS>BOND
     1     1     2    2
     2     2     3   ar
     3     3     4   ar
     4     4    21    1
     5    21    22    1
     6    23    22    1
     7    23    24    1
     8    24    25    1
     9    25    26    1
    10    26    27    1
    11    27    28    1
    12     4     5   ar
    13     5     6   ar
    14     6     7   ar
    15     7     8    1
    16     8     9    1
    17     9    10    1
    18    10    11   ar
    19    11    12   ar
    20    12    16    1
    21    16    17    3
    22    17    18    1
    23    18    19    1
    24    19    20    1
    25    12    13   ar
    26    13    14   ar
    27    14    15   ar
    28     7     2   ar
    29    15    10   ar
    30    28    23    1
    31    15     6    1
    32    20    18    1
@<TRIPOS>MOLECULE
*****
 28 32 0 0 0
SMALL
GASTEIGER

@<TRIPOS>ATOM
      1 O           4.5612    0.7869   35.7890 O.2     1  UNL1       -0.2443
      2 C           4.3686    0.0189   34.5150 C.ar    1  UNL1        0.3527
      3 N           5.0567   -1.3001   34.3230 N.ar    1  UNL1       -0.1570
      4 C           4.8641   -2.0680   33.0489 C.ar    1  UNL1        0.2303
      5 C           3.9835   -1.5170   31.9669 C.ar    1  UNL1        0.0751
      6 C           3.2955   -0.1980   32.1589 C.ar    1  UNL1        0.0682
      7 N           3.4880    0.5700   33.4329 N.ar    1  UNL1       -0.2794
      8 C           2.8000    1.8890   33.6248 C.3     1  UNL1        0.1152
      9 C           1.9194    2.4400   32.5428 C.3     1  UNL1        0.0510
     10 C           1.7268    1.6721   31.2687 C.ar    1  UNL1       -0.0182
     11 C           0.8463    2.2232   30.1867 C.ar    1  UNL1        0.0041
     12 C           0.6537    1.4552   28.9127 C.ar    1  UNL1        0.0413
     13 C           1.3417    0.1362   28.7207 C.ar    1  UNL1        0.0083
     14 C           2.2223   -0.4148   29.8027 C.ar    1  UNL1        0.0017
     15 C           2.4149    0.3531   31.0767 C.ar    1  UNL1        0.0122
     16 C          -0.2269    2.0063   27.8305 C.1     1  UNL1       -0.0644
     17 C          -1.1075    2.5573   26.7484 C.1     1  UNL1       -0.0874
     18 C          -1.9881    3.1083   25.6663 C.3     1  UNL1        0.0645
     19 C          -2.1693    3.5843   24.2554 C.3     1  UNL1        0.0140
     20 C          -3.3321    3.5868   25.2030 C.3     1  UNL1        0.0140
     21 O           5.5521   -3.3870   32.8570 O.3     1  UNL1       -0.4574
     22 C           6.8008   -3.4682   32.0298 C.3     1  UNL1        0.2390
     23 C           6.7086   -3.7355   30.5567 C.3     1  UNL1        0.1882
     24 C           6.6966   -2.5917   29.5863 C.3     1  UNL1        0.1755
     25 O           6.6044   -2.8590   28.1132 O.3     1  UNL1       -0.3484
     26 C           6.5241   -4.2700   27.6105 C.3     1  UNL1        0.1742
     27 C           6.5360   -5.4137   28.5809 C.3     1  UNL1        0.1743
     28 O           6.6283   -5.1465   30.0541 O.3     1  UNL1       -0.3472
@<TRIPOS>BOND
     1     1     2    2
     2     2     3   ar
     3     3     4   ar
     4     4    21    1
     5    21    22    1
     6    23    22    1
     7    23    24    1
     8    24    25    1
     9    25    26    1
    10    26    27    1
    11    27    28    1
    12     4     5   ar
    13     5     6   ar
    14     6     7   ar
    15     7     8    1
    16     8     9    1
    17     9    10    1
    18    10    11   ar
    19    11    12   ar
    20    12    16    1
    21    16    17    3
    22    17    18    1
    23    18    19    1
    24    19    20    1
    25    12    13   ar
    26    13    14   ar
    27    14    15   ar
    28     7     2   ar
    29    15    10   ar
    30    28    23    1
    31    15     6    1
    32    20    18    1
@<TRIPOS>MOLECULE
*****
 28 32 0 0 0
SMALL
GASTEIGER

@<TRIPOS>ATOM
      1 O           5.4503   -3.0538   17.7243 O.2     1  UNL1       -0.2443
      2 C           5.5073   -2.8789   19.2130 C.ar    1  UNL1        0.3527
      3 N           6.5969   -3.5393   20.0046 N.ar    1  UNL1       -0.1570
      4 C           6.6538   -3.3643   21.4933 C.ar    1  UNL1        0.2303
      5 C           5.6212   -2.5290   22.1903 C.ar    1  UNL1        0.0751
      6 C           4.5316   -1.8686   21.3987 C.ar    1  UNL1        0.0682
      7 N           4.4746   -2.0435   19.9101 N.ar    1  UNL1       -0.2794
      8 C           3.3850   -1.3831   19.1184 C.3     1  UNL1        0.1152
      9 C           2.3524   -0.5478   19.8154 C.3     1  UNL1        0.0510
     10 C           2.4093   -0.3728   21.3042 C.ar    1  UNL1       -0.0182
     11 C           1.3767    0.4625   22.0012 C.ar    1  UNL1        0.0041
     12 C           1.4337    0.6374   23.4898 C.ar    1  UNL1        0.0413
     13 C           2.5233   -0.0230   24.2814 C.ar    1  UNL1        0.0083
     14 C           3.5559   -0.8583   23.5844 C.ar    1  UNL1        0.0017
     15 C           3.4989   -1.0332   22.0958 C.ar    1  UNL1        0.0122
     16 C           0.4010    1.4728   24.1869 C.1     1  UNL1       -0.0644
     17 C          -0.6315    2.3081   24.8840 C.1     1  UNL1       -0.0874
     18 C          -1.6642    3.1435   25.5811 C.3     1  UNL1        0.0645
     19 C          -2.0900    3.9642   26.7623 C.3     1  UNL1        0.0140
     20 C          -3.0270    3.7697   25.6072 C.3     1  UNL1        0.0140
     21 O           7.7434   -4.0247   22.2850 O.3     1  UNL1       -0.4574
     22 C           7.7377   -3.9422   23.7826 C.3     1  UNL1        0.2390
     23 C           7.5682   -5.1874   24.6017 C.3     1  UNL1        0.1882
     24 C           8.0840   -6.4990   24.0881 C.3     1  UNL1        0.1755
     25 O           7.9145   -7.7441   24.9071 O.3     1  UNL1       -0.3484
     26 C           7.2292   -7.6777   26.2398 C.3     1  UNL1        0.1742
     27 C           6.7135   -6.3661   26.7534 C.3     1  UNL1        0.1743
     28 O           6.8830   -5.1210   25.9344 O.3     1  UNL1       -0.3472
@<TRIPOS>BOND
     1     1     2    2
     2     2     3   ar
     3     3     4   ar
     4     4    21    1
     5    21    22    1
     6    23    22    1
     7    23    24    1
     8    24    25    1
     9    25    26    1
    10    26    27    1
    11    27    28    1
    12     4     5   ar
    13     5     6   ar
    14     6     7   ar
    15     7     8    1
    16     8     9    1
    17     9    10    1
    18    10    11   ar
    19    11    12   ar
    20    12    16    1
    21    16    17    3
    22    17    18    1
    23    18    19    1
    24    19    20    1
    25    12    13   ar
    26    13    14   ar
    27    14    15   ar
    28     7     2   ar
    29    15    10   ar
    30    28    23    1
    31    15     6    1
    32    20    18    1
@<TRIPOS>MOLECULE
*****
 28 32 0 0 0
SMALL
GASTEIGER

@<TRIPOS>ATOM
      1 O          -0.4376    1.9794   20.3102 O.2     1  UNL1       -0.2443
      2 C           0.2003    1.7081   21.6404 C.ar    1  UNL1        0.3527
      3 N          -0.2072    2.5049   22.8441 N.ar    1  UNL1       -0.1570
      4 C           0.4308    2.2336   24.1743 C.ar    1  UNL1        0.2303
      5 C           1.4763    1.1655   24.3007 C.ar    1  UNL1        0.0751
      6 C           1.8838    0.3686   23.0970 C.ar    1  UNL1        0.0682
      7 N           1.2459    0.6399   21.7668 N.ar    1  UNL1       -0.2794
      8 C           1.6534   -0.1569   20.5631 C.3     1  UNL1        0.1152
      9 C           2.6989   -1.2250   20.6895 C.3     1  UNL1        0.0510
     10 C           3.3369   -1.4964   22.0197 C.ar    1  UNL1       -0.0182
     11 C           4.3824   -2.5645   22.1462 C.ar    1  UNL1        0.0041
     12 C           5.0203   -2.8358   23.4763 C.ar    1  UNL1        0.0413
     13 C           4.6128   -2.0390   24.6801 C.ar    1  UNL1        0.0083
     14 C           3.5673   -0.9709   24.5536 C.ar    1  UNL1        0.0017
     15 C           2.9294   -0.6996   23.2235 C.ar    1  UNL1        0.0122
     16 C           6.0658   -3.9040   23.6028 C.1     1  UNL1       -0.0644
     17 C           7.1113   -4.9721   23.7292 C.1     1  UNL1       -0.0874
     18 C           8.1569   -6.0403   23.8557 C.3     1  UNL1        0.0645
     19 C           9.2908   -6.8246   23.2649 C.3     1  UNL1        0.0140
     20 C           8.8338   -7.1060   24.6656 C.3     1  UNL1        0.0140
     21 O           0.0233    3.0304   25.3781 O.3     1  UNL1       -0.4574
     22 C          -0.7992    2.3912   26.4573 C.3     1  UNL1        0.2390
     23 C          -0.1373    1.5395   27.4997 C.3     1  UNL1        0.1882
     24 C          -0.9544    0.5816   28.3151 C.3     1  UNL1        0.1755
     25 O          -0.2925   -0.2701   29.3575 O.3     1  UNL1       -0.3484
     26 C           1.1864   -0.1639   29.5844 C.3     1  UNL1        0.1742
     27 C           2.0034    0.7940   28.7690 C.3     1  UNL1        0.1743
     28 O           1.3416    1.6457   27.7266 O.3     1  UNL1       -0.3472
@<TRIPOS>BOND
     1     1     2    2
     2     2     3   ar
     3     3     4   ar
     4     4    21    1
     5    21    22    1
     6    23    22    1
     7    23    24    1
     8    24    25    1
     9    25    26    1
    10    26    27    1
    11    27    28    1
    12     4     5   ar
    13     5     6   ar
    14     6     7   ar
    15     7     8    1
    16     8     9    1
    17     9    10    1
    18    10    11   ar
    19    11    12   ar
    20    12    16    1
    21    16    17    3
    22    17    18    1
    23    18    19    1
    24    19    20    1
    25    12    13   ar
    26    13    14   ar
    27    14    15   ar
    28     7     2   ar
    29    15    10   ar
    30    28    23    1
    31    15     6    1
    32    20    18    1
@<TRIPOS>MOLECULE
*****
 28 32 0 0 0
SMALL
GASTEIGER

@<TRIPOS>ATOM
      1 O           7.3031    0.6445   16.7120 O.2     1  UNL1       -0.2443
      2 C           6.1926   -0.1381   17.3478 C.ar    1  UNL1        0.3527
      3 N           6.2920   -1.6310   17.4534 N.ar    1  UNL1       -0.1570
      4 C           5.1814   -2.4136   18.0893 C.ar    1  UNL1        0.2303
      5 C           3.9714   -1.7031   18.6195 C.ar    1  UNL1        0.0751
      6 C           3.8720   -0.2102   18.5139 C.ar    1  UNL1        0.0682
      7 N           4.9825    0.5724   17.8781 N.ar    1  UNL1       -0.2794
      8 C           4.8831    2.0653   17.7725 C.3     1  UNL1        0.1152
      9 C           3.6731    2.7758   18.3027 C.3     1  UNL1        0.0510
     10 C           2.5625    1.9932   18.9386 C.ar    1  UNL1       -0.0182
     11 C           1.3525    2.7037   19.4688 C.ar    1  UNL1        0.0041
     12 C           0.2420    1.9211   20.1046 C.ar    1  UNL1        0.0413
     13 C           0.3414    0.4282   20.2102 C.ar    1  UNL1        0.0083
     14 C           1.5514   -0.2823   19.6800 C.ar    1  UNL1        0.0017
     15 C           2.6619    0.5003   19.0442 C.ar    1  UNL1        0.0122
     16 C          -0.9681    2.6316   20.6349 C.1     1  UNL1       -0.0644
     17 C          -2.1781    3.3419   21.1651 C.1     1  UNL1       -0.0874
     18 C          -3.3882    4.0524   21.6953 C.3     1  UNL1        0.0645
     19 C          -4.5570    4.1038   22.6341 C.3     1  UNL1        0.0140
     20 C          -4.3153    5.2314   21.6749 C.3     1  UNL1        0.0140
     21 O           5.2809   -3.9065   18.1949 O.3     1  UNL1       -0.4574
     22 C           4.7624   -4.6083   19.4149 C.3     1  UNL1        0.2390
     23 C           5.3388   -4.2929   20.7634 C.3     1  UNL1        0.1882
     24 C           4.4430   -3.8214   21.8703 C.3     1  UNL1        0.1755
     25 O           5.0195   -3.5060   23.2187 O.3     1  UNL1       -0.3484
     26 C           6.4917   -3.6622   23.4602 C.3     1  UNL1        0.1742
     27 C           7.3874   -4.1338   22.3533 C.3     1  UNL1        0.1743
     28 O           6.8109   -4.4491   21.0049 O.3     1  UNL1       -0.3472
@<TRIPOS>BOND
     1     1     2    2
     2     2     3   ar
     3     3     4   ar
     4     4    21    1
     5    21    22    1
     6    23    22    1
     7    23    24    1
     8    24    25    1
     9    25    26    1
    10    26    27    1
    11    27    28    1
    12     4     5   ar
    13     5     6   ar
    14     6     7   ar
    15     7     8    1
    16     8     9    1
    17     9    10    1
    18    10    11   ar
    19    11    12   ar
    20    12    16    1
    21    16    17    3
    22    17    18    1
    23    18    19    1
    24    19    20    1
    25    12    13   ar
    26    13    14   ar
    27    14    15   ar
    28     7     2   ar
    29    15    10   ar
    30    28    23    1
    31    15     6    1
    32    20    18    1
@<TRIPOS>MOLECULE
*****
 28 32 0 0 0
SMALL
GASTEIGER

@<TRIPOS>ATOM
      1 O           0.5584    1.1056   18.2349 O.2     1  UNL1       -0.2443
      2 C           0.8930    0.9392   19.6876 C.ar    1  UNL1        0.3527
      3 N           0.1969    1.7778   20.7183 N.ar    1  UNL1       -0.1570
      4 C           0.5315    1.6114   22.1711 C.ar    1  UNL1        0.2303
      5 C           1.5621    0.6065   22.5931 C.ar    1  UNL1        0.0751
      6 C           2.2582   -0.2320   21.5623 C.ar    1  UNL1        0.0682
      7 N           1.9236   -0.0657   20.1096 N.ar    1  UNL1       -0.2794
      8 C           2.6197   -0.9042   19.0789 C.3     1  UNL1        0.1152
      9 C           3.6503   -1.9090   19.5009 C.3     1  UNL1        0.0510
     10 C           3.9849   -2.0754   20.9536 C.ar    1  UNL1       -0.0182
     11 C           5.0155   -3.0802   21.3756 C.ar    1  UNL1        0.0041
     12 C           5.3501   -3.2466   22.8283 C.ar    1  UNL1        0.0413
     13 C           4.6540   -2.4080   23.8590 C.ar    1  UNL1        0.0083
     14 C           3.6234   -1.4032   23.4370 C.ar    1  UNL1        0.0017
     15 C           3.2888   -1.2369   21.9843 C.ar    1  UNL1        0.0122
     16 C           6.3807   -4.2514   23.2503 C.1     1  UNL1       -0.0644
     17 C           7.4113   -5.2563   23.6723 C.1     1  UNL1       -0.0874
     18 C           8.4420   -6.2611   24.0944 C.3     1  UNL1        0.0645
     19 C           9.1446   -7.5691   23.8813 C.3     1  UNL1        0.0140
     20 C           9.5244   -6.6936   25.0385 C.3     1  UNL1        0.0140
     21 O          -0.1645    2.4499   23.2018 O.3     1  UNL1       -0.4574
     22 C          -0.9048    3.6868   22.7871 C.3     1  UNL1        0.2390
     23 C          -2.3916    3.6417   22.5938 C.3     1  UNL1        0.1882
     24 C          -3.3060    4.0395   23.7145 C.3     1  UNL1        0.1755
     25 O          -4.7928    3.9944   23.5212 O.3     1  UNL1       -0.3484
     26 C          -5.3652    3.5515   22.2073 C.3     1  UNL1        0.1742
     27 C          -4.4508    3.1537   21.0868 C.3     1  UNL1        0.1743
     28 O          -2.9640    3.1988   21.2800 O.3     1  UNL1       -0.3472
@<TRIPOS>BOND
     1     1     2    2
     2     2     3   ar
     3     3     4   ar
     4     4    21    1
     5    21    22    1
     6    23    22    1
     7    23    24    1
     8    24    25    1
     9    25    26    1
    10    26    27    1
    11    27    28    1
    12     4     5   ar
    13     5     6   ar
    14     6     7   ar
    15     7     8    1
    16     8     9    1
    17     9    10    1
    18    10    11   ar
    19    11    12   ar
    20    12    16    1
    21    16    17    3
    22    17    18    1
    23    18    19    1
    24    19    20    1
    25    12    13   ar
    26    13    14   ar
    27    14    15   ar
    28     7     2   ar
    29    15    10   ar
    30    28    23    1
    31    15     6    1
    32    20    18    1
@<TRIPOS>MOLECULE
*****
 28 32 0 0 0
SMALL
GASTEIGER

@<TRIPOS>ATOM
      1 O           6.8571   -2.4790   17.5103 O.2     1  UNL1       -0.2443
      2 C           5.9501   -2.4579   18.7049 C.ar    1  UNL1        0.3527
      3 N           6.2058   -3.3835   19.8572 N.ar    1  UNL1       -0.1570
      4 C           5.2987   -3.3624   21.0517 C.ar    1  UNL1        0.2303
      5 C           4.1361   -2.4156   21.0939 C.ar    1  UNL1        0.0751
      6 C           3.8804   -1.4900   19.9416 C.ar    1  UNL1        0.0682
      7 N           4.7874   -1.5111   18.7471 N.ar    1  UNL1       -0.2794
      8 C           4.5317   -0.5854   17.5948 C.3     1  UNL1        0.1152
      9 C           3.3690    0.3613   17.6370 C.3     1  UNL1        0.0510
     10 C           2.4620    0.3825   18.8316 C.ar    1  UNL1       -0.0182
     11 C           1.2994    1.3293   18.8738 C.ar    1  UNL1        0.0041
     12 C           0.3924    1.3504   20.0683 C.ar    1  UNL1        0.0413
     13 C           0.6481    0.4248   21.2206 C.ar    1  UNL1        0.0083
     14 C           1.8107   -0.5220   21.1784 C.ar    1  UNL1        0.0017
     15 C           2.7177   -0.5431   19.9839 C.ar    1  UNL1        0.0122
     16 C          -0.7703    2.2972   20.1105 C.1     1  UNL1       -0.0644
     17 C          -1.9330    3.2440   20.1528 C.1     1  UNL1       -0.0874
     18 C          -3.0957    4.1908   20.1951 C.3     1  UNL1        0.0645
     19 C          -4.5184    4.4851   20.5682 C.3     1  UNL1        0.0140
     20 C          -3.6868    5.5364   19.8951 C.3     1  UNL1        0.0140
     21 O           5.5544   -4.2880   22.2040 O.3     1  UNL1       -0.4574
     22 C           6.6007   -3.9460   23.2229 C.3     1  UNL1        0.2390
     23 C           6.2034   -3.3077   24.5208 C.3     1  UNL1        0.1882
     24 C           6.9249   -3.6681   25.7857 C.3     1  UNL1        0.1755
     25 O           6.5276   -3.0297   27.0836 O.3     1  UNL1       -0.3484
     26 C           5.4088   -2.0311   27.1168 C.3     1  UNL1        0.1742
     27 C           4.6874   -1.6707   25.8520 C.3     1  UNL1        0.1743
     28 O           5.0847   -2.3091   24.5540 O.3     1  UNL1       -0.3472
@<TRIPOS>BOND
     1     1     2    2
     2     2     3   ar
     3     3     4   ar
     4     4    21    1
     5    21    22    1
     6    23    22    1
     7    23    24    1
     8    24    25    1
     9    25    26    1
    10    26    27    1
    11    27    28    1
    12     4     5   ar
    13     5     6   ar
    14     6     7   ar
    15     7     8    1
    16     8     9    1
    17     9    10    1
    18    10    11   ar
    19    11    12   ar
    20    12    16    1
    21    16    17    3
    22    17    18    1
    23    18    19    1
    24    19    20    1
    25    12    13   ar
    26    13    14   ar
    27    14    15   ar
    28     7     2   ar
    29    15    10   ar
    30    28    23    1
    31    15     6    1
    32    20    18    1
