@<TRIPOS>MOLECULE
*****
 33 37 0 0 0
SMALL
GASTEIGER

@<TRIPOS>ATOM
      1 C          -5.5919  -20.0228   21.0440 C.3     1  UNL1        0.0749
      2 C          -5.0071  -18.9402   21.9017 C.3     1  UNL1        0.0444
      3 C          -3.7262  -18.2726   21.4972 C.ar    1  UNL1       -0.0101
      4 C          -3.0302  -18.6876   20.2349 C.ar    1  UNL1       -0.0091
      5 C          -1.7493  -18.0200   19.8304 C.ar    1  UNL1       -0.0032
      6 C          -1.1644  -16.9373   20.6882 C.ar    1  UNL1        0.0010
      7 C          -1.8604  -16.5223   21.9504 C.ar    1  UNL1        0.0142
      8 C          -3.1413  -17.1899   22.3550 C.ar    1  UNL1        0.0436
      9 C          -3.6151  -19.7703   19.3772 C.3     1  UNL1        0.0954
     10 N          -4.8959  -20.4379   19.7817 N.3     1  UNL1       -0.2934
     11 H          -4.6936  -21.4336   19.8708 H       1  UNL1        0.1236
     12 N          -3.8372  -16.7748   23.6172 N.pl3   1  UNL1       -0.3049
     13 C          -3.6481  -17.5708   24.8745 C.3     1  UNL1        0.1079
     14 C          -4.3441  -17.1558   26.1368 C.3     1  UNL1        0.0903
     15 N          -5.2292  -15.9447   26.1418 N.3     1  UNL1       -0.2946
     16 C          -5.4183  -15.1488   24.8846 C.3     1  UNL1        0.0903
     17 C          -4.7223  -15.5638   23.6223 C.3     1  UNL1        0.1079
     18 H          -4.8500  -15.3057   26.8406 H       1  UNL1        0.1233
     19 C          -6.8728  -20.6905   21.4485 C.3     1  UNL1        0.0885
     20 N          -8.1582  -19.9173   21.4357 N.3     1  UNL1       -0.2692
     21 C          -8.7291  -19.3901   22.7187 C.3     1  UNL1        0.0978
     22 C          -9.3604  -20.3313   23.7014 C.3     1  UNL1        0.0224
     23 C          -9.9313  -19.8041   24.9844 C.3     1  UNL1        0.0065
     24 C          -9.8710  -18.3357   25.2847 C.3     1  UNL1        0.0277
     25 C          -9.2396  -17.3945   24.3020 C.ar    1  UNL1       -0.0073
     26 C          -9.1793  -15.9261   24.6024 C.ar    1  UNL1       -0.0015
     27 C          -8.5480  -14.9850   23.6197 C.ar    1  UNL1        0.0203
     28 C          -7.9771  -15.5122   22.3367 C.ar    1  UNL1        0.0985
     29 N          -8.0374  -16.9805   22.0364 N.ar    1  UNL1       -0.2471
     30 C          -8.6687  -17.9217   23.0190 C.ar    1  UNL1        0.0695
     31 C         -10.3527  -19.4280   20.1339 C.3     1  UNL1        0.0173
     32 C          -8.8726  -19.6714   20.1399 C.3     1  UNL1        0.0579
     33 C          -8.1069  -19.6689   18.8500 C.3     1  UNL1        0.0173
@<TRIPOS>BOND
     1    31    32    1
     2    32    33    1
     3    32    20    1
     4    20    19    1
     5     1    19    1
     6     1     2    1
     7     2     3    1
     8     3     4   ar
     9     4     5   ar
    10     5     6   ar
    11     6     7   ar
    12     7     8   ar
    13     8    12    1
    14    12    13    1
    15    13    14    1
    16    14    15    1
    17    15    16    1
    18    16    17    1
    19     4     9    1
    20     9    10    1
    21    21    20    1
    22    21    22    1
    23    22    23    1
    24    23    24    1
    25    24    25    1
    26    25    26   ar
    27    26    27   ar
    28    27    28   ar
    29    28    29   ar
    30    29    30   ar
    31    10     1    1
    32    30    21    1
    33     8     3   ar
    34    17    12    1
    35    30    25   ar
    36    15    18    1
    37    10    11    1
@<TRIPOS>MOLECULE
*****
 33 37 0 0 0
SMALL
GASTEIGER

@<TRIPOS>ATOM
      1 C         -13.9558   -7.3209   18.0195 C.3     1  UNL1        0.0749
      2 C         -15.1354   -6.4226   18.2464 C.3     1  UNL1        0.0444
      3 C         -16.3783   -6.9646   18.8877 C.ar    1  UNL1       -0.0101
      4 C         -16.4417   -8.4048   19.3020 C.ar    1  UNL1       -0.0091
      5 C         -17.6847   -8.9468   19.9433 C.ar    1  UNL1       -0.0032
      6 C         -18.8644   -8.0485   20.1702 C.ar    1  UNL1        0.0010
      7 C         -18.8010   -6.6082   19.7559 C.ar    1  UNL1        0.0142
      8 C         -17.5580   -6.0663   19.1147 C.ar    1  UNL1        0.0436
      9 C         -15.2621   -9.3031   19.0751 C.3     1  UNL1        0.0954
     10 N         -14.0191   -8.7611   18.4338 N.3     1  UNL1       -0.2934
     11 H         -13.8548   -9.3166   17.5942 H       1  UNL1        0.1236
     12 N         -17.4947   -4.6260   18.7003 N.pl3   1  UNL1       -0.3049
     13 C         -16.9831   -3.5917   19.6588 C.3     1  UNL1        0.1079
     14 C         -16.9198   -2.1514   19.2445 C.3     1  UNL1        0.0903
     15 N         -17.3680   -1.7455   17.8717 N.3     1  UNL1       -0.2946
     16 C         -17.8795   -2.7798   16.9134 C.3     1  UNL1        0.0903
     17 C         -17.9429   -4.2201   17.3277 C.3     1  UNL1        0.1079
     18 H         -16.5700   -1.2966   17.4222 H       1  UNL1        0.1233
     19 C         -12.7127   -6.7789   17.3782 C.3     1  UNL1        0.0885
     20 N         -11.7313   -5.9899   18.1931 N.3     1  UNL1       -0.2692
     21 C         -12.0786   -4.6041   18.6501 C.3     1  UNL1        0.0978
     22 C         -12.9675   -4.4082   19.8423 C.3     1  UNL1        0.0224
     23 C         -13.3148   -3.0224   20.2993 C.3     1  UNL1        0.0065
     24 C         -12.7732   -1.8324   19.5641 C.3     1  UNL1        0.0277
     25 C         -11.8843   -2.0282   18.3718 C.ar    1  UNL1       -0.0073
     26 C         -11.3427   -0.8383   17.6365 C.ar    1  UNL1       -0.0015
     27 C         -10.4538   -1.0341   16.4443 C.ar    1  UNL1        0.0203
     28 C         -10.1065   -2.4199   15.9873 C.ar    1  UNL1        0.0985
     29 N         -10.6481   -3.6099   16.7226 N.ar    1  UNL1       -0.2471
     30 C         -11.5370   -3.4141   17.9148 C.ar    1  UNL1        0.0695
     31 C         -10.0450   -7.9627   18.0730 C.3     1  UNL1        0.0173
     32 C         -10.4024   -6.5867   18.5511 C.3     1  UNL1        0.0579
     33 C          -9.4310   -5.8073   19.3871 C.3     1  UNL1        0.0173
@<TRIPOS>BOND
     1    31    32    1
     2    32    33    1
     3    32    20    1
     4    20    19    1
     5     1    19    1
     6     1     2    1
     7     2     3    1
     8     3     4   ar
     9     4     5   ar
    10     5     6   ar
    11     6     7   ar
    12     7     8   ar
    13     8    12    1
    14    12    13    1
    15    13    14    1
    16    14    15    1
    17    15    16    1
    18    16    17    1
    19     4     9    1
    20     9    10    1
    21    21    20    1
    22    21    22    1
    23    22    23    1
    24    23    24    1
    25    24    25    1
    26    25    26   ar
    27    26    27   ar
    28    27    28   ar
    29    28    29   ar
    30    29    30   ar
    31    10     1    1
    32    30    21    1
    33     8     3   ar
    34    17    12    1
    35    30    25   ar
    36    15    18    1
    37    10    11    1
@<TRIPOS>MOLECULE
*****
 33 37 0 0 0
SMALL
GASTEIGER

@<TRIPOS>ATOM
      1 C          -6.1160  -16.6637   23.2882 C.3     1  UNL1        0.0749
      2 C          -6.5898  -17.7014   22.3142 C.3     1  UNL1        0.0444
      3 C          -5.6117  -18.6645   21.7095 C.ar    1  UNL1       -0.0101
      4 C          -4.1598  -18.5898   22.0787 C.ar    1  UNL1       -0.0091
      5 C          -3.1816  -19.5530   21.4740 C.ar    1  UNL1       -0.0032
      6 C          -3.6554  -20.5907   20.5000 C.ar    1  UNL1        0.0010
      7 C          -5.1074  -20.6653   20.1308 C.ar    1  UNL1        0.0142
      8 C          -6.0855  -19.7022   20.7355 C.ar    1  UNL1        0.0436
      9 C          -3.6859  -17.5521   23.0527 C.3     1  UNL1        0.0954
     10 N          -4.6640  -16.5891   23.6574 N.3     1  UNL1       -0.2934
     11 H          -4.3453  -15.6520   23.4109 H       1  UNL1        0.1236
     12 N          -7.5374  -19.7768   20.3663 N.pl3   1  UNL1       -0.3049
     13 C          -8.5871  -19.7259   21.4367 C.3     1  UNL1        0.1079
     14 C         -10.0390  -19.8005   21.0674 C.3     1  UNL1        0.0903
     15 N         -10.4413  -19.9261   19.6278 N.3     1  UNL1       -0.2946
     16 C          -9.3916  -19.9771   18.5575 C.3     1  UNL1        0.0903
     17 C          -7.9397  -19.9024   18.9267 C.3     1  UNL1        0.1079
     18 H         -11.0374  -19.1255   19.4177 H       1  UNL1        0.1233
     19 C          -7.0941  -15.7005   23.8929 C.3     1  UNL1        0.0885
     20 N          -7.9457  -16.1253   25.0524 N.3     1  UNL1       -0.2692
     21 C          -9.1197  -17.0316   24.8283 C.3     1  UNL1        0.0978
     22 C          -9.4132  -18.1335   25.8028 C.3     1  UNL1        0.0224
     23 C         -10.5873  -19.0399   25.5787 C.3     1  UNL1        0.0065
     24 C         -11.4678  -18.8443   24.3803 C.3     1  UNL1        0.0277
     25 C         -11.1743  -17.7423   23.4057 C.ar    1  UNL1       -0.0073
     26 C         -12.0548  -17.5467   22.2073 C.ar    1  UNL1       -0.0015
     27 C         -11.7613  -16.4448   21.2328 C.ar    1  UNL1        0.0203
     28 C         -10.5872  -15.5385   21.4569 C.ar    1  UNL1        0.0985
     29 N          -9.7067  -15.7341   22.6553 N.ar    1  UNL1       -0.2471
     30 C         -10.0003  -16.8360   23.6298 C.ar    1  UNL1        0.0695
     31 C          -6.2107  -15.6952   26.9378 C.3     1  UNL1        0.0173
     32 C          -7.6232  -15.6437   26.4360 C.3     1  UNL1        0.0579
     33 C          -8.7134  -15.1107   27.3176 C.3     1  UNL1        0.0173
@<TRIPOS>BOND
     1    31    32    1
     2    32    33    1
     3    32    20    1
     4    20    19    1
     5     1    19    1
     6     1     2    1
     7     2     3    1
     8     3     4   ar
     9     4     5   ar
    10     5     6   ar
    11     6     7   ar
    12     7     8   ar
    13     8    12    1
    14    12    13    1
    15    13    14    1
    16    14    15    1
    17    15    16    1
    18    16    17    1
    19     4     9    1
    20     9    10    1
    21    21    20    1
    22    21    22    1
    23    22    23    1
    24    23    24    1
    25    24    25    1
    26    25    26   ar
    27    26    27   ar
    28    27    28   ar
    29    28    29   ar
    30    29    30   ar
    31    10     1    1
    32    30    21    1
    33     8     3   ar
    34    17    12    1
    35    30    25   ar
    36    15    18    1
    37    10    11    1
@<TRIPOS>MOLECULE
*****
 33 37 0 0 0
SMALL
GASTEIGER

@<TRIPOS>ATOM
      1 C         -15.0723   -3.6389   19.5159 C.3     1  UNL1        0.0749
      2 C         -13.7750   -4.1386   18.9527 C.3     1  UNL1        0.0444
      3 C         -12.7522   -3.1648   18.4473 C.ar    1  UNL1       -0.0101
      4 C         -13.0267   -1.6913   18.5050 C.ar    1  UNL1       -0.0091
      5 C         -12.0037   -0.7175   17.9996 C.ar    1  UNL1       -0.0032
      6 C         -10.7064   -1.2172   17.4364 C.ar    1  UNL1        0.0010
      7 C         -10.4320   -2.6908   17.3787 C.ar    1  UNL1        0.0142
      8 C         -11.4548   -3.6646   17.8841 C.ar    1  UNL1        0.0436
      9 C         -14.3240   -1.1915   19.0682 C.3     1  UNL1        0.0954
     10 N         -15.3468   -2.1653   19.5736 N.3     1  UNL1       -0.2934
     11 H         -16.1985   -2.0032   19.0363 H       1  UNL1        0.1236
     12 N         -11.1803   -5.1381   17.8263 N.pl3   1  UNL1       -0.3049
     13 C         -10.3352   -5.7856   18.8831 C.3     1  UNL1        0.1079
     14 C         -10.0607   -7.2591   18.8253 C.3     1  UNL1        0.0903
     15 N         -10.6314   -8.0852   17.7108 N.3     1  UNL1       -0.2946
     16 C         -11.4765   -7.4377   16.6542 C.3     1  UNL1        0.0903
     17 C         -11.7509   -5.9642   16.7119 C.3     1  UNL1        0.1079
     18 H         -11.2051   -8.8085   18.1444 H       1  UNL1        0.1233
     19 C         -16.0953   -4.6127   20.0213 C.3     1  UNL1        0.0885
     20 N         -17.1548   -5.1348   19.0968 N.3     1  UNL1       -0.2692
     21 C         -17.7295   -6.5036   19.3117 C.3     1  UNL1        0.0978
     22 C         -19.0795   -6.6590   19.9469 C.3     1  UNL1        0.0224
     23 C         -19.6542   -8.0277   20.1617 C.3     1  UNL1        0.0065
     24 C         -18.8790   -9.2411   19.7415 C.3     1  UNL1        0.0277
     25 C         -17.5289   -9.0858   19.1064 C.ar    1  UNL1       -0.0073
     26 C         -16.7537  -10.2992   18.6862 C.ar    1  UNL1       -0.0015
     27 C         -15.4037  -10.1438   18.0510 C.ar    1  UNL1        0.0203
     28 C         -14.8290   -8.7751   17.8361 C.ar    1  UNL1        0.0985
     29 N         -15.6042   -7.5617   18.2564 N.ar    1  UNL1       -0.2471
     30 C         -16.9542   -7.7170   18.8915 C.ar    1  UNL1        0.0695
     31 C         -18.5960   -3.1615   18.2141 C.3     1  UNL1        0.0173
     32 C         -17.6396   -4.2882   17.9574 C.3     1  UNL1        0.0579
     33 C         -17.1681   -4.5684   16.5613 C.3     1  UNL1        0.0173
@<TRIPOS>BOND
     1    31    32    1
     2    32    33    1
     3    32    20    1
     4    20    19    1
     5     1    19    1
     6     1     2    1
     7     2     3    1
     8     3     4   ar
     9     4     5   ar
    10     5     6   ar
    11     6     7   ar
    12     7     8   ar
    13     8    12    1
    14    12    13    1
    15    13    14    1
    16    14    15    1
    17    15    16    1
    18    16    17    1
    19     4     9    1
    20     9    10    1
    21    21    20    1
    22    21    22    1
    23    22    23    1
    24    23    24    1
    25    24    25    1
    26    25    26   ar
    27    26    27   ar
    28    27    28   ar
    29    28    29   ar
    30    29    30   ar
    31    10     1    1
    32    30    21    1
    33     8     3   ar
    34    17    12    1
    35    30    25   ar
    36    15    18    1
    37    10    11    1
@<TRIPOS>MOLECULE
*****
 33 37 0 0 0
SMALL
GASTEIGER

@<TRIPOS>ATOM
      1 C          -8.1077  -18.6425   20.2401 C.3     1  UNL1        0.0749
      2 C          -8.4661  -17.8786   21.4801 C.3     1  UNL1        0.0444
      3 C          -9.9067  -17.6523   21.8314 C.ar    1  UNL1       -0.0101
      4 C         -10.9889  -18.1900   20.9427 C.ar    1  UNL1       -0.0091
      5 C         -12.4295  -17.9636   21.2941 C.ar    1  UNL1       -0.0032
      6 C         -12.7879  -17.1997   22.5342 C.ar    1  UNL1        0.0010
      7 C         -11.7058  -16.6620   23.4229 C.ar    1  UNL1        0.0142
      8 C         -10.2652  -16.8882   23.0716 C.ar    1  UNL1        0.0436
      9 C         -10.6304  -18.9539   19.7027 C.3     1  UNL1        0.0954
     10 N          -9.1898  -19.1802   19.3513 N.3     1  UNL1       -0.2934
     11 H          -9.0439  -18.7705   18.4287 H       1  UNL1        0.1236
     12 N          -9.1831  -16.3506   23.9603 N.pl3   1  UNL1       -0.3049
     13 C          -8.1195  -15.4587   23.3915 C.3     1  UNL1        0.1079
     14 C          -7.0373  -14.9210   24.2802 C.3     1  UNL1        0.0903
     15 N          -7.0188  -15.2752   25.7378 N.3     1  UNL1       -0.2946
     16 C          -8.0823  -16.1670   26.3065 C.3     1  UNL1        0.0903
     17 C          -9.1645  -16.7047   25.4178 C.3     1  UNL1        0.1079
     18 H          -7.0634  -14.3970   26.2548 H       1  UNL1        0.1233
     19 C          -6.6671  -18.8689   19.8887 C.3     1  UNL1        0.0885
     20 N          -5.7464  -19.5177   20.8793 N.3     1  UNL1       -0.2692
     21 C          -4.6667  -18.7121   21.5391 C.3     1  UNL1        0.0978
     22 C          -4.8281  -18.2644   22.9616 C.3     1  UNL1        0.0224
     23 C          -3.7483  -17.4589   23.6214 C.3     1  UNL1        0.0065
     24 C          -2.5073  -17.1010   22.8587 C.3     1  UNL1        0.0277
     25 C          -2.3459  -17.5487   21.4361 C.ar    1  UNL1       -0.0073
     26 C          -1.1049  -17.1909   20.6735 C.ar    1  UNL1       -0.0015
     27 C          -0.9436  -17.6385   19.2510 C.ar    1  UNL1        0.0203
     28 C          -2.0233  -18.4441   18.5912 C.ar    1  UNL1        0.0985
     29 N          -3.2643  -18.8020   19.3539 N.ar    1  UNL1       -0.2471
     30 C          -3.4256  -18.3543   20.7763 C.ar    1  UNL1        0.0695
     31 C          -6.3615  -21.3845   22.5784 C.3     1  UNL1        0.0173
     32 C          -5.9055  -20.9721   21.2102 C.3     1  UNL1        0.0579
     33 C          -5.6085  -22.0141   20.1729 C.3     1  UNL1        0.0173
@<TRIPOS>BOND
     1    31    32    1
     2    32    33    1
     3    32    20    1
     4    20    19    1
     5     1    19    1
     6     1     2    1
     7     2     3    1
     8     3     4   ar
     9     4     5   ar
    10     5     6   ar
    11     6     7   ar
    12     7     8   ar
    13     8    12    1
    14    12    13    1
    15    13    14    1
    16    14    15    1
    17    15    16    1
    18    16    17    1
    19     4     9    1
    20     9    10    1
    21    21    20    1
    22    21    22    1
    23    22    23    1
    24    23    24    1
    25    24    25    1
    26    25    26   ar
    27    26    27   ar
    28    27    28   ar
    29    28    29   ar
    30    29    30   ar
    31    10     1    1
    32    30    21    1
    33     8     3   ar
    34    17    12    1
    35    30    25   ar
    36    15    18    1
    37    10    11    1
@<TRIPOS>MOLECULE
*****
 33 37 0 0 0
SMALL
GASTEIGER

@<TRIPOS>ATOM
      1 C          -8.3496  -16.4477   22.3198 C.3     1  UNL1        0.0749
      2 C          -6.8962  -16.6169   22.6497 C.3     1  UNL1        0.0444
      3 C          -6.3493  -16.0655   23.9329 C.ar    1  UNL1       -0.0101
      4 C          -7.2557  -15.3448   24.8863 C.ar    1  UNL1       -0.0091
      5 C          -6.7087  -14.7934   26.1696 C.ar    1  UNL1       -0.0032
      6 C          -5.2553  -14.9627   26.4995 C.ar    1  UNL1        0.0010
      7 C          -4.3488  -15.6834   25.5461 C.ar    1  UNL1        0.0142
      8 C          -4.8958  -16.2348   24.2629 C.ar    1  UNL1        0.0436
      9 C          -8.7092  -15.1756   24.5565 C.3     1  UNL1        0.0954
     10 N          -9.2561  -15.7270   23.2732 N.3     1  UNL1       -0.2934
     11 H          -9.6561  -14.9405   22.7616 H       1  UNL1        0.1236
     12 N          -3.9893  -16.9555   23.3095 N.pl3   1  UNL1       -0.3049
     13 C          -4.0740  -18.4472   23.1766 C.3     1  UNL1        0.1079
     14 C          -3.1675  -19.1679   22.2232 C.3     1  UNL1        0.0903
     15 N          -2.1763  -18.3968   21.4027 N.3     1  UNL1       -0.2946
     16 C          -2.0917  -16.9051   21.5356 C.3     1  UNL1        0.0903
     17 C          -2.9982  -16.1845   22.4890 C.3     1  UNL1        0.1079
     18 H          -2.3874  -18.5937   20.4244 H       1  UNL1        0.1233
     19 C          -8.8967  -16.9991   21.0365 C.3     1  UNL1        0.0885
     20 N          -9.4932  -18.3750   21.0054 N.3     1  UNL1       -0.2692
     21 C          -9.8902  -19.0495   22.2850 C.3     1  UNL1        0.0978
     22 C          -9.0076  -20.1055   22.8813 C.3     1  UNL1        0.0224
     23 C          -9.4046  -20.7800   24.1610 C.3     1  UNL1        0.0065
     24 C         -10.6843  -20.3985   24.8442 C.3     1  UNL1        0.0277
     25 C         -11.5670  -19.3424   24.2479 C.ar    1  UNL1       -0.0073
     26 C         -12.8466  -18.9608   24.9311 C.ar    1  UNL1       -0.0015
     27 C         -13.7293  -17.9048   24.3347 C.ar    1  UNL1        0.0203
     28 C         -13.3322  -17.2303   23.0551 C.ar    1  UNL1        0.0985
     29 N         -12.0526  -17.6118   22.3719 N.ar    1  UNL1       -0.2471
     30 C         -11.1700  -18.6679   22.9682 C.ar    1  UNL1        0.0695
     31 C         -11.0652  -19.1736   19.0972 C.3     1  UNL1        0.0173
     32 C          -9.6928  -19.0764   19.6945 C.3     1  UNL1        0.0579
     33 C          -8.5198  -19.6806   18.9811 C.3     1  UNL1        0.0173
@<TRIPOS>BOND
     1    31    32    1
     2    32    33    1
     3    32    20    1
     4    20    19    1
     5     1    19    1
     6     1     2    1
     7     2     3    1
     8     3     4   ar
     9     4     5   ar
    10     5     6   ar
    11     6     7   ar
    12     7     8   ar
    13     8    12    1
    14    12    13    1
    15    13    14    1
    16    14    15    1
    17    15    16    1
    18    16    17    1
    19     4     9    1
    20     9    10    1
    21    21    20    1
    22    21    22    1
    23    22    23    1
    24    23    24    1
    25    24    25    1
    26    25    26   ar
    27    26    27   ar
    28    27    28   ar
    29    28    29   ar
    30    29    30   ar
    31    10     1    1
    32    30    21    1
    33     8     3   ar
    34    17    12    1
    35    30    25   ar
    36    15    18    1
    37    10    11    1
@<TRIPOS>MOLECULE
*****
 33 37 0 0 0
SMALL
GASTEIGER

@<TRIPOS>ATOM
      1 C          -8.9672  -19.9311   23.0900 C.3     1  UNL1        0.0749
      2 C          -9.8047  -18.8071   22.5562 C.3     1  UNL1        0.0444
      3 C         -11.1142  -18.4730   23.2069 C.ar    1  UNL1       -0.0101
      4 C         -11.5863  -19.2631   24.3913 C.ar    1  UNL1       -0.0091
      5 C         -12.8960  -18.9290   25.0420 C.ar    1  UNL1       -0.0032
      6 C         -13.7335  -17.8049   24.5082 C.ar    1  UNL1        0.0010
      7 C         -13.2614  -17.0149   23.3238 C.ar    1  UNL1        0.0142
      8 C         -11.9518  -17.3489   22.6731 C.ar    1  UNL1        0.0436
      9 C         -10.7488  -20.3872   24.9251 C.3     1  UNL1        0.0954
     10 N          -9.4392  -20.7212   24.2745 N.3     1  UNL1       -0.2934
     11 H          -9.4992  -21.6942   23.9744 H       1  UNL1        0.1236
     12 N         -11.4797  -16.5588   21.4886 N.pl3   1  UNL1       -0.3049
     13 C         -12.2882  -16.5460   20.2251 C.3     1  UNL1        0.1079
     14 C         -11.8161  -15.7560   19.0407 C.3     1  UNL1        0.0903
     15 N         -10.5356  -14.9787   19.1197 N.3     1  UNL1       -0.2946
     16 C          -9.7272  -14.9915   20.3831 C.3     1  UNL1        0.0903
     17 C         -10.1993  -15.7816   21.5676 C.3     1  UNL1        0.1079
     18 H         -10.7704  -14.0044   18.9303 H       1  UNL1        0.1233
     19 C          -7.6575  -20.2652   22.4393 C.3     1  UNL1        0.0885
     20 N          -6.9266  -19.2228   21.6462 N.3     1  UNL1       -0.2692
     21 C          -6.1177  -18.1745   22.3511 C.3     1  UNL1        0.0978
     22 C          -6.8046  -17.0203   23.0189 C.3     1  UNL1        0.0224
     23 C          -5.9957  -15.9720   23.7237 C.3     1  UNL1        0.0065
     24 C          -4.5000  -16.0779   23.7607 C.3     1  UNL1        0.0277
     25 C          -3.8130  -17.2321   23.0928 C.ar    1  UNL1       -0.0073
     26 C          -2.3172  -17.3379   23.1298 C.ar    1  UNL1       -0.0015
     27 C          -1.6303  -18.4921   22.4620 C.ar    1  UNL1        0.0203
     28 C          -2.4392  -19.5404   21.7572 C.ar    1  UNL1        0.0985
     29 N          -3.9350  -19.4345   21.7202 N.ar    1  UNL1       -0.2471
     30 C          -4.6219  -18.2804   22.3880 C.ar    1  UNL1        0.0695
     31 C          -5.7857  -18.9139   19.3326 C.3     1  UNL1        0.0173
     32 C          -7.0046  -19.2286   20.1482 C.3     1  UNL1        0.0579
     33 C          -8.3014  -19.5492   19.4660 C.3     1  UNL1        0.0173
@<TRIPOS>BOND
     1    31    32    1
     2    32    33    1
     3    32    20    1
     4    20    19    1
     5     1    19    1
     6     1     2    1
     7     2     3    1
     8     3     4   ar
     9     4     5   ar
    10     5     6   ar
    11     6     7   ar
    12     7     8   ar
    13     8    12    1
    14    12    13    1
    15    13    14    1
    16    14    15    1
    17    15    16    1
    18    16    17    1
    19     4     9    1
    20     9    10    1
    21    21    20    1
    22    21    22    1
    23    22    23    1
    24    23    24    1
    25    24    25    1
    26    25    26   ar
    27    26    27   ar
    28    27    28   ar
    29    28    29   ar
    30    29    30   ar
    31    10     1    1
    32    30    21    1
    33     8     3   ar
    34    17    12    1
    35    30    25   ar
    36    15    18    1
    37    10    11    1
@<TRIPOS>MOLECULE
*****
 33 37 0 0 0
SMALL
GASTEIGER

@<TRIPOS>ATOM
      1 C         -14.2703   -5.8676   17.0787 C.3     1  UNL1        0.0749
      2 C         -13.2509   -4.8026   17.3557 C.3     1  UNL1        0.0444
      3 C         -11.9220   -5.1717   17.9453 C.ar    1  UNL1       -0.0101
      4 C         -11.6125   -6.6058   18.2580 C.ar    1  UNL1       -0.0091
      5 C         -10.2835   -6.9748   18.8477 C.ar    1  UNL1       -0.0032
      6 C          -9.2641   -5.9099   19.1247 C.ar    1  UNL1        0.0010
      7 C          -9.5737   -4.4759   18.8120 C.ar    1  UNL1        0.0142
      8 C         -10.9026   -4.1068   18.2223 C.ar    1  UNL1        0.0436
      9 C         -12.6319   -7.6707   17.9810 C.3     1  UNL1        0.0954
     10 N         -13.9608   -7.3016   17.3913 N.3     1  UNL1       -0.2934
     11 H         -14.6731   -7.6201   18.0483 H       1  UNL1        0.1236
     12 N         -11.2121   -2.6728   17.9097 N.pl3   1  UNL1       -0.3049
     13 C         -10.7264   -2.0628   16.6282 C.3     1  UNL1        0.1079
     14 C         -11.0359   -0.6288   16.3155 C.3     1  UNL1        0.0903
     15 N         -11.8312    0.1953   17.2844 N.3     1  UNL1       -0.2946
     16 C         -12.3168   -0.4146   18.5658 C.3     1  UNL1        0.0903
     17 C         -12.0073   -1.8487   18.8784 C.3     1  UNL1        0.1079
     18 H         -12.6566    0.5239   16.7833 H       1  UNL1        0.1233
     19 C         -15.5993   -5.4985   16.4890 C.3     1  UNL1        0.0885
     20 N         -16.8390   -5.5698   17.3304 N.3     1  UNL1       -0.2692
     21 C         -17.8615   -6.6361   17.0705 C.3     1  UNL1        0.0978
     22 C         -19.0778   -6.3248   16.2498 C.3     1  UNL1        0.0224
     23 C         -20.1003   -7.3911   15.9899 C.3     1  UNL1        0.0065
     24 C         -19.9065   -8.7687   16.5508 C.3     1  UNL1        0.0277
     25 C         -18.6901   -9.0801   17.3716 C.ar    1  UNL1       -0.0073
     26 C         -18.4963  -10.4577   17.9324 C.ar    1  UNL1       -0.0015
     27 C         -17.2800  -10.7690   18.7532 C.ar    1  UNL1        0.0203
     28 C         -16.2575   -9.7027   19.0130 C.ar    1  UNL1        0.0985
     29 N         -16.4513   -8.3251   18.4522 N.ar    1  UNL1       -0.2471
     30 C         -17.6676   -8.0138   17.6314 C.ar    1  UNL1        0.0695
     31 C         -16.5375   -4.8571   19.8106 C.3     1  UNL1        0.0173
     32 C         -17.0562   -4.5748   18.4317 C.3     1  UNL1        0.0579
     33 C         -17.7922   -3.2976   18.1542 C.3     1  UNL1        0.0173
@<TRIPOS>BOND
     1    31    32    1
     2    32    33    1
     3    32    20    1
     4    20    19    1
     5     1    19    1
     6     1     2    1
     7     2     3    1
     8     3     4   ar
     9     4     5   ar
    10     5     6   ar
    11     6     7   ar
    12     7     8   ar
    13     8    12    1
    14    12    13    1
    15    13    14    1
    16    14    15    1
    17    15    16    1
    18    16    17    1
    19     4     9    1
    20     9    10    1
    21    21    20    1
    22    21    22    1
    23    22    23    1
    24    23    24    1
    25    24    25    1
    26    25    26   ar
    27    26    27   ar
    28    27    28   ar
    29    28    29   ar
    30    29    30   ar
    31    10     1    1
    32    30    21    1
    33     8     3   ar
    34    17    12    1
    35    30    25   ar
    36    15    18    1
    37    10    11    1
@<TRIPOS>MOLECULE
*****
 33 37 0 0 0
SMALL
GASTEIGER

@<TRIPOS>ATOM
      1 C         -14.7770   -3.0983   19.3300 C.3     1  UNL1        0.0749
      2 C         -13.5277   -3.7221   18.7822 C.3     1  UNL1        0.0444
      3 C         -12.4761   -2.8615   18.1470 C.ar    1  UNL1       -0.0101
      4 C         -12.6738   -1.3772   18.0595 C.ar    1  UNL1       -0.0091
      5 C         -11.6222   -0.5166   17.4243 C.ar    1  UNL1       -0.0032
      6 C         -10.3729   -1.1404   16.8765 C.ar    1  UNL1        0.0010
      7 C         -10.1752   -2.6248   16.9639 C.ar    1  UNL1        0.0142
      8 C         -11.2268   -3.4853   17.5991 C.ar    1  UNL1        0.0436
      9 C         -13.9231   -0.7534   18.6073 C.3     1  UNL1        0.0954
     10 N         -14.9747   -1.6140   19.2426 N.3     1  UNL1       -0.2934
     11 H         -15.8360   -1.4620   18.7178 H       1  UNL1        0.1236
     12 N         -11.0291   -4.9697   17.6866 N.pl3   1  UNL1       -0.3049
     13 C         -10.2291   -5.5547   18.8125 C.3     1  UNL1        0.1079
     14 C         -10.0314   -7.0390   18.9000 C.3     1  UNL1        0.0903
     15 N         -10.6337   -7.9384   17.8614 N.3     1  UNL1       -0.2946
     16 C         -11.4337   -7.3533   16.7355 C.3     1  UNL1        0.0903
     17 C         -11.6314   -5.8690   16.6481 C.3     1  UNL1        0.1079
     18 H         -11.2485   -8.5863   18.3538 H       1  UNL1        0.1233
     19 C         -15.8287   -3.9589   19.9653 C.3     1  UNL1        0.0885
     20 N         -16.7238   -4.8045   19.1088 N.3     1  UNL1       -0.2692
     21 C         -16.6861   -6.2990   19.2315 C.3     1  UNL1        0.0978
     22 C         -15.4020   -7.0385   18.9986 C.3     1  UNL1        0.0224
     23 C         -15.3643   -8.5330   19.1212 C.3     1  UNL1        0.0065
     24 C         -16.6106   -9.2880   19.4769 C.3     1  UNL1        0.0277
     25 C         -17.8948   -8.5486   19.7098 C.ar    1  UNL1       -0.0073
     26 C         -19.1411   -9.3036   20.0654 C.ar    1  UNL1       -0.0015
     27 C         -20.4252   -8.5641   20.2984 C.ar    1  UNL1        0.0203
     28 C         -20.4629   -7.0696   20.1757 C.ar    1  UNL1        0.0985
     29 N         -19.2166   -6.3146   19.8201 N.ar    1  UNL1       -0.2471
     30 C         -17.9325   -7.0541   19.5871 C.ar    1  UNL1        0.0695
     31 C         -18.4850   -2.9780   18.5502 C.3     1  UNL1        0.0173
     32 C         -17.6567   -4.1557   18.1296 C.3     1  UNL1        0.0579
     33 C         -17.7613   -4.6847   16.7299 C.3     1  UNL1        0.0173
@<TRIPOS>BOND
     1    31    32    1
     2    32    33    1
     3    32    20    1
     4    20    19    1
     5     1    19    1
     6     1     2    1
     7     2     3    1
     8     3     4   ar
     9     4     5   ar
    10     5     6   ar
    11     6     7   ar
    12     7     8   ar
    13     8    12    1
    14    12    13    1
    15    13    14    1
    16    14    15    1
    17    15    16    1
    18    16    17    1
    19     4     9    1
    20     9    10    1
    21    21    20    1
    22    21    22    1
    23    22    23    1
    24    23    24    1
    25    24    25    1
    26    25    26   ar
    27    26    27   ar
    28    27    28   ar
    29    28    29   ar
    30    29    30   ar
    31    10     1    1
    32    30    21    1
    33     8     3   ar
    34    17    12    1
    35    30    25   ar
    36    15    18    1
    37    10    11    1
