@<TRIPOS>MOLECULE
*****
 22 24 0 0 0
SMALL
GASTEIGER

@<TRIPOS>ATOM
      1 O          -9.1645  -15.9898   23.7904 O.2     1  UNL1       -0.2522
      2 C          -8.5436  -17.1649   23.0950 C.2     1  UNL1        0.3091
      3 N          -9.4135  -18.1735   22.4050 N.am    1  UNL1       -0.2483
      4 N          -7.0529  -17.3314   23.0896 N.am    1  UNL1       -0.2639
      5 C          -6.1831  -16.3228   23.7796 C.3     1  UNL1        0.0950
      6 C          -4.6924  -16.4893   23.7742 C.3     1  UNL1        0.0220
      7 C          -4.0715  -17.6644   23.0787 C.3     1  UNL1        0.0093
      8 C          -4.9413  -18.6730   22.3888 C.3     1  UNL1        0.0220
      9 C          -6.4320  -18.5065   22.3942 C.3     1  UNL1        0.0950
     10 H          -9.0059  -18.9447   21.9486 H       1  UNL1        0.1583
     11 C         -10.9042  -18.0070   22.4104 C.ar    1  UNL1        0.1668
     12 N         -11.7980  -18.1059   23.6110 N.ar    1  UNL1       -0.2223
     13 C         -13.2091  -17.8724   23.1588 C.ar    1  UNL1        0.1079
     14 C         -13.1873  -17.6291   21.6787 C.ar    1  UNL1        0.0588
     15 S         -11.7628  -17.7123   21.2163 S.2     1  UNL1       -0.0507
     16 C          -2.5807  -17.8309   23.0734 C.3     1  UNL1        0.0453
     17 C          -1.8409  -17.9212   21.7717 C.ar    1  UNL1        0.0541
     18 C          -1.7702  -19.1248   20.8794 C.ar    1  UNL1        0.1131
     19 N          -0.9274  -18.7713   19.6900 N.ar    1  UNL1       -0.2229
     20 C          -0.4772  -17.3490   19.8472 C.ar    1  UNL1        0.1748
     21 N          -1.0418  -16.8237   21.1338 N.ar    1  UNL1       -0.3382
     22 H          -0.9108  -15.9176   21.4959 H       1  UNL1        0.1672
@<TRIPOS>BOND
     1     1     2    2
     2     2     3   am
     3     3    11    1
     4    11    12   ar
     5    12    13   ar
     6    13    14   ar
     7    14    15   ar
     8     2     4   am
     9     4     5    1
    10     5     6    1
    11     6     7    1
    12     7    16    1
    13    16    17    1
    14    17    18   ar
    15    18    19   ar
    16    19    20   ar
    17    20    21   ar
    18     7     8    1
    19     8     9    1
    20    15    11   ar
    21     9     4    1
    22    21    17   ar
    23     3    10    1
    24    21    22    1
@<TRIPOS>MOLECULE
*****
 22 24 0 0 0
SMALL
GASTEIGER

@<TRIPOS>ATOM
      1 O          -9.6466  -19.5711   20.8720 O.2     1  UNL1       -0.2522
      2 C          -8.7150  -18.8105   21.7684 C.2     1  UNL1        0.3091
      3 N          -9.2617  -17.8073   22.7404 N.am    1  UNL1       -0.2483
      4 N          -7.2367  -19.0530   21.6929 N.am    1  UNL1       -0.2639
      5 C          -6.6899  -20.0562   20.7209 C.3     1  UNL1        0.0950
      6 C          -5.2116  -20.2987   20.6454 C.3     1  UNL1        0.0220
      7 C          -4.2800  -19.5381   21.5418 C.3     1  UNL1        0.0093
      8 C          -4.8268  -18.5349   22.5137 C.3     1  UNL1        0.0220
      9 C          -6.3051  -18.2924   22.5892 C.3     1  UNL1        0.0950
     10 H          -8.6503  -17.3080   23.3287 H       1  UNL1        0.1583
     11 C         -10.7401  -17.5647   22.8159 C.ar    1  UNL1        0.1668
     12 N         -11.7557  -18.4903   23.4175 N.ar    1  UNL1       -0.2223
     13 C         -13.1057  -17.8516   23.2766 C.ar    1  UNL1        0.1079
     14 C         -12.9243  -16.5314   22.5880 C.ar    1  UNL1        0.0588
     15 S         -11.4623  -16.3541   22.3033 S.2     1  UNL1       -0.0507
     16 C          -2.8017  -19.7806   21.4662 C.3     1  UNL1        0.0453
     17 C          -1.9442  -18.9189   20.5875 C.ar    1  UNL1        0.0541
     18 C          -2.1478  -18.6768   19.1212 C.ar    1  UNL1        0.1131
     19 N          -1.0620  -17.7563   18.6483 N.ar    1  UNL1       -0.2229
     20 C          -0.1874  -17.4294   19.8223 C.ar    1  UNL1        0.1748
     21 N          -0.7326  -18.1480   21.0207 N.ar    1  UNL1       -0.3382
     22 H          -0.3606  -18.1187   21.9318 H       1  UNL1        0.1672
@<TRIPOS>BOND
     1     1     2    2
     2     2     3   am
     3     3    11    1
     4    11    12   ar
     5    12    13   ar
     6    13    14   ar
     7    14    15   ar
     8     2     4   am
     9     4     5    1
    10     5     6    1
    11     6     7    1
    12     7    16    1
    13    16    17    1
    14    17    18   ar
    15    18    19   ar
    16    19    20   ar
    17    20    21   ar
    18     7     8    1
    19     8     9    1
    20    15    11   ar
    21     9     4    1
    22    21    17   ar
    23     3    10    1
    24    21    22    1
@<TRIPOS>MOLECULE
*****
 22 24 0 0 0
SMALL
GASTEIGER

@<TRIPOS>ATOM
      1 O          -4.2533  -18.0886   22.2898 O.2     1  UNL1       -0.2522
      2 C          -4.9414  -18.5848   21.0528 C.2     1  UNL1        0.3091
      3 N          -4.1518  -18.8234   19.7999 N.am    1  UNL1       -0.2483
      4 N          -6.4190  -18.8424   21.0686 N.am    1  UNL1       -0.2639
      5 C          -7.2085  -18.6037   22.3215 C.3     1  UNL1        0.0950
      6 C          -8.6861  -18.8613   22.3373 C.3     1  UNL1        0.0220
      7 C          -9.3742  -19.3576   21.1002 C.3     1  UNL1        0.0093
      8 C          -8.5847  -19.5962   19.8474 C.3     1  UNL1        0.0220
      9 C          -7.1071  -19.3386   19.8316 C.3     1  UNL1        0.0950
     10 H          -4.6035  -19.1491   18.9880 H       1  UNL1        0.1583
     11 C          -2.6742  -18.5658   19.7841 C.ar    1  UNL1        0.1668
     12 N          -1.6503  -19.2530   20.6381 N.ar    1  UNL1       -0.2223
     13 C          -0.3042  -18.6878   20.2933 C.ar    1  UNL1        0.1079
     14 C          -0.4964  -17.6512   19.2262 C.ar    1  UNL1        0.0588
     15 S          -1.9611  -17.5759   18.9115 S.2     1  UNL1       -0.0507
     16 C         -10.8519  -19.6151   21.1161 C.3     1  UNL1        0.0453
     17 C         -11.7300  -18.8854   22.0888 C.ar    1  UNL1        0.0541
     18 C         -12.6289  -17.7280   21.7686 C.ar    1  UNL1        0.1131
     19 N         -13.3179  -17.3121   23.0345 N.ar    1  UNL1       -0.2229
     20 C         -12.8449  -18.2125   24.1370 C.ar    1  UNL1        0.1748
     21 N         -11.8636  -19.1848   23.5526 N.ar    1  UNL1       -0.3382
     22 H         -11.3902  -19.8949   24.0435 H       1  UNL1        0.1672
@<TRIPOS>BOND
     1     1     2    2
     2     2     3   am
     3     3    11    1
     4    11    12   ar
     5    12    13   ar
     6    13    14   ar
     7    14    15   ar
     8     2     4   am
     9     4     5    1
    10     5     6    1
    11     6     7    1
    12     7    16    1
    13    16    17    1
    14    17    18   ar
    15    18    19   ar
    16    19    20   ar
    17    20    21   ar
    18     7     8    1
    19     8     9    1
    20    15    11   ar
    21     9     4    1
    22    21    17   ar
    23     3    10    1
    24    21    22    1
@<TRIPOS>MOLECULE
*****
 22 24 0 0 0
SMALL
GASTEIGER

@<TRIPOS>ATOM
      1 O          -4.3958  -20.3139   20.5398 O.2     1  UNL1       -0.2522
      2 C          -4.7476  -19.0427   21.2541 C.2     1  UNL1        0.3091
      3 N          -3.7963  -17.8832   21.2343 N.am    1  UNL1       -0.2483
      4 N          -6.0510  -18.9311   21.9883 N.am    1  UNL1       -0.2639
      5 C          -7.0023  -20.0905   22.0081 C.3     1  UNL1        0.0950
      6 C          -8.3056  -19.9788   22.7423 C.3     1  UNL1        0.0220
      7 C          -8.6574  -18.7077   23.4566 C.3     1  UNL1        0.0093
      8 C          -7.7061  -17.5482   23.4368 C.3     1  UNL1        0.0220
      9 C          -6.4028  -17.6599   22.7027 C.3     1  UNL1        0.0950
     10 H          -4.0272  -17.0489   21.7032 H       1  UNL1        0.1583
     11 C          -2.4929  -17.9949   20.5002 C.ar    1  UNL1        0.1668
     12 N          -1.1777  -18.4018   21.0957 N.ar    1  UNL1       -0.2223
     13 C          -0.1479  -18.3776   20.0052 C.ar    1  UNL1        0.1079
     14 C          -0.8268  -17.9558   18.7358 C.ar    1  UNL1        0.0588
     15 S          -2.2761  -17.7192   19.0418 S.2     1  UNL1       -0.0507
     16 C          -9.9608  -18.5960   24.1908 C.3     1  UNL1        0.0453
     17 C         -11.1015  -17.8353   23.5825 C.ar    1  UNL1        0.0541
     18 C         -12.5461  -18.2377   23.6144 C.ar    1  UNL1        0.1131
     19 N         -13.3354  -17.1898   22.8871 N.ar    1  UNL1       -0.2229
     20 C         -12.3784  -16.1397   22.4056 C.ar    1  UNL1        0.1748
     21 N         -10.9978  -16.5387   22.8354 N.ar    1  UNL1       -0.3382
     22 H         -10.1692  -16.0376   22.6582 H       1  UNL1        0.1672
@<TRIPOS>BOND
     1     1     2    2
     2     2     3   am
     3     3    11    1
     4    11    12   ar
     5    12    13   ar
     6    13    14   ar
     7    14    15   ar
     8     2     4   am
     9     4     5    1
    10     5     6    1
    11     6     7    1
    12     7    16    1
    13    16    17    1
    14    17    18   ar
    15    18    19   ar
    16    19    20   ar
    17    20    21   ar
    18     7     8    1
    19     8     9    1
    20    15    11   ar
    21     9     4    1
    22    21    17   ar
    23     3    10    1
    24    21    22    1
@<TRIPOS>MOLECULE
*****
 22 24 0 0 0
SMALL
GASTEIGER

@<TRIPOS>ATOM
      1 O          -3.4760  -16.3294   22.6810 O.2     1  UNL1       -0.2522
      2 C          -4.4364  -17.3640   22.1739 C.2     1  UNL1        0.3091
      3 N          -3.9927  -18.3572   21.1412 N.am    1  UNL1       -0.2483
      4 N          -5.8407  -17.4053   22.6997 N.am    1  UNL1       -0.2639
      5 C          -6.2845  -16.4121   23.7324 C.3     1  UNL1        0.0950
      6 C          -7.6887  -16.4535   24.2581 C.3     1  UNL1        0.0220
      7 C          -8.6492  -17.4881   23.7511 C.3     1  UNL1        0.0093
      8 C          -8.2054  -18.4813   22.7183 C.3     1  UNL1        0.0220
      9 C          -6.8012  -18.4399   22.1927 C.3     1  UNL1        0.0950
     10 H          -4.6231  -19.0362   20.8084 H       1  UNL1        0.1583
     11 C          -2.5884  -18.3159   20.6155 C.ar    1  UNL1        0.1668
     12 N          -1.3693  -18.8394   21.3153 N.ar    1  UNL1       -0.2223
     13 C          -0.1841  -18.5909   20.4300 C.ar    1  UNL1        0.1079
     14 C          -0.6708  -17.9137   19.1831 C.ar    1  UNL1        0.0588
     15 S          -2.1568  -17.7438   19.2978 S.2     1  UNL1       -0.0507
     16 C         -10.0535  -17.5294   24.2768 C.3     1  UNL1        0.0453
     17 C         -11.2121  -17.4146   23.3311 C.ar    1  UNL1        0.0541
     18 C         -11.3547  -16.4061   22.2299 C.ar    1  UNL1        0.1131
     19 N         -12.6622  -16.6563   21.5387 N.ar    1  UNL1       -0.2229
     20 C         -13.3277  -17.8196   22.2127 C.ar    1  UNL1        0.1748
     21 N         -12.4314  -18.2882   23.3204 N.ar    1  UNL1       -0.3382
     22 H         -12.6118  -19.0375   23.9329 H       1  UNL1        0.1672
@<TRIPOS>BOND
     1     1     2    2
     2     2     3   am
     3     3    11    1
     4    11    12   ar
     5    12    13   ar
     6    13    14   ar
     7    14    15   ar
     8     2     4   am
     9     4     5    1
    10     5     6    1
    11     6     7    1
    12     7    16    1
    13    16    17    1
    14    17    18   ar
    15    18    19   ar
    16    19    20   ar
    17    20    21   ar
    18     7     8    1
    19     8     9    1
    20    15    11   ar
    21     9     4    1
    22    21    17   ar
    23     3    10    1
    24    21    22    1
@<TRIPOS>MOLECULE
*****
 22 24 0 0 0
SMALL
GASTEIGER

@<TRIPOS>ATOM
      1 O          -5.4236  -20.2624   19.6214 O.2     1  UNL1       -0.2522
      2 C          -5.8693  -19.1682   20.5455 C.2     1  UNL1        0.3091
      3 N          -4.8519  -18.3398   21.2725 N.am    1  UNL1       -0.2483
      4 N          -7.3324  -18.9024   20.7426 N.am    1  UNL1       -0.2639
      5 C          -8.3497  -19.7308   20.0156 C.3     1  UNL1        0.0950
      6 C          -9.8127  -19.4649   20.2127 C.3     1  UNL1        0.0220
      7 C         -10.2584  -18.3707   21.1369 C.3     1  UNL1        0.0093
      8 C          -9.2410  -17.5423   21.8639 C.3     1  UNL1        0.0220
      9 C          -7.7780  -17.8081   21.6668 C.3     1  UNL1        0.0950
     10 H          -5.1444  -17.6216   21.8791 H       1  UNL1        0.1583
     11 C          -3.3888  -18.6056   21.0755 C.ar    1  UNL1        0.1668
     12 N          -2.5542  -19.5711   21.8637 N.ar    1  UNL1       -0.2223
     13 C          -1.1530  -19.5148   21.3309 C.ar    1  UNL1        0.1079
     14 C          -1.1218  -18.5145   20.2135 C.ar    1  UNL1        0.0588
     15 S          -2.5036  -17.9526   20.0556 S.2     1  UNL1       -0.0507
     16 C         -11.7215  -18.1049   21.3340 C.3     1  UNL1        0.0453
     17 C         -12.3344  -18.2552   22.6947 C.ar    1  UNL1        0.0541
     18 C         -11.6901  -18.9009   23.8854 C.ar    1  UNL1        0.1131
     19 N         -12.6567  -18.8310   25.0303 N.ar    1  UNL1       -0.2229
     20 C         -13.8985  -18.1420   24.5471 C.ar    1  UNL1        0.1748
     21 N         -13.6993  -17.7862   23.1036 N.ar    1  UNL1       -0.3382
     22 H         -14.3501  -17.3257   22.5260 H       1  UNL1        0.1672
@<TRIPOS>BOND
     1     1     2    2
     2     2     3   am
     3     3    11    1
     4    11    12   ar
     5    12    13   ar
     6    13    14   ar
     7    14    15   ar
     8     2     4   am
     9     4     5    1
    10     5     6    1
    11     6     7    1
    12     7    16    1
    13    16    17    1
    14    17    18   ar
    15    18    19   ar
    16    19    20   ar
    17    20    21   ar
    18     7     8    1
    19     8     9    1
    20    15    11   ar
    21     9     4    1
    22    21    17   ar
    23     3    10    1
    24    21    22    1
@<TRIPOS>MOLECULE
*****
 22 24 0 0 0
SMALL
GASTEIGER

@<TRIPOS>ATOM
      1 O          -0.0904    3.9372   19.2540 O.2     1  UNL1       -0.2522
      2 C          -0.1971    2.5570   19.8318 C.2     1  UNL1        0.3091
      3 N          -1.3551    2.2017   20.7164 N.am    1  UNL1       -0.2483
      4 N           0.8543    1.5321   19.5248 N.am    1  UNL1       -0.2639
      5 C           2.0124    1.8874   18.6401 C.3     1  UNL1        0.0950
      6 C           3.0637    0.8625   18.3332 C.3     1  UNL1        0.0220
      7 C           2.9570   -0.5177   18.9109 C.3     1  UNL1        0.0093
      8 C           1.7989   -0.8730   19.7955 C.3     1  UNL1        0.0220
      9 C           0.7476    0.1519   20.1025 C.3     1  UNL1        0.0950
     10 H          -1.4252    1.2959   21.0956 H       1  UNL1        0.1583
     11 C          -2.4065    3.2266   21.0234 C.ar    1  UNL1        0.1668
     12 N          -3.6307    3.5068   20.2031 N.ar    1  UNL1       -0.2223
     13 C          -4.3992    4.6046   20.8772 C.ar    1  UNL1        0.1079
     14 C          -3.6498    5.0029   22.1142 C.ar    1  UNL1        0.0588
     15 S          -2.4183    4.1512   22.2045 S.2     1  UNL1       -0.0507
     16 C           4.0084   -1.5426   18.6039 C.3     1  UNL1        0.0453
     17 C           3.9699   -2.8818   19.2785 C.ar    1  UNL1        0.0541
     18 C           4.5534   -3.2099   20.6208 C.ar    1  UNL1        0.1131
     19 N           4.2853   -4.6589   20.9012 N.ar    1  UNL1       -0.2229
     20 C           3.5362   -5.2263   19.7320 C.ar    1  UNL1        0.1748
     21 N           3.3413   -4.1280   18.7292 N.ar    1  UNL1       -0.3382
     22 H           2.8815   -4.2106   17.8626 H       1  UNL1        0.1672
@<TRIPOS>BOND
     1     1     2    2
     2     2     3   am
     3     3    11    1
     4    11    12   ar
     5    12    13   ar
     6    13    14   ar
     7    14    15   ar
     8     2     4   am
     9     4     5    1
    10     5     6    1
    11     6     7    1
    12     7    16    1
    13    16    17    1
    14    17    18   ar
    15    18    19   ar
    16    19    20   ar
    17    20    21   ar
    18     7     8    1
    19     8     9    1
    20    15    11   ar
    21     9     4    1
    22    21    17   ar
    23     3    10    1
    24    21    22    1
@<TRIPOS>MOLECULE
*****
 22 24 0 0 0
SMALL
GASTEIGER

@<TRIPOS>ATOM
      1 O           0.1001    2.5354   22.8587 O.2     1  UNL1       -0.2522
      2 C           0.0737    1.7692   21.5695 C.2     1  UNL1        0.3091
      3 N          -0.9640    2.0817   20.5324 N.am    1  UNL1       -0.2483
      4 N           1.0850    0.6904   21.3173 N.am    1  UNL1       -0.2639
      5 C           2.1227    0.3778   22.3543 C.3     1  UNL1        0.0950
      6 C           3.1339   -0.7009   22.1021 C.3     1  UNL1        0.0220
      7 C           3.1075   -1.4671   20.8129 C.3     1  UNL1        0.0093
      8 C           2.0698   -1.1546   19.7758 C.3     1  UNL1        0.0220
      9 C           1.0586   -0.0759   20.0280 C.3     1  UNL1        0.0950
     10 H          -0.9813    1.5788   19.6862 H       1  UNL1        0.1583
     11 C          -1.9753    3.1605   20.7846 C.ar    1  UNL1        0.1668
     12 N          -3.4070    2.9516   21.1801 N.ar    1  UNL1       -0.2223
     13 C          -4.0491    4.2996   21.3255 C.ar    1  UNL1        0.1079
     14 C          -3.0140    5.3414   21.0198 C.ar    1  UNL1        0.0588
     15 S          -1.7323    4.6373   20.6855 S.2     1  UNL1       -0.0507
     16 C           4.1188   -2.5459   20.5607 C.3     1  UNL1        0.0453
     17 C           5.2433   -2.3093   19.5966 C.ar    1  UNL1        0.0541
     18 C           5.3772   -2.9170   18.2318 C.ar    1  UNL1        0.1131
     19 N           6.6479   -2.4067   17.6198 N.ar    1  UNL1       -0.2229
     20 C           7.2995   -1.4835   18.6063 C.ar    1  UNL1        0.1748
     21 N           6.4314   -1.4233   19.8281 N.ar    1  UNL1       -0.3382
     22 H           6.6100   -0.8951   20.6394 H       1  UNL1        0.1672
@<TRIPOS>BOND
     1     1     2    2
     2     2     3   am
     3     3    11    1
     4    11    12   ar
     5    12    13   ar
     6    13    14   ar
     7    14    15   ar
     8     2     4   am
     9     4     5    1
    10     5     6    1
    11     6     7    1
    12     7    16    1
    13    16    17    1
    14    17    18   ar
    15    18    19   ar
    16    19    20   ar
    17    20    21   ar
    18     7     8    1
    19     8     9    1
    20    15    11   ar
    21     9     4    1
    22    21    17   ar
    23     3    10    1
    24    21    22    1
@<TRIPOS>MOLECULE
*****
 22 24 0 0 0
SMALL
GASTEIGER

@<TRIPOS>ATOM
      1 O           8.4937   -4.3785   24.9072 O.2     1  UNL1       -0.2522
      2 C           7.0532   -4.0712   24.6238 C.2     1  UNL1        0.3091
      3 N           6.1007   -3.8298   25.7571 N.am    1  UNL1       -0.2483
      4 N           6.5651   -4.0052   23.2069 N.am    1  UNL1       -0.2639
      5 C           7.5176   -4.2466   22.0735 C.3     1  UNL1        0.0950
      6 C           7.0295   -4.1806   20.6567 C.3     1  UNL1        0.0220
      7 C           5.5889   -3.8732   20.3733 C.3     1  UNL1        0.0093
      8 C           4.6364   -3.6319   21.5066 C.3     1  UNL1        0.0220
      9 C           5.1245   -3.6979   22.9234 C.3     1  UNL1        0.0950
     10 H           5.1552   -3.6281   25.5711 H       1  UNL1        0.1583
     11 C           6.5888   -3.8958   27.1740 C.ar    1  UNL1        0.1668
     12 N           7.3601   -2.8279   27.8914 N.ar    1  UNL1       -0.2223
     13 C           7.6393   -3.3133   29.2830 C.ar    1  UNL1        0.1079
     14 C           7.0405   -4.6813   29.4256 C.ar    1  UNL1        0.0588
     15 S           6.3913   -5.0413   28.1221 S.2     1  UNL1       -0.0507
     16 C           5.1008   -3.8072   18.9564 C.3     1  UNL1        0.0453
     17 C           5.1515   -2.5098   18.2053 C.ar    1  UNL1        0.0541
     18 C           6.3761   -1.6777   17.9647 C.ar    1  UNL1        0.1131
     19 N           5.9680   -0.4703   17.1737 N.ar    1  UNL1       -0.2229
     20 C           4.4911   -0.5563   16.9254 C.ar    1  UNL1        0.1748
     21 N           3.9865   -1.8168   17.5631 N.ar    1  UNL1       -0.3382
     22 H           3.0544   -2.1336   17.5605 H       1  UNL1        0.1672
@<TRIPOS>BOND
     1     1     2    2
     2     2     3   am
     3     3    11    1
     4    11    12   ar
     5    12    13   ar
     6    13    14   ar
     7    14    15   ar
     8     2     4   am
     9     4     5    1
    10     5     6    1
    11     6     7    1
    12     7    16    1
    13    16    17    1
    14    17    18   ar
    15    18    19   ar
    16    19    20   ar
    17    20    21   ar
    18     7     8    1
    19     8     9    1
    20    15    11   ar
    21     9     4    1
    22    21    17   ar
    23     3    10    1
    24    21    22    1
