@<TRIPOS>MOLECULE
*****
 29 33 0 0 0
SMALL
GASTEIGER

@<TRIPOS>ATOM
      1 O          -5.3203  -14.6567   25.6834 O.2     1  UNL1       -0.2638
      2 C          -6.1028  -15.6173   24.8378 C.2     1  UNL1        0.3160
      3 N          -7.5720  -15.8021   25.0768 N.am    1  UNL1       -0.1720
      4 C          -8.3545  -16.7627   24.2312 C.ar    1  UNL1        0.0775
      5 C          -9.8237  -16.9475   24.4702 C.ar    1  UNL1        0.0168
      6 C         -10.6061  -17.9081   23.6246 C.ar    1  UNL1        0.0021
      7 C          -9.9193  -18.6839   22.5400 C.ar    1  UNL1        0.0002
      8 C          -8.4500  -18.4992   22.3010 C.ar    1  UNL1        0.0051
      9 C          -7.6676  -17.5386   23.1466 C.ar    1  UNL1        0.0623
     10 C          -6.1983  -17.3538   22.9076 C.2     1  UNL1        0.2419
     11 N          -5.2563  -17.9752   21.9195 N.2     1  UNL1       -0.0302
     12 C          -3.8916  -17.3986   22.1544 C.2     1  UNL1        0.3787
     13 N          -3.9903  -16.4209   23.2877 N.2     1  UNL1       -0.0255
     14 C          -5.4159  -16.3932   23.7532 C.2     1  UNL1        0.2907
     15 C          -2.6467  -17.7398   21.3902 C.ar    1  UNL1        0.1263
     16 C          -1.5955  -16.6942   21.1634 C.ar    1  UNL1        0.1484
     17 F          -1.7891  -15.3072   21.7009 F       1  UNL1       -0.2039
     18 C          -0.3508  -17.0354   20.3992 C.ar    1  UNL1        0.0300
     19 C          -0.1572  -18.4224   19.8618 C.ar    1  UNL1        0.0032
     20 C          -1.2084  -19.4681   20.0886 C.ar    1  UNL1        0.0118
     21 C          -2.4532  -19.1268   20.8527 C.ar    1  UNL1        0.0673
     22 CL         -3.5045  -20.1725   21.0795 Cl      1  UNL1       -0.0819
     23 C         -12.0754  -18.0929   23.8636 C.ar    1  UNL1        0.0106
     24 C         -12.5683  -18.5116   25.2170 C.ar    1  UNL1        0.0008
     25 C         -14.0375  -18.6964   25.4561 C.ar    1  UNL1        0.0001
     26 C         -15.0139  -18.4626   24.3416 C.ar    1  UNL1        0.0009
     27 C         -14.5211  -18.0439   22.9881 C.ar    1  UNL1        0.0114
     28 C         -13.0518  -17.8591   22.7491 C.ar    1  UNL1        0.0576
     29 CL        -12.5589  -17.4405   21.3957 Cl      1  UNL1       -0.0822
@<TRIPOS>BOND
     1     1     2    2
     2     2     3    1
     3     3     4    2
     4     4     5   ar
     5     5     6   ar
     6     6    23    1
     7    23    24   ar
     8    24    25   ar
     9    25    26   ar
    10    26    27   ar
    11    27    28   ar
    12    28    29    1
    13     6     7   ar
    14     7     8   ar
    15     8     9   ar
    16     9    10    2
    17    10    11    1
    18    11    12    2
    19    12    15    1
    20    15    16   ar
    21    16    17    1
    22    16    18   ar
    23    18    19   ar
    24    19    20   ar
    25    20    21   ar
    26    21    22    1
    27    12    13    1
    28    13    14    2
    29    14     2    1
    30     9     4   ar
    31    14    10    1
    32    28    23   ar
    33    21    15   ar
@<TRIPOS>MOLECULE
*****
 29 33 0 0 0
SMALL
GASTEIGER

@<TRIPOS>ATOM
      1 O           1.6335    5.9382   21.1116 O.2     1  UNL1       -0.2638
      2 C           1.2770    4.4928   20.9276 C.2     1  UNL1        0.3160
      3 N           2.3552    3.4802   20.6788 N.am    1  UNL1       -0.1720
      4 C           1.9987    2.0348   20.4948 C.ar    1  UNL1        0.0775
      5 C           3.0769    1.0222   20.2459 C.ar    1  UNL1        0.0168
      6 C           2.7204   -0.4231   20.0619 C.ar    1  UNL1        0.0021
      7 C           1.2857   -0.8559   20.1268 C.ar    1  UNL1        0.0002
      8 C           0.2074    0.1568   20.3757 C.ar    1  UNL1        0.0051
      9 C           0.5639    1.6021   20.5597 C.ar    1  UNL1        0.0623
     10 C          -0.5143    2.6148   20.8086 C.2     1  UNL1        0.2419
     11 N          -2.0043    2.4865   20.9240 N.2     1  UNL1       -0.0302
     12 C          -2.5687    3.8526   21.1794 C.2     1  UNL1        0.3787
     13 N          -1.4275    4.8251   21.2217 N.2     1  UNL1       -0.0255
     14 C          -0.1578    4.0601   20.9925 C.2     1  UNL1        0.2907
     15 C          -4.0197    4.1874   21.3605 C.ar    1  UNL1        0.1263
     16 C          -4.7169    3.8335   22.6406 C.ar    1  UNL1        0.1484
     17 F          -3.9632    3.1447   23.7395 F       1  UNL1       -0.2039
     18 C          -6.1677    4.1683   22.8217 C.ar    1  UNL1        0.0300
     19 C          -6.9214    4.8570   21.7228 C.ar    1  UNL1        0.0032
     20 C          -6.2242    5.2110   20.4427 C.ar    1  UNL1        0.0118
     21 C          -4.7733    4.8762   20.2616 C.ar    1  UNL1        0.0673
     22 CL         -4.0760    5.2301   18.9815 Cl      1  UNL1       -0.0819
     23 C           3.7987   -1.4358   19.8130 C.ar    1  UNL1        0.0106
     24 C           4.3749   -2.2146   20.9582 C.ar    1  UNL1        0.0008
     25 C           5.4531   -3.2273   20.7094 C.ar    1  UNL1        0.0001
     26 C           5.9552   -3.4612   19.3153 C.ar    1  UNL1        0.0009
     27 C           5.3789   -2.6824   18.1701 C.ar    1  UNL1        0.0114
     28 C           4.3007   -1.6697   18.4190 C.ar    1  UNL1        0.0576
     29 CL          3.7244   -0.8909   17.2739 Cl      1  UNL1       -0.0822
@<TRIPOS>BOND
     1     1     2    2
     2     2     3    1
     3     3     4    2
     4     4     5   ar
     5     5     6   ar
     6     6    23    1
     7    23    24   ar
     8    24    25   ar
     9    25    26   ar
    10    26    27   ar
    11    27    28   ar
    12    28    29    1
    13     6     7   ar
    14     7     8   ar
    15     8     9   ar
    16     9    10    2
    17    10    11    1
    18    11    12    2
    19    12    15    1
    20    15    16   ar
    21    16    17    1
    22    16    18   ar
    23    18    19   ar
    24    19    20   ar
    25    20    21   ar
    26    21    22    1
    27    12    13    1
    28    13    14    2
    29    14     2    1
    30     9     4   ar
    31    14    10    1
    32    28    23   ar
    33    21    15   ar
@<TRIPOS>MOLECULE
*****
 29 33 0 0 0
SMALL
GASTEIGER

@<TRIPOS>ATOM
      1 O           1.6111    5.8817   21.1944 O.2     1  UNL1       -0.2638
      2 C           1.2487    4.4418   20.9813 C.2     1  UNL1        0.3160
      3 N           2.3255    3.4243   20.7465 N.am    1  UNL1       -0.1720
      4 C           1.9632    1.9843   20.5334 C.ar    1  UNL1        0.0775
      5 C           3.0400    0.9669   20.2985 C.ar    1  UNL1        0.0168
      6 C           2.6777   -0.4730   20.0854 C.ar    1  UNL1        0.0021
      7 C           1.2385   -0.8954   20.1071 C.ar    1  UNL1        0.0002
      8 C           0.1617    0.1221   20.3420 C.ar    1  UNL1        0.0051
      9 C           0.5241    1.5620   20.5551 C.ar    1  UNL1        0.0623
     10 C          -0.5527    2.5795   20.7899 C.2     1  UNL1        0.2419
     11 N          -2.0462    2.4613   20.8649 N.2     1  UNL1       -0.0302
     12 C          -2.6068    3.8282   21.1244 C.2     1  UNL1        0.3787
     13 N          -1.4599    4.7911   21.2098 N.2     1  UNL1       -0.0255
     14 C          -0.1904    4.0194   21.0030 C.2     1  UNL1        0.2907
     15 C          -4.0595    4.1718   21.2726 C.ar    1  UNL1        0.1263
     16 C          -4.7973    4.8164   20.1368 C.ar    1  UNL1        0.1484
     17 F          -4.0826    5.1174   18.8528 F       1  UNL1       -0.2039
     18 C          -6.2499    5.1599   20.2850 C.ar    1  UNL1        0.0300
     19 C          -6.9646    4.8589   21.5689 C.ar    1  UNL1        0.0032
     20 C          -6.2268    4.2143   22.7047 C.ar    1  UNL1        0.0118
     21 C          -4.7742    3.8708   22.5565 C.ar    1  UNL1        0.0673
     22 CL         -4.0363    3.2261   23.6923 Cl      1  UNL1       -0.0819
     23 C           3.7545   -1.4906   19.8506 C.ar    1  UNL1        0.0106
     24 C           4.2959   -2.2884   20.9996 C.ar    1  UNL1        0.0008
     25 C           5.3726   -3.3060   20.7648 C.ar    1  UNL1        0.0001
     26 C           5.9080   -3.5257   19.3809 C.ar    1  UNL1        0.0009
     27 C           5.3667   -2.7278   18.2319 C.ar    1  UNL1        0.0114
     28 C           4.2898   -1.7103   18.4667 C.ar    1  UNL1        0.0576
     29 CL          3.7485   -0.9124   17.3177 Cl      1  UNL1       -0.0822
@<TRIPOS>BOND
     1     1     2    2
     2     2     3    1
     3     3     4    2
     4     4     5   ar
     5     5     6   ar
     6     6    23    1
     7    23    24   ar
     8    24    25   ar
     9    25    26   ar
    10    26    27   ar
    11    27    28   ar
    12    28    29    1
    13     6     7   ar
    14     7     8   ar
    15     8     9   ar
    16     9    10    2
    17    10    11    1
    18    11    12    2
    19    12    15    1
    20    15    16   ar
    21    16    17    1
    22    16    18   ar
    23    18    19   ar
    24    19    20   ar
    25    20    21   ar
    26    21    22    1
    27    12    13    1
    28    13    14    2
    29    14     2    1
    30     9     4   ar
    31    14    10    1
    32    28    23   ar
    33    21    15   ar
@<TRIPOS>MOLECULE
*****
 29 33 0 0 0
SMALL
GASTEIGER

@<TRIPOS>ATOM
      1 O           0.7692    3.2456   24.8792 O.2     1  UNL1       -0.2638
      2 C           0.7147    2.7291   23.4719 C.2     1  UNL1        0.3160
      3 N           1.8941    2.0060   22.8922 N.am    1  UNL1       -0.1720
      4 C           1.8396    1.4895   21.4849 C.ar    1  UNL1        0.0775
      5 C           3.0189    0.7664   20.9052 C.ar    1  UNL1        0.0168
      6 C           2.9644    0.2499   19.4980 C.ar    1  UNL1        0.0021
      7 C           1.7305    0.4567   18.6705 C.ar    1  UNL1        0.0002
      8 C           0.5511    1.1798   19.2502 C.ar    1  UNL1        0.0051
      9 C           0.6057    1.6962   20.6574 C.ar    1  UNL1        0.0623
     10 C          -0.5737    2.4194   21.2372 C.2     1  UNL1        0.2419
     11 N          -1.9156    2.7704   20.6662 N.2     1  UNL1       -0.0302
     12 C          -2.6905    3.5038   21.7206 C.2     1  UNL1        0.3787
     13 N          -1.8275    3.6060   22.9432 N.2     1  UNL1       -0.0255
     14 C          -0.5192    2.9358   22.6444 C.2     1  UNL1        0.2907
     15 C          -4.0839    4.0406   21.5775 C.ar    1  UNL1        0.1263
     16 C          -5.1874    3.5018   22.4388 C.ar    1  UNL1        0.1484
     17 F          -4.8976    2.4260   23.4432 F       1  UNL1       -0.2039
     18 C          -6.5806    4.0387   22.2957 C.ar    1  UNL1        0.0300
     19 C          -6.8704    5.1144   21.2913 C.ar    1  UNL1        0.0032
     20 C          -5.7669    5.6533   20.4300 C.ar    1  UNL1        0.0118
     21 C          -4.3736    5.1164   20.5731 C.ar    1  UNL1        0.0673
     22 CL         -3.2700    5.6553   19.7118 Cl      1  UNL1       -0.0819
     23 C           4.1438   -0.4732   18.9182 C.ar    1  UNL1        0.0106
     24 C           5.2358    0.2977   18.2375 C.ar    1  UNL1        0.0008
     25 C           6.4152   -0.4254   17.6578 C.ar    1  UNL1        0.0001
     26 C           6.5026   -1.9195   17.7586 C.ar    1  UNL1        0.0009
     27 C           5.4106   -2.6905   18.4393 C.ar    1  UNL1        0.0114
     28 C           4.2312   -1.9673   19.0191 C.ar    1  UNL1        0.0576
     29 CL          3.1392   -2.7382   19.6997 Cl      1  UNL1       -0.0822
@<TRIPOS>BOND
     1     1     2    2
     2     2     3    1
     3     3     4    2
     4     4     5   ar
     5     5     6   ar
     6     6    23    1
     7    23    24   ar
     8    24    25   ar
     9    25    26   ar
    10    26    27   ar
    11    27    28   ar
    12    28    29    1
    13     6     7   ar
    14     7     8   ar
    15     8     9   ar
    16     9    10    2
    17    10    11    1
    18    11    12    2
    19    12    15    1
    20    15    16   ar
    21    16    17    1
    22    16    18   ar
    23    18    19   ar
    24    19    20   ar
    25    20    21   ar
    26    21    22    1
    27    12    13    1
    28    13    14    2
    29    14     2    1
    30     9     4   ar
    31    14    10    1
    32    28    23   ar
    33    21    15   ar
@<TRIPOS>MOLECULE
*****
 29 33 0 0 0
SMALL
GASTEIGER

@<TRIPOS>ATOM
      1 O           8.0658   -0.2484   26.3398 O.2     1  UNL1       -0.2638
      2 C           7.2457   -1.0764   25.3954 C.2     1  UNL1        0.3160
      3 N           6.3642   -0.4072   24.3830 N.am    1  UNL1       -0.1720
      4 C           5.5441   -1.2352   23.4385 C.ar    1  UNL1        0.0775
      5 C           4.6625   -0.5661   22.4261 C.ar    1  UNL1        0.0168
      6 C           3.8425   -1.3941   21.4817 C.ar    1  UNL1        0.0021
      7 C           3.9040   -2.8913   21.5498 C.ar    1  UNL1        0.0002
      8 C           4.7855   -3.5605   22.5622 C.ar    1  UNL1        0.0051
      9 C           5.6056   -2.7324   23.5066 C.ar    1  UNL1        0.0623
     10 C           6.4872   -3.4016   24.5191 C.2     1  UNL1        0.2419
     11 N           6.7515   -4.8470   24.8205 N.2     1  UNL1       -0.0302
     12 C           7.7350   -4.9123   25.9512 C.2     1  UNL1        0.3787
     13 N           8.0784   -3.5072   26.3486 N.2     1  UNL1       -0.0255
     14 C           7.3072   -2.5736   25.4635 C.2     1  UNL1        0.2907
     15 C           8.2795   -6.1631   26.5751 C.ar    1  UNL1        0.1263
     16 C           8.1133   -6.4009   28.0467 C.ar    1  UNL1        0.1484
     17 F           7.4026   -5.3879   28.8946 F       1  UNL1       -0.2039
     18 C           8.6577   -7.6516   28.6705 C.ar    1  UNL1        0.0300
     19 C           9.3684   -8.6646   27.8226 C.ar    1  UNL1        0.0032
     20 C           9.5346   -8.4268   26.3510 C.ar    1  UNL1        0.0118
     21 C           8.9902   -7.1760   25.7272 C.ar    1  UNL1        0.0673
     22 CL          9.1563   -6.9382   24.2555 Cl      1  UNL1       -0.0819
     23 C           2.9609   -0.7249   20.4692 C.ar    1  UNL1        0.0106
     24 C           1.5465   -0.3723   20.8227 C.ar    1  UNL1        0.0008
     25 C           0.6649    0.2968   19.8103 C.ar    1  UNL1        0.0001
     26 C           1.1977    0.6134   18.4443 C.ar    1  UNL1        0.0009
     27 C           2.6122    0.2608   18.0908 C.ar    1  UNL1        0.0114
     28 C           3.4938   -0.4084   19.1033 C.ar    1  UNL1        0.0576
     29 CL          4.9083   -0.7610   18.7498 Cl      1  UNL1       -0.0822
@<TRIPOS>BOND
     1     1     2    2
     2     2     3    1
     3     3     4    2
     4     4     5   ar
     5     5     6   ar
     6     6    23    1
     7    23    24   ar
     8    24    25   ar
     9    25    26   ar
    10    26    27   ar
    11    27    28   ar
    12    28    29    1
    13     6     7   ar
    14     7     8   ar
    15     8     9   ar
    16     9    10    2
    17    10    11    1
    18    11    12    2
    19    12    15    1
    20    15    16   ar
    21    16    17    1
    22    16    18   ar
    23    18    19   ar
    24    19    20   ar
    25    20    21   ar
    26    21    22    1
    27    12    13    1
    28    13    14    2
    29    14     2    1
    30     9     4   ar
    31    14    10    1
    32    28    23   ar
    33    21    15   ar
@<TRIPOS>MOLECULE
*****
 29 33 0 0 0
SMALL
GASTEIGER

@<TRIPOS>ATOM
      1 O          -1.1667    3.3101   23.0044 O.2     1  UNL1       -0.2638
      2 C          -0.0661    2.3311   23.2879 C.2     1  UNL1        0.3160
      3 N           0.5651    1.5657   22.1628 N.am    1  UNL1       -0.1720
      4 C           1.6656    0.5867   22.4463 C.ar    1  UNL1        0.0775
      5 C           2.2968   -0.1787   21.3213 C.ar    1  UNL1        0.0168
      6 C           3.3973   -1.1577   21.6048 C.ar    1  UNL1        0.0021
      7 C           3.8666   -1.3713   23.0134 C.ar    1  UNL1        0.0002
      8 C           3.2354   -0.6060   24.1384 C.ar    1  UNL1        0.0051
      9 C           2.1349    0.3730   23.8549 C.ar    1  UNL1        0.0623
     10 C           1.5037    1.1384   24.9800 C.2     1  UNL1        0.2419
     11 N           1.7549    1.1388   26.4588 N.2     1  UNL1       -0.0302
     12 C           0.8097    2.1181   27.0892 C.2     1  UNL1        0.3787
     13 N          -0.0257    2.7229   26.0001 N.2     1  UNL1       -0.0255
     14 C           0.4032    2.1174   24.6965 C.2     1  UNL1        0.2907
     15 C           0.7162    2.4366   28.5521 C.ar    1  UNL1        0.1263
     16 C           1.1067    3.7966   29.0500 C.ar    1  UNL1        0.1484
     17 F           1.5905    4.8382   28.0850 F       1  UNL1       -0.2039
     18 C           1.0132    4.1151   30.5128 C.ar    1  UNL1        0.0300
     19 C           0.5294    3.0736   31.4777 C.ar    1  UNL1        0.0032
     20 C           0.1389    1.7136   30.9798 C.ar    1  UNL1        0.0118
     21 C           0.2324    1.3951   29.5170 C.ar    1  UNL1        0.0673
     22 CL         -0.1581    0.0350   29.0191 Cl      1  UNL1       -0.0819
     23 C           4.0285   -1.9231   20.4797 C.ar    1  UNL1        0.0106
     24 C           3.5325   -3.2963   20.1357 C.ar    1  UNL1        0.0008
     25 C           4.1636   -4.0617   19.0106 C.ar    1  UNL1        0.0001
     26 C           5.2909   -3.4540   18.2296 C.ar    1  UNL1        0.0009
     27 C           5.7869   -2.0808   18.5736 C.ar    1  UNL1        0.0114
     28 C           5.1557   -1.3154   19.6987 C.ar    1  UNL1        0.0576
     29 CL          5.6517    0.0578   20.0427 Cl      1  UNL1       -0.0822
@<TRIPOS>BOND
     1     1     2    2
     2     2     3    1
     3     3     4    2
     4     4     5   ar
     5     5     6   ar
     6     6    23    1
     7    23    24   ar
     8    24    25   ar
     9    25    26   ar
    10    26    27   ar
    11    27    28   ar
    12    28    29    1
    13     6     7   ar
    14     7     8   ar
    15     8     9   ar
    16     9    10    2
    17    10    11    1
    18    11    12    2
    19    12    15    1
    20    15    16   ar
    21    16    17    1
    22    16    18   ar
    23    18    19   ar
    24    19    20   ar
    25    20    21   ar
    26    21    22    1
    27    12    13    1
    28    13    14    2
    29    14     2    1
    30     9     4   ar
    31    14    10    1
    32    28    23   ar
    33    21    15   ar
@<TRIPOS>MOLECULE
*****
 29 33 0 0 0
SMALL
GASTEIGER

@<TRIPOS>ATOM
      1 O          -0.4169    3.2360   17.3348 O.2     1  UNL1       -0.2638
      2 C          -0.1821    2.8726   18.7711 C.2     1  UNL1        0.3160
      3 N          -1.0544    3.4537   19.8440 N.am    1  UNL1       -0.1720
      4 C          -0.8195    3.0903   21.2803 C.ar    1  UNL1        0.0775
      5 C          -1.6918    3.6714   22.3533 C.ar    1  UNL1        0.0168
      6 C          -1.4569    3.3079   23.7895 C.ar    1  UNL1        0.0021
      7 C          -0.3497    2.3634   24.1527 C.ar    1  UNL1        0.0002
      8 C           0.5226    1.7823   23.0797 C.ar    1  UNL1        0.0051
      9 C           0.2877    2.1457   21.6435 C.ar    1  UNL1        0.0623
     10 C           1.1600    1.5646   20.5705 C.2     1  UNL1        0.2419
     11 N           2.3195    0.6145   20.6246 N.2     1  UNL1       -0.0302
     12 C           2.8013    0.3908   19.2218 C.2     1  UNL1        0.3787
     13 N           1.9395    1.2026   18.3007 N.2     1  UNL1       -0.0255
     14 C           0.9251    1.9280   19.1343 C.2     1  UNL1        0.2907
     15 C           3.9442   -0.4901   18.8120 C.ar    1  UNL1        0.1263
     16 C           3.8721   -1.9699   19.0464 C.ar    1  UNL1        0.1484
     17 F           2.6571   -2.5688   19.6907 F       1  UNL1       -0.2039
     18 C           5.0150   -2.8507   18.6366 C.ar    1  UNL1        0.0300
     19 C           6.2299   -2.2517   17.9924 C.ar    1  UNL1        0.0032
     20 C           6.3020   -0.7719   17.7579 C.ar    1  UNL1        0.0118
     21 C           5.1592    0.1089   18.1677 C.ar    1  UNL1        0.0673
     22 CL          5.2312    1.5888   17.9333 Cl      1  UNL1       -0.0819
     23 C          -2.3292    3.8891   24.8626 C.ar    1  UNL1        0.0106
     24 C          -1.7158    4.6709   25.9862 C.ar    1  UNL1        0.0008
     25 C          -2.5881    5.2521   27.0592 C.ar    1  UNL1        0.0001
     26 C          -4.0738    5.0513   27.0087 C.ar    1  UNL1        0.0009
     27 C          -4.6871    4.2694   25.8851 C.ar    1  UNL1        0.0114
     28 C          -3.8148    3.6883   24.8120 C.ar    1  UNL1        0.0576
     29 CL         -4.4282    2.9064   23.6884 Cl      1  UNL1       -0.0822
@<TRIPOS>BOND
     1     1     2    2
     2     2     3    1
     3     3     4    2
     4     4     5   ar
     5     5     6   ar
     6     6    23    1
     7    23    24   ar
     8    24    25   ar
     9    25    26   ar
    10    26    27   ar
    11    27    28   ar
    12    28    29    1
    13     6     7   ar
    14     7     8   ar
    15     8     9   ar
    16     9    10    2
    17    10    11    1
    18    11    12    2
    19    12    15    1
    20    15    16   ar
    21    16    17    1
    22    16    18   ar
    23    18    19   ar
    24    19    20   ar
    25    20    21   ar
    26    21    22    1
    27    12    13    1
    28    13    14    2
    29    14     2    1
    30     9     4   ar
    31    14    10    1
    32    28    23   ar
    33    21    15   ar
@<TRIPOS>MOLECULE
*****
 29 33 0 0 0
SMALL
GASTEIGER

@<TRIPOS>ATOM
      1 O          -0.4835    3.2800   17.2877 O.2     1  UNL1       -0.2638
      2 C          -0.2317    2.9396   18.7267 C.2     1  UNL1        0.3160
      3 N          -1.1405    3.4738   19.7939 N.am    1  UNL1       -0.1720
      4 C          -0.8887    3.1334   21.2329 C.ar    1  UNL1        0.0775
      5 C          -1.7974    3.6675   22.3001 C.ar    1  UNL1        0.0168
      6 C          -1.5456    3.3271   23.7390 C.ar    1  UNL1        0.0021
      7 C          -0.3850    2.4526   24.1109 C.ar    1  UNL1        0.0002
      8 C           0.5237    1.9184   23.0437 C.ar    1  UNL1        0.0051
      9 C           0.2719    2.2588   21.6048 C.ar    1  UNL1        0.0623
     10 C           1.1806    1.7246   20.5375 C.2     1  UNL1        0.2419
     11 N           2.3947    0.8459   20.6004 N.2     1  UNL1       -0.0302
     12 C           2.8932    0.6433   19.2003 C.2     1  UNL1        0.3787
     13 N           1.9872    1.3967   18.2721 N.2     1  UNL1       -0.0255
     14 C           0.9288    2.0650   19.0986 C.2     1  UNL1        0.2907
     15 C           4.0879   -0.1701   18.7988 C.ar    1  UNL1        0.1263
     16 C           5.2420    0.4864   18.1008 C.ar    1  UNL1        0.1484
     17 F           5.2013    1.9562   17.8043 F       1  UNL1       -0.2039
     18 C           6.4366   -0.3270   17.6994 C.ar    1  UNL1        0.0300
     19 C           6.4773   -1.7968   17.9960 C.ar    1  UNL1        0.0032
     20 C           5.3232   -2.4533   18.6940 C.ar    1  UNL1        0.0118
     21 C           4.1286   -1.6399   19.0954 C.ar    1  UNL1        0.0673
     22 CL          2.9745   -2.2964   19.7935 Cl      1  UNL1       -0.0819
     23 C          -2.4543    3.8613   24.8063 C.ar    1  UNL1        0.0106
     24 C          -1.8856    4.6420   25.9539 C.ar    1  UNL1        0.0008
     25 C          -2.7943    5.1762   27.0211 C.ar    1  UNL1        0.0001
     26 C          -4.2717    4.9296   26.9407 C.ar    1  UNL1        0.0009
     27 C          -4.8405    4.1489   25.7931 C.ar    1  UNL1        0.0114
     28 C          -3.9317    3.6147   24.7258 C.ar    1  UNL1        0.0576
     29 CL         -4.5004    2.8340   23.5782 Cl      1  UNL1       -0.0822
@<TRIPOS>BOND
     1     1     2    2
     2     2     3    1
     3     3     4    2
     4     4     5   ar
     5     5     6   ar
     6     6    23    1
     7    23    24   ar
     8    24    25   ar
     9    25    26   ar
    10    26    27   ar
    11    27    28   ar
    12    28    29    1
    13     6     7   ar
    14     7     8   ar
    15     8     9   ar
    16     9    10    2
    17    10    11    1
    18    11    12    2
    19    12    15    1
    20    15    16   ar
    21    16    17    1
    22    16    18   ar
    23    18    19   ar
    24    19    20   ar
    25    20    21   ar
    26    21    22    1
    27    12    13    1
    28    13    14    2
    29    14     2    1
    30     9     4   ar
    31    14    10    1
    32    28    23   ar
    33    21    15   ar
@<TRIPOS>MOLECULE
*****
 29 33 0 0 0
SMALL
GASTEIGER

@<TRIPOS>ATOM
      1 O           1.7646    1.7195   26.5016 O.2     1  UNL1       -0.2638
      2 C           2.6957    0.6023   26.1338 C.2     1  UNL1        0.3160
      3 N           2.7626    0.1179   24.7158 N.am    1  UNL1       -0.1720
      4 C           3.6937   -0.9992   24.3480 C.ar    1  UNL1        0.0775
      5 C           3.7607   -1.4836   22.9300 C.ar    1  UNL1        0.0168
      6 C           4.6917   -2.6007   22.5623 C.ar    1  UNL1        0.0021
      7 C           5.5558   -3.2333   23.6126 C.ar    1  UNL1        0.0002
      8 C           5.4889   -2.7489   25.0306 C.ar    1  UNL1        0.0051
      9 C           4.5578   -1.6319   25.3983 C.ar    1  UNL1        0.0623
     10 C           4.4908   -1.1474   26.8164 C.2     1  UNL1        0.2419
     11 N           5.2163   -1.5740   28.0580 N.2     1  UNL1       -0.0302
     12 C           4.7335   -0.7205   29.1932 C.2     1  UNL1        0.3787
     13 N           3.7098    0.2335   28.6531 N.2     1  UNL1       -0.0255
     14 C           3.5598   -0.0303   27.1841 C.2     1  UNL1        0.2907
     15 C           5.1938   -0.8061   30.6183 C.ar    1  UNL1        0.1263
     16 C           4.2169   -1.1531   31.7024 C.ar    1  UNL1        0.1484
     17 F           2.7798   -1.4146   31.3614 F       1  UNL1       -0.2039
     18 C           4.6772   -1.2387   33.1274 C.ar    1  UNL1        0.0300
     19 C           6.1144   -0.9773   33.4684 C.ar    1  UNL1        0.0032
     20 C           7.0912   -0.6303   32.3843 C.ar    1  UNL1        0.0118
     21 C           6.6309   -0.5447   30.9593 C.ar    1  UNL1        0.0673
     22 CL          7.6078   -0.1976   29.8751 Cl      1  UNL1       -0.0819
     23 C           4.7587   -3.0852   21.1442 C.ar    1  UNL1        0.0106
     24 C           3.9684   -4.2891   20.7249 C.ar    1  UNL1        0.0008
     25 C           4.0353   -4.7736   19.3069 C.ar    1  UNL1        0.0001
     26 C           4.8926   -4.0541   18.3081 C.ar    1  UNL1        0.0009
     27 C           5.6830   -2.8502   18.7275 C.ar    1  UNL1        0.0114
     28 C           5.6160   -2.3657   20.1455 C.ar    1  UNL1        0.0576
     29 CL          6.4063   -1.1617   20.5649 Cl      1  UNL1       -0.0822
@<TRIPOS>BOND
     1     1     2    2
     2     2     3    1
     3     3     4    2
     4     4     5   ar
     5     5     6   ar
     6     6    23    1
     7    23    24   ar
     8    24    25   ar
     9    25    26   ar
    10    26    27   ar
    11    27    28   ar
    12    28    29    1
    13     6     7   ar
    14     7     8   ar
    15     8     9   ar
    16     9    10    2
    17    10    11    1
    18    11    12    2
    19    12    15    1
    20    15    16   ar
    21    16    17    1
    22    16    18   ar
    23    18    19   ar
    24    19    20   ar
    25    20    21   ar
    26    21    22    1
    27    12    13    1
    28    13    14    2
    29    14     2    1
    30     9     4   ar
    31    14    10    1
    32    28    23   ar
    33    21    15   ar
