@<TRIPOS>MOLECULE
*****
 30 33 0 0 0
SMALL
GASTEIGER

@<TRIPOS>ATOM
      1 C          -9.1508  -18.9484   21.4720 C.2     1  UNL1        0.2685
      2 O          -8.9285  -20.3516   20.9906 O.2     1  UNL1       -0.2682
      3 N          -7.9796  -18.0393   21.6997 N.am    1  UNL1       -0.2723
      4 C          -6.5863  -18.5333   21.4460 C.3     1  UNL1        0.0761
      5 C          -6.0211  -18.9332   20.1153 C.3     1  UNL1        0.0213
      6 C          -4.5989  -19.3612   20.3253 C.3     1  UNL1        0.0188
      7 C          -3.3707  -19.8729   19.6327 C.3     1  UNL1        0.0686
      8 N          -2.2978  -20.0537   20.6652 N.3     1  UNL1       -0.2975
      9 C          -2.8628  -19.6539   21.9959 C.3     1  UNL1        0.0686
     10 C          -4.2850  -19.2259   21.7859 C.3     1  UNL1        0.0188
     11 C          -5.5132  -18.7142   22.4785 C.3     1  UNL1        0.0213
     12 H          -1.4964  -19.4649   20.4384 H       1  UNL1        0.1232
     13 C         -13.7565  -17.9047   23.8338 C.3     1  UNL1        0.1321
     14 N         -12.6612  -17.9747   22.8113 N.ar    1  UNL1       -0.3057
     15 C         -12.7157  -17.4141   21.4211 C.ar    1  UNL1        0.1787
     16 N         -11.4072  -17.7106   20.7502 N.ar    1  UNL1       -0.2192
     17 C         -10.5442  -18.4544   21.7257 C.ar    1  UNL1        0.1535
     18 C         -11.3192  -18.6177   22.9996 C.ar    1  UNL1        0.1012
     19 C          -8.2019  -16.6361   22.1811 C.3     1  UNL1        0.1204
     20 C          -7.6162  -16.1900   23.4880 C.ar    1  UNL1       -0.0022
     21 C          -6.2626  -15.5443   23.5218 C.ar    1  UNL1       -0.0003
     22 C          -5.6769  -15.0982   24.8287 C.ar    1  UNL1        0.0293
     23 C          -6.4448  -15.2978   26.1017 C.ar    1  UNL1        0.1440
     24 F          -5.8590  -14.8517   27.4086 F       1  UNL1       -0.2042
     25 C          -7.7982  -15.9434   26.0679 C.ar    1  UNL1        0.0985
     26 C          -8.3839  -16.3895   24.7610 C.ar    1  UNL1        0.0035
     27 C          -8.5661  -16.1429   27.3409 C.3     1  UNL1        0.4207
     28 F          -9.3339  -16.3426   28.6139 F       1  UNL1       -0.1658
     29 F          -8.6400  -17.6156   27.0654 F       1  UNL1       -0.1658
     30 F          -8.4921  -14.6704   27.6164 F       1  UNL1       -0.1658
@<TRIPOS>BOND
     1    13    14    1
     2    14    15   ar
     3    15    16   ar
     4    16    17   ar
     5    17     1    1
     6     1     2    2
     7     1     3   am
     8     3    19    1
     9    19    20    1
    10    20    21   ar
    11    21    22   ar
    12    22    23   ar
    13    23    24    1
    14    23    25   ar
    15    25    27    1
    16    27    28    1
    17    27    29    1
    18    27    30    1
    19    25    26   ar
    20     4     3    1
    21     4     5    1
    22     6     5    1
    23     6     7    1
    24     7     8    1
    25     8     9    1
    26    10     9    1
    27    10    11    1
    28    17    18   ar
    29    18    14   ar
    30    26    20   ar
    31    11     4    1
    32    10     6    1
    33     8    12    1
@<TRIPOS>MOLECULE
*****
 30 33 0 0 0
SMALL
GASTEIGER

@<TRIPOS>ATOM
      1 C          -7.7731  -19.1356   21.7569 C.2     1  UNL1        0.2685
      2 O          -8.5639  -20.4060   21.6537 O.2     1  UNL1       -0.2682
      3 N          -8.4034  -17.9050   22.3385 N.am    1  UNL1       -0.2723
      4 C          -9.8244  -17.9447   22.8169 C.3     1  UNL1        0.0761
      5 C         -10.9943  -17.2717   22.1622 C.3     1  UNL1        0.0213
      6 C         -12.2181  -17.5755   22.9747 C.3     1  UNL1        0.0188
      7 C         -13.6974  -17.3473   23.0722 C.3     1  UNL1        0.0686
      8 N         -14.1982  -18.0670   24.2893 N.3     1  UNL1       -0.2975
      9 C         -13.0283  -18.7400   24.9440 C.3     1  UNL1        0.0686
     10 C         -11.8046  -18.4362   24.1315 C.3     1  UNL1        0.0188
     11 C         -10.3252  -18.6644   24.0340 C.3     1  UNL1        0.0213
     12 H         -14.8915  -18.7643   24.0183 H       1  UNL1        0.1232
     13 C          -2.4982  -19.3515   21.6631 C.3     1  UNL1        0.1321
     14 N          -3.9274  -19.1952   21.2354 N.ar    1  UNL1       -0.3057
     15 C          -4.4028  -18.8746   19.8494 C.ar    1  UNL1        0.1787
     16 N          -5.9014  -18.8132   19.8761 N.ar    1  UNL1       -0.2192
     17 C          -6.3520  -19.0959   21.2785 C.ar    1  UNL1        0.1535
     18 C          -5.1320  -19.3320   22.1186 C.ar    1  UNL1        0.1012
     19 C          -7.6125  -16.6345   22.4417 C.3     1  UNL1        0.1204
     20 C          -7.1694  -16.1340   23.7845 C.ar    1  UNL1       -0.0022
     21 C          -5.8306  -15.4744   23.9347 C.ar    1  UNL1       -0.0003
     22 C          -5.3875  -14.9738   25.2776 C.ar    1  UNL1        0.0293
     23 C          -6.2834  -15.1329   26.4701 C.ar    1  UNL1        0.1440
     24 F          -5.8404  -14.6323   27.8130 F       1  UNL1       -0.2042
     25 C          -7.6221  -15.7924   26.3199 C.ar    1  UNL1        0.0985
     26 C          -8.0652  -16.2930   24.9771 C.ar    1  UNL1        0.0035
     27 C          -8.5180  -15.9514   27.5125 C.3     1  UNL1        0.4207
     28 F          -9.4138  -16.1105   28.7051 F       1  UNL1       -0.1658
     29 F          -8.5837  -17.4296   27.2660 F       1  UNL1       -0.1658
     30 F          -8.4523  -14.4734   27.7590 F       1  UNL1       -0.1658
@<TRIPOS>BOND
     1    13    14    1
     2    14    15   ar
     3    15    16   ar
     4    16    17   ar
     5    17     1    1
     6     1     2    2
     7     1     3   am
     8     3    19    1
     9    19    20    1
    10    20    21   ar
    11    21    22   ar
    12    22    23   ar
    13    23    24    1
    14    23    25   ar
    15    25    27    1
    16    27    28    1
    17    27    29    1
    18    27    30    1
    19    25    26   ar
    20     4     3    1
    21     4     5    1
    22     6     5    1
    23     6     7    1
    24     7     8    1
    25     8     9    1
    26    10     9    1
    27    10    11    1
    28    17    18   ar
    29    18    14   ar
    30    26    20   ar
    31    11     4    1
    32    10     6    1
    33     8    12    1
@<TRIPOS>MOLECULE
*****
 30 33 0 0 0
SMALL
GASTEIGER

@<TRIPOS>ATOM
      1 C          -9.5717  -18.9611   21.4263 C.2     1  UNL1        0.2685
      2 O          -9.3584  -20.3002   20.7850 O.2     1  UNL1       -0.2682
      3 N          -8.3953  -18.0884   21.7493 N.am    1  UNL1       -0.2723
      4 C          -7.0057  -18.5546   21.4310 C.3     1  UNL1        0.0761
      5 C          -6.5031  -18.9714   20.0805 C.3     1  UNL1        0.0213
      6 C          -5.0614  -19.3604   20.2222 C.3     1  UNL1        0.0188
      7 C          -3.8598  -19.8583   19.4750 C.3     1  UNL1        0.0686
      8 N          -2.7286  -19.9898   20.4514 N.3     1  UNL1       -0.2975
      9 C          -3.2311  -19.5731   21.8019 C.3     1  UNL1        0.0686
     10 C          -4.6729  -19.1841   21.6602 C.3     1  UNL1        0.0188
     11 C          -5.8744  -18.6861   22.4074 C.3     1  UNL1        0.0213
     12 H          -1.9556  -19.3874   20.1686 H       1  UNL1        0.1232
     13 C         -14.1006  -18.0504   23.9836 C.3     1  UNL1        0.1321
     14 N         -13.0431  -18.0763   22.9201 N.ar    1  UNL1       -0.3057
     15 C         -13.1567  -17.4787   21.5490 C.ar    1  UNL1        0.1787
     16 N         -11.8702  -17.7374   20.8226 N.ar    1  UNL1       -0.2192
     17 C         -10.9614  -18.4949   21.7446 C.ar    1  UNL1        0.1535
     18 C         -11.6864  -18.7043   23.0410 C.ar    1  UNL1        0.1012
     19 C          -8.6087  -16.7492   22.3907 C.3     1  UNL1        0.1204
     20 C          -8.2946  -16.5554   23.8446 C.ar    1  UNL1       -0.0022
     21 C          -9.2219  -17.0984   24.8911 C.ar    1  UNL1       -0.0003
     22 C          -8.9078  -16.9046   26.3451 C.ar    1  UNL1        0.0293
     23 C          -7.6663  -16.1679   26.7523 C.ar    1  UNL1        0.1440
     24 F          -7.3521  -15.9741   28.2062 F       1  UNL1       -0.2042
     25 C          -6.7390  -15.6249   25.7058 C.ar    1  UNL1        0.0985
     26 C          -7.0531  -15.8187   24.2519 C.ar    1  UNL1        0.0035
     27 C          -5.4974  -14.8882   26.1131 C.3     1  UNL1        0.4207
     28 F          -4.2559  -14.1515   26.5203 F       1  UNL1       -0.1658
     29 F          -4.7478  -15.5256   24.9810 F       1  UNL1       -0.1658
     30 F          -6.2470  -14.2508   27.2452 F       1  UNL1       -0.1658
@<TRIPOS>BOND
     1    13    14    1
     2    14    15   ar
     3    15    16   ar
     4    16    17   ar
     5    17     1    1
     6     1     2    2
     7     1     3   am
     8     3    19    1
     9    19    20    1
    10    20    21   ar
    11    21    22   ar
    12    22    23   ar
    13    23    24    1
    14    23    25   ar
    15    25    27    1
    16    27    28    1
    17    27    29    1
    18    27    30    1
    19    25    26   ar
    20     4     3    1
    21     4     5    1
    22     6     5    1
    23     6     7    1
    24     7     8    1
    25     8     9    1
    26    10     9    1
    27    10    11    1
    28    17    18   ar
    29    18    14   ar
    30    26    20   ar
    31    11     4    1
    32    10     6    1
    33     8    12    1
@<TRIPOS>MOLECULE
*****
 30 33 0 0 0
SMALL
GASTEIGER

@<TRIPOS>ATOM
      1 C          -3.5535  -16.0189   22.3589 C.2     1  UNL1        0.2685
      2 O          -3.7736  -14.5410   22.4911 O.2     1  UNL1       -0.2682
      3 N          -4.3067  -16.9711   23.2398 N.am    1  UNL1       -0.2723
      4 C          -5.2798  -16.4455   24.2530 C.3     1  UNL1        0.0761
      5 C          -4.9561  -16.0463   25.6622 C.3     1  UNL1        0.0213
      6 C          -6.2239  -15.5808   26.3150 C.3     1  UNL1        0.0188
      7 C          -6.8073  -15.0464   27.5894 C.3     1  UNL1        0.0686
      8 N          -8.2751  -14.8277   27.3713 N.3     1  UNL1       -0.2975
      9 C          -8.5989  -15.2268   25.9621 C.3     1  UNL1        0.0686
     10 C          -7.3311  -15.6923   25.3093 C.3     1  UNL1        0.0188
     11 C          -6.7477  -16.2267   24.0349 C.3     1  UNL1        0.0213
     12 H          -8.5033  -13.8437   27.5134 H       1  UNL1        0.1232
     13 C           0.9332  -17.5068   20.0060 C.3     1  UNL1        0.1321
     14 N          -0.5180  -17.2284   20.2642 N.ar    1  UNL1       -0.3057
     15 C          -1.6472  -17.4781   19.3090 C.ar    1  UNL1        0.1787
     16 N          -2.9218  -17.0555   19.9774 N.ar    1  UNL1       -0.2192
     17 C          -2.5803  -16.5445   21.3456 C.ar    1  UNL1        0.1535
     18 C          -1.0946  -16.6514   21.5229 C.ar    1  UNL1        0.1012
     19 C          -4.0865  -18.4490   23.1076 C.3     1  UNL1        0.1204
     20 C          -4.8524  -19.2326   22.0832 C.ar    1  UNL1       -0.0022
     21 C          -4.1419  -20.2292   21.2161 C.ar    1  UNL1       -0.0003
     22 C          -4.9078  -21.0128   20.1916 C.ar    1  UNL1        0.0293
     23 C          -6.3842  -20.7996   20.0344 C.ar    1  UNL1        0.1440
     24 F          -7.1502  -21.5832   19.0099 F       1  UNL1       -0.2042
     25 C          -7.0947  -19.8030   20.9015 C.ar    1  UNL1        0.0985
     26 C          -6.3288  -19.0195   21.9259 C.ar    1  UNL1        0.0035
     27 C          -8.5712  -19.5899   20.7442 C.3     1  UNL1        0.4207
     28 F         -10.0476  -19.3768   20.5869 F       1  UNL1       -0.1658
     29 F          -8.3659  -19.2320   19.3021 F       1  UNL1       -0.1658
     30 F          -8.7765  -19.9478   22.1863 F       1  UNL1       -0.1658
@<TRIPOS>BOND
     1    13    14    1
     2    14    15   ar
     3    15    16   ar
     4    16    17   ar
     5    17     1    1
     6     1     2    2
     7     1     3   am
     8     3    19    1
     9    19    20    1
    10    20    21   ar
    11    21    22   ar
    12    22    23   ar
    13    23    24    1
    14    23    25   ar
    15    25    27    1
    16    27    28    1
    17    27    29    1
    18    27    30    1
    19    25    26   ar
    20     4     3    1
    21     4     5    1
    22     6     5    1
    23     6     7    1
    24     7     8    1
    25     8     9    1
    26    10     9    1
    27    10    11    1
    28    17    18   ar
    29    18    14   ar
    30    26    20   ar
    31    11     4    1
    32    10     6    1
    33     8    12    1
@<TRIPOS>MOLECULE
*****
 30 33 0 0 0
SMALL
GASTEIGER

@<TRIPOS>ATOM
      1 C          -5.2530  -15.9472   23.1994 C.2     1  UNL1        0.2685
      2 O          -4.4076  -14.7522   22.8720 O.2     1  UNL1       -0.2682
      3 N          -4.9186  -17.2862   22.6117 N.am    1  UNL1       -0.2723
      4 C          -3.7388  -17.4301   21.6967 C.3     1  UNL1        0.0761
      5 C          -2.3164  -17.0924   22.0322 C.3     1  UNL1        0.0213
      6 C          -1.4727  -17.3907   20.8284 C.3     1  UNL1        0.0188
      7 C          -0.0722  -17.3663   20.2918 C.3     1  UNL1        0.0686
      8 N          -0.1077  -17.8733   18.8805 N.3     1  UNL1       -0.2975
      9 C          -1.5302  -18.2111   18.5449 C.3     1  UNL1        0.0686
     10 C          -2.3738  -17.9128   19.7488 C.3     1  UNL1        0.0188
     11 C          -3.7743  -17.9372   20.2854 C.3     1  UNL1        0.0213
     12 H           0.4748  -18.7065   18.7973 H       1  UNL1        0.1232
     13 C          -8.2180  -15.6126   27.5557 C.3     1  UNL1        0.1321
     14 N          -7.7957  -15.6493   26.1168 N.ar    1  UNL1       -0.3057
     15 C          -8.7008  -15.5136   24.9285 C.ar    1  UNL1        0.1787
     16 N          -7.8585  -15.6087   23.6909 N.ar    1  UNL1       -0.2192
     17 C          -6.4328  -15.8031   24.1144 C.ar    1  UNL1        0.1535
     18 C          -6.3939  -15.8283   25.6137 C.ar    1  UNL1        0.1012
     19 C          -5.7641  -18.4812   22.9392 C.3     1  UNL1        0.1204
     20 C          -6.9805  -18.7873   22.1166 C.ar    1  UNL1       -0.0022
     21 C          -6.8337  -19.1656   20.6726 C.ar    1  UNL1       -0.0003
     22 C          -8.0502  -19.4717   19.8500 C.ar    1  UNL1        0.0293
     23 C          -9.4134  -19.3994   20.4716 C.ar    1  UNL1        0.1440
     24 F         -10.6299  -19.7055   19.6490 F       1  UNL1       -0.2042
     25 C          -9.5602  -19.0211   21.9156 C.ar    1  UNL1        0.0985
     26 C          -8.3438  -18.7150   22.7381 C.ar    1  UNL1        0.0035
     27 C         -10.9235  -18.9489   22.5372 C.3     1  UNL1        0.4207
     28 F         -12.2867  -18.8767   23.1588 F       1  UNL1       -0.1658
     29 F         -11.0667  -20.4353   22.3958 F       1  UNL1       -0.1658
     30 F         -10.7802  -17.4625   22.6786 F       1  UNL1       -0.1658
@<TRIPOS>BOND
     1    13    14    1
     2    14    15   ar
     3    15    16   ar
     4    16    17   ar
     5    17     1    1
     6     1     2    2
     7     1     3   am
     8     3    19    1
     9    19    20    1
    10    20    21   ar
    11    21    22   ar
    12    22    23   ar
    13    23    24    1
    14    23    25   ar
    15    25    27    1
    16    27    28    1
    17    27    29    1
    18    27    30    1
    19    25    26   ar
    20     4     3    1
    21     4     5    1
    22     6     5    1
    23     6     7    1
    24     7     8    1
    25     8     9    1
    26    10     9    1
    27    10    11    1
    28    17    18   ar
    29    18    14   ar
    30    26    20   ar
    31    11     4    1
    32    10     6    1
    33     8    12    1
@<TRIPOS>MOLECULE
*****
 30 33 0 0 0
SMALL
GASTEIGER

@<TRIPOS>ATOM
      1 C           1.8795    2.9452   19.9089 C.2     1  UNL1        0.2685
      2 O           2.5593    4.1791   19.3939 O.2     1  UNL1       -0.2682
      3 N           2.5734    1.6177   19.8287 N.am    1  UNL1       -0.2723
      4 C           3.9470    1.5242   19.2336 C.3     1  UNL1        0.0761
      5 C           4.2803    1.0248   17.8590 C.3     1  UNL1        0.0213
      6 C           5.7679    1.1056   17.6843 C.3     1  UNL1        0.0188
      7 C           6.8932    0.8469   16.7269 C.3     1  UNL1        0.0686
      8 N           8.1749    1.2365   17.4018 N.3     1  UNL1       -0.2975
      9 C           7.8417    1.7360   18.7764 C.3     1  UNL1        0.0686
     10 C           6.3541    1.6551   18.9510 C.3     1  UNL1        0.0188
     11 C           5.2288    1.9138   19.9085 C.3     1  UNL1        0.0213
     12 H           8.6370    1.9730   16.8685 H       1  UNL1        0.1232
     13 C          -3.3704    3.2130   20.4057 C.3     1  UNL1        0.1321
     14 N          -1.9073    3.1618   20.7324 N.ar    1  UNL1       -0.3057
     15 C          -1.3089    3.2036   22.1072 C.ar    1  UNL1        0.1787
     16 N           0.1825    3.1275   21.9660 N.ar    1  UNL1       -0.2192
     17 C           0.5058    3.0387   20.5041 C.ar    1  UNL1        0.1535
     18 C          -0.7858    3.0599   19.7416 C.ar    1  UNL1        0.1012
     19 C           1.8936    0.3838   20.3438 C.3     1  UNL1        0.1204
     20 C           2.7110   -0.7935   20.7863 C.ar    1  UNL1       -0.0022
     21 C           3.1486   -0.9076   22.2165 C.ar    1  UNL1       -0.0003
     22 C           3.9661   -2.0849   22.6591 C.ar    1  UNL1        0.0293
     23 C           4.3457   -3.1481   21.6713 C.ar    1  UNL1        0.1440
     24 F           5.1632   -4.3254   22.1139 F       1  UNL1       -0.2042
     25 C           3.9081   -3.0340   20.2413 C.ar    1  UNL1        0.0985
     26 C           3.0907   -1.8567   19.7987 C.ar    1  UNL1        0.0035
     27 C           4.2877   -4.0972   19.2535 C.3     1  UNL1        0.4207
     28 F           4.6674   -5.1604   18.2659 F       1  UNL1       -0.1658
     29 F           2.9300   -4.7178   19.3998 F       1  UNL1       -0.1658
     30 F           5.6454   -3.4765   19.1073 F       1  UNL1       -0.1658
@<TRIPOS>BOND
     1    13    14    1
     2    14    15   ar
     3    15    16   ar
     4    16    17   ar
     5    17     1    1
     6     1     2    2
     7     1     3   am
     8     3    19    1
     9    19    20    1
    10    20    21   ar
    11    21    22   ar
    12    22    23   ar
    13    23    24    1
    14    23    25   ar
    15    25    27    1
    16    27    28    1
    17    27    29    1
    18    27    30    1
    19    25    26   ar
    20     4     3    1
    21     4     5    1
    22     6     5    1
    23     6     7    1
    24     7     8    1
    25     8     9    1
    26    10     9    1
    27    10    11    1
    28    17    18   ar
    29    18    14   ar
    30    26    20   ar
    31    11     4    1
    32    10     6    1
    33     8    12    1
@<TRIPOS>MOLECULE
*****
 30 33 0 0 0
SMALL
GASTEIGER

@<TRIPOS>ATOM
      1 C          -7.8573  -17.4258   22.1527 C.2     1  UNL1        0.2685
      2 O          -9.1213  -17.0550   21.4352 O.2     1  UNL1       -0.2682
      3 N          -7.0732  -18.6283   21.7178 N.am    1  UNL1       -0.2723
      4 C          -7.5531  -19.4599   20.5654 C.3     1  UNL1        0.0761
      5 C          -6.9006  -20.7066   20.0457 C.3     1  UNL1        0.0213
      6 C          -7.7140  -21.2081   18.8894 C.3     1  UNL1        0.0188
      7 C          -7.8134  -22.2885   17.8537 C.3     1  UNL1        0.0686
      8 N          -9.0300  -22.0195   17.0186 N.3     1  UNL1       -0.2975
      9 C          -9.6825  -20.7728   17.5382 C.3     1  UNL1        0.0686
     10 C          -8.8691  -20.2713   18.6945 C.3     1  UNL1        0.0188
     11 C          -8.7697  -19.1909   19.7302 C.3     1  UNL1        0.0213
     12 H          -9.6780  -22.8041   17.0881 H       1  UNL1        0.1232
     13 C          -7.2765  -15.4292   27.0062 C.3     1  UNL1        0.1321
     14 N          -7.1105  -15.6764   25.5360 N.ar    1  UNL1       -0.3057
     15 C          -6.1679  -14.9524   24.6211 C.ar    1  UNL1        0.1787
     16 N          -6.3329  -15.5196   23.2424 N.ar    1  UNL1       -0.2192
     17 C          -7.3774  -16.5941   23.3052 C.ar    1  UNL1        0.1535
     18 C          -7.8581  -16.6911   24.7227 C.ar    1  UNL1        0.1012
     19 C          -5.8092  -18.9991   22.4353 C.3     1  UNL1        0.1204
     20 C          -4.5153  -18.3359   22.0665 C.ar    1  UNL1       -0.0022
     21 C          -3.7523  -17.5559   23.0958 C.ar    1  UNL1       -0.0003
     22 C          -2.4583  -16.8926   22.7270 C.ar    1  UNL1        0.0293
     23 C          -1.9276  -17.0094   21.3289 C.ar    1  UNL1        0.1440
     24 F          -0.6337  -16.3461   20.9601 F       1  UNL1       -0.2042
     25 C          -2.6906  -17.7893   20.2997 C.ar    1  UNL1        0.0985
     26 C          -3.9845  -18.4526   20.6685 C.ar    1  UNL1        0.0035
     27 C          -2.1598  -17.9061   18.9016 C.3     1  UNL1        0.4207
     28 F          -1.6291  -18.0228   17.5035 F       1  UNL1       -0.1658
     29 F          -3.2618  -17.0156   18.4089 F       1  UNL1       -0.1658
     30 F          -1.0580  -18.7966   19.3942 F       1  UNL1       -0.1658
@<TRIPOS>BOND
     1    13    14    1
     2    14    15   ar
     3    15    16   ar
     4    16    17   ar
     5    17     1    1
     6     1     2    2
     7     1     3   am
     8     3    19    1
     9    19    20    1
    10    20    21   ar
    11    21    22   ar
    12    22    23   ar
    13    23    24    1
    14    23    25   ar
    15    25    27    1
    16    27    28    1
    17    27    29    1
    18    27    30    1
    19    25    26   ar
    20     4     3    1
    21     4     5    1
    22     6     5    1
    23     6     7    1
    24     7     8    1
    25     8     9    1
    26    10     9    1
    27    10    11    1
    28    17    18   ar
    29    18    14   ar
    30    26    20   ar
    31    11     4    1
    32    10     6    1
    33     8    12    1
@<TRIPOS>MOLECULE
*****
 30 33 0 0 0
SMALL
GASTEIGER

@<TRIPOS>ATOM
      1 C          -0.3393    3.0680   21.5685 C.2     1  UNL1        0.2685
      2 O          -0.1047    4.0801   22.6505 O.2     1  UNL1       -0.2682
      3 N           0.3783    1.7513   21.6048 N.am    1  UNL1       -0.2723
      4 C           1.3305    1.4467   22.7230 C.3     1  UNL1        0.0761
      5 C           2.8252    1.5584   22.6634 C.3     1  UNL1        0.0213
      6 C           3.3737    1.1577   24.0007 C.3     1  UNL1        0.0188
      7 C           4.6365    0.9790   24.7903 C.3     1  UNL1        0.0686
      8 N           4.2613    0.5092   26.1645 N.3     1  UNL1       -0.2975
      9 C           2.7666    0.3974   26.2242 C.3     1  UNL1        0.0686
     10 C           2.2181    0.7982   24.8869 C.3     1  UNL1        0.0188
     11 C           0.9553    0.9768   24.0973 C.3     1  UNL1        0.0213
     12 H           4.5863    1.1803   26.8605 H       1  UNL1        0.1232
     13 C          -4.7861    3.7240   18.7978 C.3     1  UNL1        0.1321
     14 N          -3.3355    3.6742   19.1768 N.ar    1  UNL1       -0.3057
     15 C          -2.1787    4.0088   18.2827 C.ar    1  UNL1        0.1787
     16 N          -0.9155    3.8224   19.0698 N.ar    1  UNL1       -0.2192
     17 C          -1.2916    3.3727   20.4503 C.ar    1  UNL1        0.1535
     18 C          -2.7874    3.2810   20.5165 C.ar    1  UNL1        0.1012
     19 C           0.1436    0.7392   20.5228 C.3     1  UNL1        0.1204
     20 C           1.3085    0.1293   19.8010 C.ar    1  UNL1       -0.0022
     21 C           1.8529    0.7853   18.5667 C.ar    1  UNL1       -0.0003
     22 C           3.0178    0.1753   17.8448 C.ar    1  UNL1        0.0293
     23 C           3.6382   -1.0905   18.3574 C.ar    1  UNL1        0.1440
     24 F           4.8032   -1.7005   17.6355 F       1  UNL1       -0.2042
     25 C           3.0939   -1.7464   19.5916 C.ar    1  UNL1        0.0985
     26 C           1.9290   -1.1365   20.3134 C.ar    1  UNL1        0.0035
     27 C           3.7144   -3.0123   20.1041 C.3     1  UNL1        0.4207
     28 F           4.3348   -4.2782   20.6165 F       1  UNL1       -0.1658
     29 F           3.0837   -3.7771   18.9784 F       1  UNL1       -0.1658
     30 F           4.3450   -2.2475   21.2297 F       1  UNL1       -0.1658
@<TRIPOS>BOND
     1    13    14    1
     2    14    15   ar
     3    15    16   ar
     4    16    17   ar
     5    17     1    1
     6     1     2    2
     7     1     3   am
     8     3    19    1
     9    19    20    1
    10    20    21   ar
    11    21    22   ar
    12    22    23   ar
    13    23    24    1
    14    23    25   ar
    15    25    27    1
    16    27    28    1
    17    27    29    1
    18    27    30    1
    19    25    26   ar
    20     4     3    1
    21     4     5    1
    22     6     5    1
    23     6     7    1
    24     7     8    1
    25     8     9    1
    26    10     9    1
    27    10    11    1
    28    17    18   ar
    29    18    14   ar
    30    26    20   ar
    31    11     4    1
    32    10     6    1
    33     8    12    1
@<TRIPOS>MOLECULE
*****
 30 33 0 0 0
SMALL
GASTEIGER

@<TRIPOS>ATOM
      1 C           3.1629    2.2710   20.8624 C.2     1  UNL1        0.2685
      2 O           3.3466    3.6106   21.5116 O.2     1  UNL1       -0.2682
      3 N           2.0086    1.3982   21.2571 N.am    1  UNL1       -0.2723
      4 C           1.0380    1.8651   22.3011 C.3     1  UNL1        0.0761
      5 C           0.9842    1.3997   23.7261 C.3     1  UNL1        0.0213
      6 C          -0.1363    2.1264   24.4091 C.3     1  UNL1        0.0188
      7 C          -0.8620    2.2878   25.7119 C.3     1  UNL1        0.0686
      8 N          -1.9492    3.3021   25.5142 N.3     1  UNL1       -0.2975
      9 C          -1.8955    3.7676   24.0892 C.3     1  UNL1        0.0686
     10 C          -0.7750    3.0409   23.4062 C.3     1  UNL1        0.0188
     11 C          -0.0493    2.8795   22.1034 C.3     1  UNL1        0.0213
     12 H          -1.8036    4.0925   26.1422 H       1  UNL1        0.1232
     13 C           7.4420    0.2285   18.5391 C.3     1  UNL1        0.1321
     14 N           6.1004    0.8653   18.7505 N.ar    1  UNL1       -0.3057
     15 C           5.1541    1.3061   17.6734 C.ar    1  UNL1        0.1787
     16 N           3.9385    1.8863   18.3335 N.ar    1  UNL1       -0.2192
     17 C           4.1336    1.8041   19.8184 C.ar    1  UNL1        0.1535
     18 C           5.4697    1.1731   20.0762 C.ar    1  UNL1        0.1012
     19 C           1.8249    0.0585   20.6078 C.3     1  UNL1        0.1204
     20 C           2.7358   -1.0787   20.9640 C.ar    1  UNL1       -0.0022
     21 C           3.2777   -1.1973   22.3577 C.ar    1  UNL1       -0.0003
     22 C           4.1888   -2.3346   22.7139 C.ar    1  UNL1        0.0293
     23 C           4.5577   -3.3531   21.6764 C.ar    1  UNL1        0.1440
     24 F           5.4687   -4.4904   22.0326 F       1  UNL1       -0.2042
     25 C           4.0158   -3.2345   20.2828 C.ar    1  UNL1        0.0985
     26 C           3.1049   -2.0973   19.9266 C.ar    1  UNL1        0.0035
     27 C           4.3848   -4.2531   19.2453 C.3     1  UNL1        0.4207
     28 F           4.7538   -5.2717   18.2078 F       1  UNL1       -0.1658
     29 F           2.9887   -4.7999   19.2857 F       1  UNL1       -0.1658
     30 F           5.7809   -3.7062   19.2050 F       1  UNL1       -0.1658
@<TRIPOS>BOND
     1    13    14    1
     2    14    15   ar
     3    15    16   ar
     4    16    17   ar
     5    17     1    1
     6     1     2    2
     7     1     3   am
     8     3    19    1
     9    19    20    1
    10    20    21   ar
    11    21    22   ar
    12    22    23   ar
    13    23    24    1
    14    23    25   ar
    15    25    27    1
    16    27    28    1
    17    27    29    1
    18    27    30    1
    19    25    26   ar
    20     4     3    1
    21     4     5    1
    22     6     5    1
    23     6     7    1
    24     7     8    1
    25     8     9    1
    26    10     9    1
    27    10    11    1
    28    17    18   ar
    29    18    14   ar
    30    26    20   ar
    31    11     4    1
    32    10     6    1
    33     8    12    1
