@<TRIPOS>MOLECULE
*****
 33 36 0 0 0
SMALL
GASTEIGER

@<TRIPOS>ATOM
      1 N          -6.0401  -21.5343   19.7743 N.pl3   1  UNL1       -0.3287
      2 C          -5.5809  -20.4239   20.6722 C.ar    1  UNL1        0.1959
      3 N          -4.1589  -20.1152   21.0362 N.ar    1  UNL1       -0.2123
      4 C          -4.1623  -18.9278   21.9528 C.ar    1  UNL1        0.1184
      5 C          -3.0526  -18.1788   22.6291 C.ar    1  UNL1        0.0271
      6 C          -3.3671  -17.0046   23.5079 C.ar    1  UNL1        0.0594
      7 C          -4.7912  -16.5794   23.7103 C.ar    1  UNL1        0.2262
      8 N          -5.9009  -17.3284   23.0339 N.ar    1  UNL1       -0.1926
      9 C          -5.5865  -18.5026   22.1551 C.ar    1  UNL1        0.1668
     10 N          -6.4632  -19.4272   21.3637 N.ar    1  UNL1       -0.2824
     11 H          -5.3813  -22.1404   19.3646 H       1  UNL1        0.1451
     12 H          -7.0002  -21.6570   19.5947 H       1  UNL1        0.1451
     13 O          -5.1057  -15.4051   24.5892 O.3     1  UNL1       -0.4613
     14 C          -6.3784  -15.3817   25.3826 C.3     1  UNL1        0.1995
     15 C          -6.4973  -15.5815   26.8644 C.3     1  UNL1        0.0783
     16 C          -7.9481  -15.4776   27.2312 C.3     1  UNL1        0.1461
     17 O          -8.7258  -15.2135   25.9760 O.3     1  UNL1       -0.3498
     18 C          -7.7556  -15.1542   24.8335 C.3     1  UNL1        0.1855
     19 C          -7.9595  -19.3659   21.2788 C.3     1  UNL1        0.1438
     20 C          -8.6812  -18.1061   21.6552 C.3     1  UNL1        0.1561
     21 O          -8.0640  -16.7712   21.3595 O.3     1  UNL1       -0.3780
     22 H          -8.6563  -16.0664   21.6649 H       1  UNL1        0.2109
     23 C         -10.0200  -18.1808   22.3275 C.ar    1  UNL1        0.0167
     24 C         -10.1239  -18.6789   23.7386 C.ar    1  UNL1       -0.0011
     25 C         -11.4628  -18.7537   24.4109 C.ar    1  UNL1        0.0037
     26 C         -12.6977  -18.3304   23.6721 C.ar    1  UNL1        0.0722
     27 C         -12.5937  -17.8323   22.2611 C.ar    1  UNL1        0.0150
     28 C         -11.2549  -17.7576   21.5888 C.ar    1  UNL1        0.0559
     29 CL        -11.1510  -17.2595   20.1777 Cl      1  UNL1       -0.0825
     30 C         -14.0366  -18.4051   24.3443 C.3     1  UNL1        0.4186
     31 F         -15.3754  -18.4799   25.0166 F       1  UNL1       -0.1659
     32 F         -13.3603  -18.5196   25.6783 F       1  UNL1       -0.1659
     33 F         -14.7127  -18.2906   23.0103 F       1  UNL1       -0.1659
@<TRIPOS>BOND
     1     1     2    1
     2     2     3   ar
     3     3     4   ar
     4     4     5   ar
     5     5     6   ar
     6     6     7   ar
     7     7    13    1
     8    13    14    1
     9    14    15    1
    10    15    16    1
    11    16    17    1
    12    17    18    1
    13     7     8   ar
    14     8     9   ar
    15     9    10   ar
    16    10    19    1
    17    19    20    1
    18    20    21    1
    19    20    23    1
    20    23    24   ar
    21    24    25   ar
    22    25    26   ar
    23    26    30    1
    24    30    31    1
    25    30    32    1
    26    30    33    1
    27    26    27   ar
    28    27    28   ar
    29    28    29    1
    30    10     2   ar
    31    28    23   ar
    32     9     4   ar
    33    18    14    1
    34     1    11    1
    35     1    12    1
    36    21    22    1
@<TRIPOS>MOLECULE
*****
 33 36 0 0 0
SMALL
GASTEIGER

@<TRIPOS>ATOM
      1 N          -4.2410  -21.5236   19.7440 N.pl3   1  UNL1       -0.3287
      2 C          -4.1136  -20.2470   20.5211 C.ar    1  UNL1        0.1959
      3 N          -2.8713  -19.4171   20.6560 N.ar    1  UNL1       -0.2123
      4 C          -3.1960  -18.2333   21.5180 C.ar    1  UNL1        0.1184
      5 C          -2.3643  -17.0786   21.9920 C.ar    1  UNL1        0.0271
      6 C          -2.9754  -16.0221   22.8639 C.ar    1  UNL1        0.0594
      7 C          -4.4183  -16.1202   23.2618 C.ar    1  UNL1        0.2262
      8 N          -5.2501  -17.2749   22.7877 N.ar    1  UNL1       -0.1926
      9 C          -4.6390  -18.3314   21.9158 C.ar    1  UNL1        0.1668
     10 N          -5.2060  -19.5760   21.2997 N.ar    1  UNL1       -0.2824
     11 H          -3.4626  -21.8868   19.2628 H       1  UNL1        0.1451
     12 H          -5.1029  -21.9984   19.7151 H       1  UNL1        0.1451
     13 O          -5.0295  -15.0636   24.1337 O.3     1  UNL1       -0.4613
     14 C          -6.1561  -15.4147   25.0597 C.3     1  UNL1        0.1995
     15 C          -7.5995  -15.5575   24.6776 C.3     1  UNL1        0.0783
     16 C          -8.3726  -15.9156   25.9122 C.3     1  UNL1        0.1461
     17 O          -7.4068  -15.9941   27.0573 O.3     1  UNL1       -0.3498
     18 C          -6.0370  -15.6845   26.5304 C.3     1  UNL1        0.1855
     19 C          -6.6177  -20.0638   21.4379 C.3     1  UNL1        0.1438
     20 C          -7.7293  -19.3567   20.7208 C.3     1  UNL1        0.1561
     21 O          -7.5582  -18.9512   19.2867 O.3     1  UNL1       -0.3780
     22 H          -8.3641  -18.5087   18.9775 H       1  UNL1        0.2109
     23 C          -9.0120  -19.0551   21.4375 C.ar    1  UNL1        0.0167
     24 C          -8.9830  -18.5902   22.8634 C.ar    1  UNL1       -0.0011
     25 C         -10.2657  -18.2886   23.5801 C.ar    1  UNL1        0.0037
     26 C         -11.5773  -18.4517   22.8710 C.ar    1  UNL1        0.0722
     27 C         -11.6063  -18.9166   21.4451 C.ar    1  UNL1        0.0150
     28 C         -10.3236  -19.2182   20.7284 C.ar    1  UNL1        0.0559
     29 CL        -10.3526  -19.6831   19.3025 Cl      1  UNL1       -0.0825
     30 C         -12.8601  -18.1501   23.5877 C.3     1  UNL1        0.4186
     31 F         -14.1429  -17.8484   24.3042 F       1  UNL1       -0.1659
     32 F         -13.5003  -17.7756   22.2839 F       1  UNL1       -0.1659
     33 F         -12.2198  -18.5246   24.8913 F       1  UNL1       -0.1659
@<TRIPOS>BOND
     1     1     2    1
     2     2     3   ar
     3     3     4   ar
     4     4     5   ar
     5     5     6   ar
     6     6     7   ar
     7     7    13    1
     8    13    14    1
     9    14    15    1
    10    15    16    1
    11    16    17    1
    12    17    18    1
    13     7     8   ar
    14     8     9   ar
    15     9    10   ar
    16    10    19    1
    17    19    20    1
    18    20    21    1
    19    20    23    1
    20    23    24   ar
    21    24    25   ar
    22    25    26   ar
    23    26    30    1
    24    30    31    1
    25    30    32    1
    26    30    33    1
    27    26    27   ar
    28    27    28   ar
    29    28    29    1
    30    10     2   ar
    31    28    23   ar
    32     9     4   ar
    33    18    14    1
    34     1    11    1
    35     1    12    1
    36    21    22    1
@<TRIPOS>MOLECULE
*****
 33 36 0 0 0
SMALL
GASTEIGER

@<TRIPOS>ATOM
      1 N          -2.0566  -19.9902   21.2561 N.pl3   1  UNL1       -0.3287
      2 C          -3.0189  -19.0779   21.9574 C.ar    1  UNL1        0.1959
      3 N          -2.7535  -18.3240   23.2267 N.ar    1  UNL1       -0.2123
      4 C          -3.9861  -17.5395   23.5663 C.ar    1  UNL1        0.1184
      5 C          -4.3058  -16.6150   24.7033 C.ar    1  UNL1        0.0271
      6 C          -5.6528  -15.9595   24.7809 C.ar    1  UNL1        0.0594
      7 C          -6.6800  -16.2286   23.7215 C.ar    1  UNL1        0.2262
      8 N          -6.3602  -17.1532   22.5844 N.ar    1  UNL1       -0.1926
      9 C          -5.0133  -17.8087   22.5068 C.ar    1  UNL1        0.1668
     10 N          -4.4155  -18.7594   21.5125 N.ar    1  UNL1       -0.2824
     11 H          -1.1569  -20.1366   21.6282 H       1  UNL1        0.1451
     12 H          -2.3246  -20.4425   20.4238 H       1  UNL1        0.1451
     13 O          -8.0270  -15.5731   23.7991 O.3     1  UNL1       -0.4613
     14 C          -9.2511  -16.4023   24.0517 C.3     1  UNL1        0.1995
     15 C          -9.3559  -17.5501   25.0115 C.3     1  UNL1        0.0783
     16 C         -10.7550  -18.0865   24.9418 C.3     1  UNL1        0.1461
     17 O         -11.5150  -17.2700   23.9388 O.3     1  UNL1       -0.3498
     18 C         -10.5855  -16.2292   23.3887 C.3     1  UNL1        0.1855
     19 C          -5.0951  -19.2973   20.2882 C.3     1  UNL1        0.1438
     20 C          -6.1674  -20.3375   20.4215 C.3     1  UNL1        0.1561
     21 O          -5.8096  -21.7936   20.3764 O.3     1  UNL1       -0.3780
     22 H          -6.6134  -22.3273   20.4764 H       1  UNL1        0.2109
     23 C          -7.5976  -19.9219   20.5998 C.ar    1  UNL1        0.0167
     24 C          -8.1950  -19.8606   21.9744 C.ar    1  UNL1       -0.0011
     25 C          -9.6252  -19.4450   22.1527 C.ar    1  UNL1        0.0037
     26 C         -10.4580  -19.0906   20.9566 C.ar    1  UNL1        0.0722
     27 C          -9.8606  -19.1519   19.5820 C.ar    1  UNL1        0.0150
     28 C          -8.4304  -19.5676   19.4037 C.ar    1  UNL1        0.0559
     29 CL         -7.8330  -19.6288   18.0291 Cl      1  UNL1       -0.0825
     30 C         -11.8882  -18.6750   21.1348 C.3     1  UNL1        0.4186
     31 F         -13.3184  -18.2593   21.3130 F       1  UNL1       -0.1659
     32 F         -11.7686  -17.7572   19.9544 F       1  UNL1       -0.1659
     33 F         -12.0078  -19.5928   22.3152 F       1  UNL1       -0.1659
@<TRIPOS>BOND
     1     1     2    1
     2     2     3   ar
     3     3     4   ar
     4     4     5   ar
     5     5     6   ar
     6     6     7   ar
     7     7    13    1
     8    13    14    1
     9    14    15    1
    10    15    16    1
    11    16    17    1
    12    17    18    1
    13     7     8   ar
    14     8     9   ar
    15     9    10   ar
    16    10    19    1
    17    19    20    1
    18    20    21    1
    19    20    23    1
    20    23    24   ar
    21    24    25   ar
    22    25    26   ar
    23    26    30    1
    24    30    31    1
    25    30    32    1
    26    30    33    1
    27    26    27   ar
    28    27    28   ar
    29    28    29    1
    30    10     2   ar
    31    28    23   ar
    32     9     4   ar
    33    18    14    1
    34     1    11    1
    35     1    12    1
    36    21    22    1
@<TRIPOS>MOLECULE
*****
 33 36 0 0 0
SMALL
GASTEIGER

@<TRIPOS>ATOM
      1 N           2.0270    4.3301   18.0960 N.pl3   1  UNL1       -0.3287
      2 C           0.6141    4.1808   18.5770 C.ar    1  UNL1        0.1959
      3 N          -0.5786    4.9249   18.0540 N.ar    1  UNL1       -0.2123
      4 C          -1.7840    4.4653   18.8193 C.ar    1  UNL1        0.1184
      5 C          -3.2315    4.8501   18.7378 C.ar    1  UNL1        0.0271
      6 C          -4.2312    4.2067   19.6525 C.ar    1  UNL1        0.0594
      7 C          -3.7834    3.1784   20.6485 C.ar    1  UNL1        0.2262
      8 N          -2.3360    2.7936   20.7299 N.ar    1  UNL1       -0.1926
      9 C          -1.3363    3.4370   19.8153 C.ar    1  UNL1        0.1668
     10 N           0.1458    3.2612   19.6656 N.ar    1  UNL1       -0.2824
     11 H           2.2362    4.9635   17.3720 H       1  UNL1        0.1451
     12 H           2.7452    3.7946   18.5043 H       1  UNL1        0.1451
     13 O          -4.7832    2.5350   21.5632 O.3     1  UNL1       -0.4613
     14 C          -5.2407    3.2530   22.7982 C.3     1  UNL1        0.1995
     15 C          -4.5251    3.2839   24.1161 C.3     1  UNL1        0.0783
     16 C          -5.3362    4.1161   25.0645 C.3     1  UNL1        0.1461
     17 O          -6.5532    4.5995   24.3328 O.3     1  UNL1       -0.3498
     18 C          -6.4941    4.0660   22.9321 C.3     1  UNL1        0.1855
     19 C           1.0083    2.3293   20.4643 C.3     1  UNL1        0.1438
     20 C           0.9509    0.8520   20.2113 C.3     1  UNL1        0.1561
     21 O          -0.3082    0.0898   20.5010 O.3     1  UNL1       -0.3780
     22 H          -0.1768   -0.8463   20.2834 H       1  UNL1        0.2109
     23 C           2.1524    0.1367   19.6685 C.ar    1  UNL1        0.0167
     24 C           2.5072    0.2616   18.2164 C.ar    1  UNL1       -0.0011
     25 C           3.7087   -0.4537   17.6737 C.ar    1  UNL1        0.0037
     26 C           4.5556   -1.2939   18.5830 C.ar    1  UNL1        0.0722
     27 C           4.2008   -1.4189   20.0350 C.ar    1  UNL1        0.0150
     28 C           2.9993   -0.7035   20.5778 C.ar    1  UNL1        0.0559
     29 CL          2.6445   -0.8285   22.0299 Cl      1  UNL1       -0.0825
     30 C           5.7572   -2.0093   18.0403 C.3     1  UNL1        0.4186
     31 F           6.9587   -2.7247   17.4976 F       1  UNL1       -0.1659
     32 F           5.1444   -3.3252   18.4184 F       1  UNL1       -0.1659
     33 F           6.3697   -0.6934   17.6621 F       1  UNL1       -0.1659
@<TRIPOS>BOND
     1     1     2    1
     2     2     3   ar
     3     3     4   ar
     4     4     5   ar
     5     5     6   ar
     6     6     7   ar
     7     7    13    1
     8    13    14    1
     9    14    15    1
    10    15    16    1
    11    16    17    1
    12    17    18    1
    13     7     8   ar
    14     8     9   ar
    15     9    10   ar
    16    10    19    1
    17    19    20    1
    18    20    21    1
    19    20    23    1
    20    23    24   ar
    21    24    25   ar
    22    25    26   ar
    23    26    30    1
    24    30    31    1
    25    30    32    1
    26    30    33    1
    27    26    27   ar
    28    27    28   ar
    29    28    29    1
    30    10     2   ar
    31    28    23   ar
    32     9     4   ar
    33    18    14    1
    34     1    11    1
    35     1    12    1
    36    21    22    1
@<TRIPOS>MOLECULE
*****
 33 36 0 0 0
SMALL
GASTEIGER

@<TRIPOS>ATOM
      1 N           8.1055   -3.6683   20.7163 N.pl3   1  UNL1       -0.3287
      2 C           7.8736   -4.3003   22.0568 C.ar    1  UNL1        0.1959
      3 N           8.2968   -5.6799   22.4661 N.ar    1  UNL1       -0.2123
      4 C           7.8626   -5.8960   23.8855 C.ar    1  UNL1        0.1184
      5 C           8.0076   -7.0664   24.8123 C.ar    1  UNL1        0.0271
      6 C           7.4611   -6.9907   26.2072 C.ar    1  UNL1        0.0594
      7 C           6.7697   -5.7446   26.6752 C.ar    1  UNL1        0.2262
      8 N           6.6247   -4.5741   25.7483 N.ar    1  UNL1       -0.1926
      9 C           7.1712   -4.6499   24.3535 C.ar    1  UNL1        0.1668
     10 N           7.1780   -3.6637   23.2233 N.ar    1  UNL1       -0.2824
     11 H           8.5746   -4.1691   20.0104 H       1  UNL1        0.1451
     12 H           7.7885   -2.7525   20.5424 H       1  UNL1        0.1451
     13 O           6.2232   -5.6689   28.0701 O.3     1  UNL1       -0.4613
     14 C           7.1261   -5.3029   29.2105 C.3     1  UNL1        0.1995
     15 C           8.3893   -4.4999   29.1123 C.3     1  UNL1        0.0783
     16 C           8.9683   -4.3764   30.4905 C.3     1  UNL1        0.1461
     17 O           8.0631   -5.1032   31.4405 O.3     1  UNL1       -0.3498
     18 C           6.9246   -5.6758   30.6494 C.3     1  UNL1        0.1855
     19 C           6.5920   -2.2832   23.2542 C.3     1  UNL1        0.1438
     20 C           5.1218   -2.0975   23.4858 C.3     1  UNL1        0.1561
     21 O           4.5196   -2.4596   24.8112 O.3     1  UNL1       -0.3780
     22 H           3.5667   -2.2794   24.7934 H       1  UNL1        0.2109
     23 C           4.2535   -1.5497   22.3922 C.ar    1  UNL1        0.0167
     24 C           3.7343   -0.1452   22.4792 C.ar    1  UNL1       -0.0011
     25 C           2.8659    0.4026   21.3856 C.ar    1  UNL1        0.0037
     26 C           2.5168   -0.4542   20.2049 C.ar    1  UNL1        0.0722
     27 C           3.0360   -1.8588   20.1179 C.ar    1  UNL1        0.0150
     28 C           3.9043   -2.4065   21.2115 C.ar    1  UNL1        0.0559
     29 CL          4.4236   -3.8111   21.1245 Cl      1  UNL1       -0.0825
     30 C           1.6485    0.0935   19.1113 C.3     1  UNL1        0.4186
     31 F           0.7803    0.6412   18.0175 F       1  UNL1       -0.1659
     32 F           2.8645    0.3343   18.2666 F       1  UNL1       -0.1659
     33 F           0.4327   -0.1474   19.9560 F       1  UNL1       -0.1659
@<TRIPOS>BOND
     1     1     2    1
     2     2     3   ar
     3     3     4   ar
     4     4     5   ar
     5     5     6   ar
     6     6     7   ar
     7     7    13    1
     8    13    14    1
     9    14    15    1
    10    15    16    1
    11    16    17    1
    12    17    18    1
    13     7     8   ar
    14     8     9   ar
    15     9    10   ar
    16    10    19    1
    17    19    20    1
    18    20    21    1
    19    20    23    1
    20    23    24   ar
    21    24    25   ar
    22    25    26   ar
    23    26    30    1
    24    30    31    1
    25    30    32    1
    26    30    33    1
    27    26    27   ar
    28    27    28   ar
    29    28    29    1
    30    10     2   ar
    31    28    23   ar
    32     9     4   ar
    33    18    14    1
    34     1    11    1
    35     1    12    1
    36    21    22    1
@<TRIPOS>MOLECULE
*****
 33 36 0 0 0
SMALL
GASTEIGER

@<TRIPOS>ATOM
      1 N           2.8223    3.2081   20.7924 N.pl3   1  UNL1       -0.3287
      2 C           1.8719    3.0495   21.9420 C.ar    1  UNL1        0.1959
      3 N           0.5550    3.7499   22.1004 N.ar    1  UNL1       -0.2123
      4 C          -0.0593    3.2960   23.3914 C.ar    1  UNL1        0.1184
      5 C          -1.3509    3.6491   24.0672 C.ar    1  UNL1        0.0271
      6 C          -1.7053    3.0212   25.3825 C.ar    1  UNL1        0.0594
      7 C          -0.7680    2.0402   26.0220 C.ar    1  UNL1        0.2262
      8 N           0.5237    1.6870   25.3462 N.ar    1  UNL1       -0.1926
      9 C           0.8781    2.3149   24.0309 C.ar    1  UNL1        0.1668
     10 N           2.0716    2.1626   23.1352 N.ar    1  UNL1       -0.2824
     11 H           2.6014    3.8178   20.0517 H       1  UNL1        0.1451
     12 H           3.6669    2.7025   20.7787 H       1  UNL1        0.1451
     13 O          -1.1224    1.4123   27.3374 O.3     1  UNL1       -0.4613
     14 C          -0.0483    1.1208   28.3430 C.3     1  UNL1        0.1995
     15 C           0.9131    2.1172   28.9201 C.3     1  UNL1        0.0783
     16 C           1.8086    1.3939   29.8818 C.3     1  UNL1        0.1461
     17 O           1.4007   -0.0495   29.8991 O.3     1  UNL1       -0.3498
     18 C           0.2531   -0.2183   28.9481 C.3     1  UNL1        0.1855
     19 C           3.2567    1.2786   23.3882 C.3     1  UNL1        0.1438
     20 C           3.0596   -0.1878   23.6346 C.3     1  UNL1        0.1561
     21 O           2.5473   -0.6631   24.9619 O.3     1  UNL1       -0.3780
     22 H           2.4784   -1.6306   24.9543 H       1  UNL1        0.2109
     23 C           3.3747   -1.1790   22.5538 C.ar    1  UNL1        0.0167
     24 C           2.7661   -1.0224   21.1917 C.ar    1  UNL1       -0.0011
     25 C           3.0813   -2.0136   20.1109 C.ar    1  UNL1        0.0037
     26 C           4.0050   -3.1615   20.3921 C.ar    1  UNL1        0.0722
     27 C           4.6136   -3.3181   21.7541 C.ar    1  UNL1        0.0150
     28 C           4.2984   -2.3269   22.8349 C.ar    1  UNL1        0.0559
     29 CL          4.9070   -2.4835   24.1970 Cl      1  UNL1       -0.0825
     30 C           4.3202   -4.1528   19.3114 C.3     1  UNL1        0.4186
     31 F           4.6353   -5.1441   18.2306 F       1  UNL1       -0.1659
     32 F           2.8541   -4.3385   19.0543 F       1  UNL1       -0.1659
     33 F           5.7862   -3.9670   19.5685 F       1  UNL1       -0.1659
@<TRIPOS>BOND
     1     1     2    1
     2     2     3   ar
     3     3     4   ar
     4     4     5   ar
     5     5     6   ar
     6     6     7   ar
     7     7    13    1
     8    13    14    1
     9    14    15    1
    10    15    16    1
    11    16    17    1
    12    17    18    1
    13     7     8   ar
    14     8     9   ar
    15     9    10   ar
    16    10    19    1
    17    19    20    1
    18    20    21    1
    19    20    23    1
    20    23    24   ar
    21    24    25   ar
    22    25    26   ar
    23    26    30    1
    24    30    31    1
    25    30    32    1
    26    30    33    1
    27    26    27   ar
    28    27    28   ar
    29    28    29    1
    30    10     2   ar
    31    28    23   ar
    32     9     4   ar
    33    18    14    1
    34     1    11    1
    35     1    12    1
    36    21    22    1
@<TRIPOS>MOLECULE
*****
 33 36 0 0 0
SMALL
GASTEIGER

@<TRIPOS>ATOM
      1 N           1.4553    3.3350   24.2852 N.pl3   1  UNL1       -0.3287
      2 C           2.0282    3.2927   22.8995 C.ar    1  UNL1        0.1959
      3 N           1.6522    4.1954   21.7621 N.ar    1  UNL1       -0.2123
      4 C           2.4693    3.8009   20.5676 C.ar    1  UNL1        0.1184
      5 C           2.5250    4.3376   19.1680 C.ar    1  UNL1        0.0271
      6 C           3.4616    3.7278   18.1677 C.ar    1  UNL1        0.0594
      7 C           4.3427    2.5813   18.5670 C.ar    1  UNL1        0.2262
      8 N           4.2871    2.0447   19.9665 N.ar    1  UNL1       -0.1926
      9 C           3.3504    2.6545   20.9669 C.ar    1  UNL1        0.1668
     10 N           3.0777    2.3404   22.4081 N.ar    1  UNL1       -0.2824
     11 H           0.7665    4.0005   24.5130 H       1  UNL1        0.1451
     12 H           1.7681    2.6972   24.9668 H       1  UNL1        0.1451
     13 O           5.2794    1.9715   17.5665 O.3     1  UNL1       -0.4613
     14 C           5.5211    0.4911   17.5706 C.3     1  UNL1        0.1995
     15 C           6.7025   -0.2077   18.1755 C.3     1  UNL1        0.0783
     16 C           6.5353   -1.6811   17.9492 C.3     1  UNL1        0.1461
     17 O           5.2505   -1.8929   17.2045 O.3     1  UNL1       -0.3498
     18 C           4.6237   -0.5504   16.9705 C.3     1  UNL1        0.1855
     19 C           3.7387    1.2631   23.2159 C.3     1  UNL1        0.1438
     20 C           3.0898   -0.0831   23.3442 C.3     1  UNL1        0.1561
     21 O           2.1277   -0.3483   24.4642 O.3     1  UNL1       -0.3780
     22 H           1.8021   -1.2599   24.4017 H       1  UNL1        0.2109
     23 C           3.4029   -1.1642   22.3527 C.ar    1  UNL1        0.0167
     24 C           2.8538   -1.0857   20.9591 C.ar    1  UNL1       -0.0011
     25 C           3.1669   -2.1669   19.9676 C.ar    1  UNL1        0.0037
     26 C           4.0291   -3.3265   20.3697 C.ar    1  UNL1        0.0722
     27 C           4.5782   -3.4051   21.7634 C.ar    1  UNL1        0.0150
     28 C           4.2651   -2.3239   22.7549 C.ar    1  UNL1        0.0559
     29 CL          4.8142   -2.4024   24.1486 Cl      1  UNL1       -0.0825
     30 C           4.3422   -4.4078   19.3783 C.3     1  UNL1        0.4186
     31 F           4.6555   -5.4890   18.3868 F       1  UNL1       -0.1659
     32 F           5.7870   -4.3558   19.7781 F       1  UNL1       -0.1659
     33 F           2.8975   -4.4596   18.9785 F       1  UNL1       -0.1659
@<TRIPOS>BOND
     1     1     2    1
     2     2     3   ar
     3     3     4   ar
     4     4     5   ar
     5     5     6   ar
     6     6     7   ar
     7     7    13    1
     8    13    14    1
     9    14    15    1
    10    15    16    1
    11    16    17    1
    12    17    18    1
    13     7     8   ar
    14     8     9   ar
    15     9    10   ar
    16    10    19    1
    17    19    20    1
    18    20    21    1
    19    20    23    1
    20    23    24   ar
    21    24    25   ar
    22    25    26   ar
    23    26    30    1
    24    30    31    1
    25    30    32    1
    26    30    33    1
    27    26    27   ar
    28    27    28   ar
    29    28    29    1
    30    10     2   ar
    31    28    23   ar
    32     9     4   ar
    33    18    14    1
    34     1    11    1
    35     1    12    1
    36    21    22    1
