@<TRIPOS>MOLECULE
*****
 40 44 0 0 0
SMALL
GASTEIGER

@<TRIPOS>ATOM
      1 C           3.0842    1.8993   18.6168 C.2     1  UNL1        0.0905
      2 C           2.3750    0.5867   18.4622 C.2     1  UNL1        0.1173
      3 O           0.9168    0.5588   18.1115 O.2     1  UNL1       -0.5097
      4 C           3.1239   -0.6981   18.6583 C.3     1  UNL1        0.1035
      5 C           4.5821   -0.6703   19.0090 C.3     1  UNL1        0.1435
      6 O           5.2913    0.6425   19.1636 O.3     1  UNL1       -0.4524
      7 C           4.5424    1.9273   18.9675 C.2     1  UNL1        0.3400
      8 O           5.2516    3.2399   19.1222 O.2     1  UNL1       -0.2451
      9 H           0.4490    1.3614   17.9890 H       1  UNL1        0.2917
     10 C           4.3514   -2.1519   18.9717 C.3     1  UNL1        0.0372
     11 C           3.1551   -2.8720   19.5198 C.3     1  UNL1        0.0035
     12 C           3.3407   -4.3388   19.2666 C.3     1  UNL1        0.0001
     13 C           4.6517   -4.5252   18.5621 C.3     1  UNL1        0.0001
     14 C           5.2764   -3.1737   18.3798 C.3     1  UNL1        0.0035
     15 C           2.3353    3.1841   18.4207 C.3     1  UNL1        0.1032
     16 C          -4.8006    3.1183   21.6914 C.3     1  UNL1        0.0522
     17 C          -3.7035    3.2975   20.6842 C.ar    1  UNL1        0.0637
     18 C          -4.0230    3.8049   19.3094 C.ar    1  UNL1        0.0296
     19 C          -2.9259    3.9842   18.3023 C.ar    1  UNL1        0.0651
     20 C          -3.2455    4.4916   16.9273 C.3     1  UNL1        0.0523
     21 N          -1.5092    3.6560   18.6702 N.ar    1  UNL1       -0.1994
     22 N          -0.2277    3.7311   17.8943 N.ar    1  UNL1       -0.1476
     23 C           0.8839    3.2701   18.7897 C.ar    1  UNL1        0.1669
     24 N           0.2894    2.9101   20.1190 N.ar    1  UNL1       -0.1930
     25 C          -1.1897    3.1486   20.0451 C.ar    1  UNL1        0.2536
     26 N          -2.2868    2.9694   21.0521 N.ar    1  UNL1       -0.2143
     27 C           5.9601   -1.1569   19.3468 C.3     1  UNL1        0.0452
     28 C           6.5998   -0.7574   20.6434 C.3     1  UNL1        0.0300
     29 C           6.7710   -1.7684   21.7381 C.ar    1  UNL1       -0.0212
     30 C           5.6455   -2.6979   22.0834 C.ar    1  UNL1       -0.0045
     31 C           5.8168   -3.7090   23.1782 C.ar    1  UNL1       -0.0028
     32 C           7.1136   -3.7904   23.9277 C.ar    1  UNL1        0.0009
     33 C           8.2391   -2.8609   23.5823 C.ar    1  UNL1        0.0543
     34 CL          9.5360   -2.9424   24.3318 Cl      1  UNL1       -0.0826
     35 C           8.0679   -1.8499   22.4876 C.ar    1  UNL1        0.0068
     36 C           7.2850   -4.8014   25.0224 C.3     1  UNL1        0.0988
     37 C           7.8260   -5.7861   24.0285 C.3     1  UNL1        0.0196
     38 C           6.7441   -3.8168   26.0164 C.3     1  UNL1        0.0196
     39 C           7.4563   -5.8124   26.1173 C.1     1  UNL1        0.0752
     40 N           7.6277   -6.8232   27.2122 N.1     1  UNL1       -0.1956
@<TRIPOS>BOND
     1    16    17    1
     2    17    18   ar
     3    18    19   ar
     4    19    20    1
     5    19    21   ar
     6    21    22   ar
     7    22    23   ar
     8    23    15    1
     9    15     1    1
    10     1     2    2
    11     2     3    1
    12     2     4    1
    13     4     5    1
    14     5    27    1
    15    27    28    1
    16    28    29    1
    17    29    30   ar
    18    30    31   ar
    19    31    32   ar
    20    32    36    1
    21    36    37    1
    22    36    38    1
    23    36    39    1
    24    39    40    3
    25    32    33   ar
    26    33    34    1
    27    33    35   ar
    28     5    10    1
    29    10    11    1
    30    11    12    1
    31    12    13    1
    32    13    14    1
    33     5     6    1
    34     6     7    1
    35     7     8    2
    36    23    24   ar
    37    24    25   ar
    38    25    26   ar
    39    26    17   ar
    40    25    21   ar
    41     7     1    1
    42    35    29   ar
    43    14    10    1
    44     3     9    1
@<TRIPOS>MOLECULE
*****
 40 44 0 0 0
SMALL
GASTEIGER

@<TRIPOS>ATOM
      1 C           8.6610   -4.8007   22.8794 C.2     1  UNL1        0.0905
      2 C           8.7658   -6.2530   23.2398 C.2     1  UNL1        0.1173
      3 O           8.9911   -7.2774   22.1676 O.2     1  UNL1       -0.5097
      4 C           8.6452   -6.6808   24.6725 C.3     1  UNL1        0.1035
      5 C           8.4199   -5.6564   25.7447 C.3     1  UNL1        0.1435
      6 O           8.3151   -4.2040   25.3843 O.3     1  UNL1       -0.4524
      7 C           8.4357   -3.7762   23.9516 C.2     1  UNL1        0.3400
      8 O           8.3309   -2.3239   23.5913 O.2     1  UNL1       -0.2451
      9 H           9.0664   -7.0101   21.2727 H       1  UNL1        0.2917
     10 C           8.4500   -6.9033   26.5779 C.3     1  UNL1        0.0372
     11 C           9.3700   -7.1703   27.7321 C.3     1  UNL1        0.0035
     12 C           9.0542   -8.5341   28.2709 C.3     1  UNL1        0.0001
     13 C           7.9389   -9.1099   27.4495 C.3     1  UNL1        0.0001
     14 C           7.5655   -8.1021   26.4033 C.3     1  UNL1        0.0035
     15 C           8.7816   -4.3729   21.4468 C.3     1  UNL1        0.1032
     16 C           3.6551    0.4116   17.9183 C.3     1  UNL1        0.0522
     17 C           4.2594   -0.8186   18.5279 C.ar    1  UNL1        0.0637
     18 C           3.4753   -2.0964   18.5722 C.ar    1  UNL1        0.0296
     19 C           4.0796   -3.3266   19.1817 C.ar    1  UNL1        0.0651
     20 C           3.2953   -4.6045   19.2260 C.3     1  UNL1        0.0523
     21 N           5.4682   -3.2788   19.7470 N.ar    1  UNL1       -0.1994
     22 N           6.3201   -4.3229   20.4057 N.ar    1  UNL1       -0.1476
     23 C           7.6309   -3.6903   20.7685 C.ar    1  UNL1        0.1669
     24 N           7.5891   -2.2552   20.3340 N.ar    1  UNL1       -0.1930
     25 C           6.2524   -2.0008   19.7027 C.ar    1  UNL1        0.2536
     26 N           5.6480   -0.7707   19.0931 N.ar    1  UNL1       -0.2143
     27 C           8.2050   -5.0649   27.1063 C.3     1  UNL1        0.0452
     28 C           6.8218   -4.6957   27.5539 C.3     1  UNL1        0.0300
     29 C           6.6196   -3.9941   28.8641 C.ar    1  UNL1       -0.0212
     30 C           6.8728   -4.7215   30.1513 C.ar    1  UNL1       -0.0045
     31 C           6.6706   -4.0199   31.4616 C.ar    1  UNL1       -0.0028
     32 C           6.2153   -2.5908   31.4847 C.ar    1  UNL1        0.0009
     33 C           5.9621   -1.8634   30.1975 C.ar    1  UNL1        0.0543
     34 CL          5.5068   -0.4344   30.2206 Cl      1  UNL1       -0.0826
     35 C           6.1643   -2.5651   28.8872 C.ar    1  UNL1        0.0068
     36 C           6.0131   -1.8891   32.7949 C.3     1  UNL1        0.0988
     37 C           7.4345   -1.4114   32.7585 C.3     1  UNL1        0.0196
     38 C           4.5916   -2.3668   32.8314 C.3     1  UNL1        0.0196
     39 C           5.8108   -1.1874   34.1052 C.1     1  UNL1        0.0752
     40 N           5.6085   -0.4857   35.4154 N.1     1  UNL1       -0.1956
@<TRIPOS>BOND
     1    16    17    1
     2    17    18   ar
     3    18    19   ar
     4    19    20    1
     5    19    21   ar
     6    21    22   ar
     7    22    23   ar
     8    23    15    1
     9    15     1    1
    10     1     2    2
    11     2     3    1
    12     2     4    1
    13     4     5    1
    14     5    27    1
    15    27    28    1
    16    28    29    1
    17    29    30   ar
    18    30    31   ar
    19    31    32   ar
    20    32    36    1
    21    36    37    1
    22    36    38    1
    23    36    39    1
    24    39    40    3
    25    32    33   ar
    26    33    34    1
    27    33    35   ar
    28     5    10    1
    29    10    11    1
    30    11    12    1
    31    12    13    1
    32    13    14    1
    33     5     6    1
    34     6     7    1
    35     7     8    2
    36    23    24   ar
    37    24    25   ar
    38    25    26   ar
    39    26    17   ar
    40    25    21   ar
    41     7     1    1
    42    35    29   ar
    43    14    10    1
    44     3     9    1
@<TRIPOS>MOLECULE
*****
 40 44 0 0 0
SMALL
GASTEIGER

@<TRIPOS>ATOM
      1 C           7.0280   -3.1028   20.3853 C.2     1  UNL1        0.0905
      2 C           7.3425   -1.6370   20.4346 C.2     1  UNL1        0.1173
      3 O           8.6871   -1.1741   20.9118 O.2     1  UNL1       -0.5097
      4 C           6.3124   -0.6340   20.0066 C.3     1  UNL1        0.1035
      5 C           4.9678   -1.0969   19.5294 C.3     1  UNL1        0.1435
      6 O           4.6533   -2.5628   19.4801 O.3     1  UNL1       -0.4524
      7 C           5.6833   -3.5657   19.9081 C.2     1  UNL1        0.3400
      8 O           5.3687   -5.0315   19.8588 O.2     1  UNL1       -0.2451
      9 H           9.3305   -1.8006   21.1791 H       1  UNL1        0.2917
     10 C           4.7946    0.3872   19.3970 C.3     1  UNL1        0.0372
     11 C           5.0867    1.4070   20.4574 C.3     1  UNL1        0.0035
     12 C           4.7715    2.7621   19.8968 C.3     1  UNL1        0.0001
     13 C           4.2845    2.5797   18.4899 C.3     1  UNL1        0.0001
     14 C           4.2987    1.1120   18.1809 C.3     1  UNL1        0.0035
     15 C           8.0580   -4.1057   20.8132 C.3     1  UNL1        0.1032
     16 C           8.0668   -8.7363   27.1521 C.3     1  UNL1        0.0522
     17 C           7.8868   -7.5328   26.2748 C.ar    1  UNL1        0.0637
     18 C           7.3484   -6.2575   26.8522 C.ar    1  UNL1        0.0296
     19 C           7.1685   -5.0541   25.9749 C.ar    1  UNL1        0.0651
     20 C           6.6300   -3.7787   26.5525 C.3     1  UNL1        0.0523
     21 N           7.5270   -5.1262   24.5202 N.ar    1  UNL1       -0.1994
     22 N           7.4587   -4.1109   23.4182 N.ar    1  UNL1       -0.1476
     23 C           7.9549   -4.7588   22.1597 C.ar    1  UNL1        0.1669
     24 N           8.3299   -6.1745   22.4838 N.ar    1  UNL1       -0.1930
     25 C           8.0654   -6.4016   23.9428 C.ar    1  UNL1        0.2536
     26 N           8.2454   -7.6049   24.8201 N.ar    1  UNL1       -0.2143
     27 C           3.5631   -1.0444   19.0062 C.3     1  UNL1        0.0452
     28 C           2.4123   -1.3647   19.9135 C.3     1  UNL1        0.0300
     29 C           2.1551   -0.5196   21.1257 C.ar    1  UNL1       -0.0212
     30 C           1.2487    0.6718   21.0308 C.ar    1  UNL1       -0.0045
     31 C           0.9915    1.5169   22.2431 C.ar    1  UNL1       -0.0028
     32 C           1.6407    1.1706   23.5503 C.ar    1  UNL1        0.0009
     33 C           2.5470   -0.0208   23.6452 C.ar    1  UNL1        0.0543
     34 CL          3.1962   -0.3672   24.9523 Cl      1  UNL1       -0.0826
     35 C           2.8043   -0.8660   22.4329 C.ar    1  UNL1        0.0068
     36 C           1.3835    2.0157   24.7626 C.3     1  UNL1        0.0988
     37 C           2.5884    2.8480   24.4380 C.3     1  UNL1        0.0196
     38 C           0.1786    1.1833   25.0872 C.3     1  UNL1        0.0196
     39 C           1.1262    2.8607   25.9750 C.1     1  UNL1        0.0752
     40 N           0.8690    3.7056   27.1874 N.1     1  UNL1       -0.1956
@<TRIPOS>BOND
     1    16    17    1
     2    17    18   ar
     3    18    19   ar
     4    19    20    1
     5    19    21   ar
     6    21    22   ar
     7    22    23   ar
     8    23    15    1
     9    15     1    1
    10     1     2    2
    11     2     3    1
    12     2     4    1
    13     4     5    1
    14     5    27    1
    15    27    28    1
    16    28    29    1
    17    29    30   ar
    18    30    31   ar
    19    31    32   ar
    20    32    36    1
    21    36    37    1
    22    36    38    1
    23    36    39    1
    24    39    40    3
    25    32    33   ar
    26    33    34    1
    27    33    35   ar
    28     5    10    1
    29    10    11    1
    30    11    12    1
    31    12    13    1
    32    13    14    1
    33     5     6    1
    34     6     7    1
    35     7     8    2
    36    23    24   ar
    37    24    25   ar
    38    25    26   ar
    39    26    17   ar
    40    25    21   ar
    41     7     1    1
    42    35    29   ar
    43    14    10    1
    44     3     9    1
@<TRIPOS>MOLECULE
*****
 40 44 0 0 0
SMALL
GASTEIGER

@<TRIPOS>ATOM
      1 C           0.1810    3.7403   22.7627 C.2     1  UNL1        0.0905
      2 C           1.5950    4.1395   22.4611 C.2     1  UNL1        0.1173
      3 O           2.4767    4.6617   23.5566 O.2     1  UNL1       -0.5097
      4 C           2.1275    4.0165   21.0642 C.3     1  UNL1        0.1035
      5 C           1.2458    3.4943   19.9688 C.3     1  UNL1        0.1435
      6 O          -0.1684    3.0951   20.2704 O.3     1  UNL1       -0.4524
      7 C          -0.7008    3.2181   21.6673 C.2     1  UNL1        0.3400
      8 O          -2.1149    2.8188   21.9688 O.2     1  UNL1       -0.2451
      9 H           2.1441    4.7385   24.4292 H       1  UNL1        0.2917
     10 C           2.5057    3.7421   19.1934 C.3     1  UNL1        0.0372
     11 C           2.6147    4.5136   17.9116 C.3     1  UNL1        0.0035
     12 C           4.0541    4.5103   17.4896 C.3     1  UNL1        0.0001
     13 C           4.8346    3.7366   18.5105 C.3     1  UNL1        0.0001
     14 C           3.8777    3.2619   19.5635 C.3     1  UNL1        0.0035
     15 C          -0.3515    3.8632   24.1596 C.3     1  UNL1        0.1032
     16 C           3.5602   -0.6944   29.2142 C.3     1  UNL1        0.0522
     17 C           2.4323    0.0028   28.5128 C.ar    1  UNL1        0.0637
     18 C           1.0193   -0.2121   28.9675 C.ar    1  UNL1        0.0296
     19 C          -0.1086    0.4850   28.2660 C.ar    1  UNL1        0.0651
     20 C          -1.5218    0.2700   28.7208 C.3     1  UNL1        0.0523
     21 N           0.1768    1.3970   27.1098 N.ar    1  UNL1       -0.1994
     22 N          -0.7225    2.2142   26.2304 N.ar    1  UNL1       -0.1476
     23 C           0.1349    2.9342   25.2321 C.ar    1  UNL1        0.1669
     24 N           1.5641    2.5620   25.4946 N.ar    1  UNL1       -0.1930
     25 C           1.5899    1.6119   26.6552 C.ar    1  UNL1        0.2536
     26 N           2.7177    0.9148   27.3566 N.ar    1  UNL1       -0.2143
     27 C           0.8016    3.0582   18.6041 C.3     1  UNL1        0.0452
     28 C           0.5311    1.6082   18.3312 C.3     1  UNL1        0.0300
     29 C           1.5364    0.5694   18.7312 C.ar    1  UNL1       -0.0212
     30 C           1.3552   -0.1974   20.0076 C.ar    1  UNL1       -0.0045
     31 C           2.3605   -1.2363   20.4077 C.ar    1  UNL1       -0.0028
     32 C           3.5471   -1.5084   19.5313 C.ar    1  UNL1        0.0009
     33 C           3.7284   -0.7415   18.2550 C.ar    1  UNL1        0.0543
     34 CL          4.9150   -1.0136   17.3786 Cl      1  UNL1       -0.0826
     35 C           2.7230    0.2973   17.8549 C.ar    1  UNL1        0.0068
     36 C           4.5525   -2.5472   19.9313 C.3     1  UNL1        0.0988
     37 C           5.3722   -1.4917   20.6125 C.3     1  UNL1        0.0196
     38 C           3.7328   -3.6028   19.2502 C.3     1  UNL1        0.0196
     39 C           5.5578   -3.5862   20.3313 C.1     1  UNL1        0.0752
     40 N           6.5631   -4.6251   20.7313 N.1     1  UNL1       -0.1956
@<TRIPOS>BOND
     1    16    17    1
     2    17    18   ar
     3    18    19   ar
     4    19    20    1
     5    19    21   ar
     6    21    22   ar
     7    22    23   ar
     8    23    15    1
     9    15     1    1
    10     1     2    2
    11     2     3    1
    12     2     4    1
    13     4     5    1
    14     5    27    1
    15    27    28    1
    16    28    29    1
    17    29    30   ar
    18    30    31   ar
    19    31    32   ar
    20    32    36    1
    21    36    37    1
    22    36    38    1
    23    36    39    1
    24    39    40    3
    25    32    33   ar
    26    33    34    1
    27    33    35   ar
    28     5    10    1
    29    10    11    1
    30    11    12    1
    31    12    13    1
    32    13    14    1
    33     5     6    1
    34     6     7    1
    35     7     8    2
    36    23    24   ar
    37    24    25   ar
    38    25    26   ar
    39    26    17   ar
    40    25    21   ar
    41     7     1    1
    42    35    29   ar
    43    14    10    1
    44     3     9    1
@<TRIPOS>MOLECULE
*****
 40 44 0 0 0
SMALL
GASTEIGER

@<TRIPOS>ATOM
      1 C           7.3126   -3.7802   31.1212 C.2     1  UNL1        0.0905
      2 C           7.0475   -5.2390   30.8937 C.2     1  UNL1        0.1173
      3 O           6.4804   -6.0794   31.9992 O.2     1  UNL1       -0.5097
      4 C           7.3495   -5.8573   29.5609 C.3     1  UNL1        0.1035
      5 C           7.9166   -5.0169   28.4554 C.3     1  UNL1        0.1435
      6 O           8.1817   -3.5581   28.6829 O.3     1  UNL1       -0.4524
      7 C           7.8797   -2.9397   30.0157 C.2     1  UNL1        0.3400
      8 O           8.1448   -1.4809   30.2430 O.2     1  UNL1       -0.2451
      9 H           6.2918   -5.6931   32.8318 H       1  UNL1        0.2917
     10 C           7.8391   -6.3438   27.7603 C.3     1  UNL1        0.0372
     11 C           6.9718   -6.6722   26.5813 C.3     1  UNL1        0.0035
     12 C           7.2118   -8.1067   26.2145 C.3     1  UNL1        0.0001
     13 C           8.2275   -8.6648   27.1668 C.3     1  UNL1        0.0001
     14 C           8.6151   -7.5754   28.1222 C.3     1  UNL1        0.0035
     15 C           7.0106   -3.1619   32.4540 C.3     1  UNL1        0.1032
     16 C           2.2559    2.7943   34.3352 C.3     1  UNL1        0.0522
     17 C           2.8675    1.6516   33.5800 C.ar    1  UNL1        0.0637
     18 C           2.2942    1.2336   32.2585 C.ar    1  UNL1        0.0296
     19 C           2.9058    0.0909   31.5033 C.ar    1  UNL1        0.0651
     20 C           2.3324   -0.3272   30.1817 C.3     1  UNL1        0.0523
     21 N           4.0907   -0.6338   32.0698 N.ar    1  UNL1       -0.1994
     22 N           4.8999   -1.7883   31.5577 N.ar    1  UNL1       -0.1476
     23 C           5.9734   -2.0838   32.5629 C.ar    1  UNL1        0.1669
     24 N           5.8276   -1.1119   33.6961 N.ar    1  UNL1       -0.1930
     25 C           4.6640   -0.2157   33.3913 C.ar    1  UNL1        0.2536
     26 N           4.0524    0.9270   34.1464 N.ar    1  UNL1       -0.2143
     27 C           8.4567   -4.6373   27.1086 C.3     1  UNL1        0.0452
     28 C           8.0972   -3.3132   26.5023 C.3     1  UNL1        0.0300
     29 C           7.6980   -3.2328   25.0587 C.ar    1  UNL1       -0.0212
     30 C           6.7444   -2.1688   24.6023 C.ar    1  UNL1       -0.0045
     31 C           6.3452   -2.0885   23.1586 C.ar    1  UNL1       -0.0028
     32 C           6.8998   -3.0722   22.1713 C.ar    1  UNL1        0.0009
     33 C           7.8534   -4.1363   22.6277 C.ar    1  UNL1        0.0543
     34 CL          8.4080   -5.1200   21.6404 Cl      1  UNL1       -0.0826
     35 C           8.2526   -4.2166   24.0714 C.ar    1  UNL1        0.0068
     36 C           6.5007   -2.9920   20.7276 C.3     1  UNL1        0.0988
     37 C           5.2974   -3.8409   21.0130 C.3     1  UNL1        0.0196
     38 C           7.7039   -2.1430   20.4421 C.3     1  UNL1        0.0196
     39 C           6.1016   -2.9116   19.2839 C.1     1  UNL1        0.0752
     40 N           5.7026   -2.8312   17.8401 N.1     1  UNL1       -0.1956
@<TRIPOS>BOND
     1    16    17    1
     2    17    18   ar
     3    18    19   ar
     4    19    20    1
     5    19    21   ar
     6    21    22   ar
     7    22    23   ar
     8    23    15    1
     9    15     1    1
    10     1     2    2
    11     2     3    1
    12     2     4    1
    13     4     5    1
    14     5    27    1
    15    27    28    1
    16    28    29    1
    17    29    30   ar
    18    30    31   ar
    19    31    32   ar
    20    32    36    1
    21    36    37    1
    22    36    38    1
    23    36    39    1
    24    39    40    3
    25    32    33   ar
    26    33    34    1
    27    33    35   ar
    28     5    10    1
    29    10    11    1
    30    11    12    1
    31    12    13    1
    32    13    14    1
    33     5     6    1
    34     6     7    1
    35     7     8    2
    36    23    24   ar
    37    24    25   ar
    38    25    26   ar
    39    26    17   ar
    40    25    21   ar
    41     7     1    1
    42    35    29   ar
    43    14    10    1
    44     3     9    1
@<TRIPOS>MOLECULE
*****
 40 44 0 0 0
SMALL
GASTEIGER

@<TRIPOS>ATOM
      1 C           1.4090    1.9071   20.5011 C.2     1  UNL1        0.0905
      2 C           2.7423    2.4555   20.0871 C.2     1  UNL1        0.1173
      3 O           3.0628    3.9025   20.3187 O.2     1  UNL1       -0.5097
      4 C           3.7552    1.5570   19.4416 C.3     1  UNL1        0.1035
      5 C           3.4348    0.1100   19.2100 C.3     1  UNL1        0.1435
      6 O           2.1014   -0.4384   19.6240 O.3     1  UNL1       -0.4524
      7 C           1.0885    0.4601   20.2696 C.2     1  UNL1        0.3400
      8 O          -0.2448   -0.0884   20.6835 O.2     1  UNL1       -0.2451
      9 H           2.4300    4.4637   20.7220 H       1  UNL1        0.2917
     10 C           4.8245    0.1623   18.6478 C.3     1  UNL1        0.0372
     11 C           5.1939    0.0507   17.1983 C.3     1  UNL1        0.0035
     12 C           6.6864    0.1548   17.0909 C.3     1  UNL1        0.0001
     13 C           7.2393    0.3308   18.4741 C.3     1  UNL1        0.0001
     14 C           6.0887    0.3355   19.4363 C.3     1  UNL1        0.0035
     15 C           0.3961    2.8056   21.1467 C.3     1  UNL1        0.1032
     16 C          -7.0143    3.8938   18.7962 C.3     1  UNL1        0.0522
     17 C          -5.5150    3.8469   18.7850 C.ar    1  UNL1        0.0637
     18 C          -4.7610    4.2590   17.5557 C.ar    1  UNL1        0.0296
     19 C          -3.2617    4.2122   17.5444 C.ar    1  UNL1        0.0651
     20 C          -2.5076    4.6244   16.3149 C.3     1  UNL1        0.0523
     21 N          -2.5166    3.7532   18.7627 N.ar    1  UNL1       -0.1994
     22 N          -1.0512    3.6028   19.0455 N.ar    1  UNL1       -0.1476
     23 C          -0.8997    3.0977   20.4497 C.ar    1  UNL1        0.1669
     24 N          -2.2714    2.9359   21.0348 N.ar    1  UNL1       -0.1930
     25 C          -3.2707    3.3410   19.9921 C.ar    1  UNL1        0.2536
     26 N          -4.7699    3.3879   20.0032 N.ar    1  UNL1       -0.2143
     27 C           3.5969   -1.3187   18.7832 C.3     1  UNL1        0.0452
     28 C           3.4140   -2.4246   19.7800 C.3     1  UNL1        0.0300
     29 C           4.3312   -2.5281   20.9623 C.ar    1  UNL1       -0.0212
     30 C           5.7148   -3.0818   20.7920 C.ar    1  UNL1       -0.0045
     31 C           6.6320   -3.1852   21.9744 C.ar    1  UNL1       -0.0028
     32 C           6.1656   -2.7349   23.3271 C.ar    1  UNL1        0.0009
     33 C           4.7820   -2.1812   23.4974 C.ar    1  UNL1        0.0543
     34 CL          4.3155   -1.7309   24.8501 Cl      1  UNL1       -0.0826
     35 C           3.8648   -2.0778   22.3150 C.ar    1  UNL1        0.0068
     36 C           7.0828   -2.8383   24.5096 C.3     1  UNL1        0.0988
     37 C           7.5955   -1.4561   24.2327 C.3     1  UNL1        0.0196
     38 C           6.5700   -4.2206   24.7864 C.3     1  UNL1        0.0196
     39 C           7.9999   -2.9419   25.6920 C.1     1  UNL1        0.0752
     40 N           8.9170   -3.0455   26.8745 N.1     1  UNL1       -0.1956
@<TRIPOS>BOND
     1    16    17    1
     2    17    18   ar
     3    18    19   ar
     4    19    20    1
     5    19    21   ar
     6    21    22   ar
     7    22    23   ar
     8    23    15    1
     9    15     1    1
    10     1     2    2
    11     2     3    1
    12     2     4    1
    13     4     5    1
    14     5    27    1
    15    27    28    1
    16    28    29    1
    17    29    30   ar
    18    30    31   ar
    19    31    32   ar
    20    32    36    1
    21    36    37    1
    22    36    38    1
    23    36    39    1
    24    39    40    3
    25    32    33   ar
    26    33    34    1
    27    33    35   ar
    28     5    10    1
    29    10    11    1
    30    11    12    1
    31    12    13    1
    32    13    14    1
    33     5     6    1
    34     6     7    1
    35     7     8    2
    36    23    24   ar
    37    24    25   ar
    38    25    26   ar
    39    26    17   ar
    40    25    21   ar
    41     7     1    1
    42    35    29   ar
    43    14    10    1
    44     3     9    1
@<TRIPOS>MOLECULE
*****
 40 44 0 0 0
SMALL
GASTEIGER

@<TRIPOS>ATOM
      1 C           1.6503    0.2203   28.5873 C.2     1  UNL1        0.0905
      2 C           2.5098    0.9489   27.5972 C.2     1  UNL1        0.1173
      3 O           4.0034    0.9110   27.7298 O.2     1  UNL1       -0.5097
      4 C           1.8757    1.7156   26.4746 C.3     1  UNL1        0.1035
      5 C           0.3821    1.7535   26.3420 C.3     1  UNL1        0.1435
      6 O          -0.4775    1.0248   27.3321 O.3     1  UNL1       -0.4524
      7 C           0.1566    0.2582   28.4547 C.2     1  UNL1        0.3400
      8 O          -0.7030   -0.4704   29.4447 O.2     1  UNL1       -0.2451
      9 H           4.3995    0.4321   28.4311 H       1  UNL1        0.2917
     10 C           0.7697    2.5971   25.1638 C.3     1  UNL1        0.0372
     11 C           0.3829    2.3485   23.7361 C.3     1  UNL1        0.0035
     12 C           0.9863    3.4351   22.8963 C.3     1  UNL1        0.0001
     13 C           1.7461    4.3552   23.8052 C.3     1  UNL1        0.0001
     14 C           1.6123    3.8374   25.2065 C.3     1  UNL1        0.0035
     15 C           2.2843   -0.5463   29.7099 C.3     1  UNL1        0.1032
     16 C           2.1591    3.7364   36.2875 C.3     1  UNL1        0.0522
     17 C           2.5586    2.7060   35.2731 C.ar    1  UNL1        0.0637
     18 C           3.7000    1.7757   35.5585 C.ar    1  UNL1        0.0296
     19 C           4.0995    0.7453   34.5442 C.ar    1  UNL1        0.0651
     20 C           5.2410   -0.1850   34.8297 C.3     1  UNL1        0.0523
     21 N           3.3574    0.6453   33.2445 N.ar    1  UNL1       -0.1994
     22 N           3.5220   -0.2628   32.0621 N.ar    1  UNL1       -0.1476
     23 C           2.4822    0.1063   31.0459 C.ar    1  UNL1        0.1669
     24 N           1.6750    1.2425   31.6003 N.ar    1  UNL1       -0.1930
     25 C           2.2159    1.5757   32.9591 C.ar    1  UNL1        0.2536
     26 N           1.8165    2.6060   33.9734 N.ar    1  UNL1       -0.2143
     27 C          -0.9769    2.0844   25.8003 C.3     1  UNL1        0.0452
     28 C          -1.9306    2.9049   26.6172 C.3     1  UNL1        0.0300
     29 C          -3.0717    3.6139   25.9503 C.ar    1  UNL1       -0.0212
     30 C          -4.1807    4.1937   26.7773 C.ar    1  UNL1       -0.0045
     31 C          -5.3219    4.9028   26.1103 C.ar    1  UNL1       -0.0028
     32 C          -5.3541    5.0320   24.6161 C.ar    1  UNL1        0.0009
     33 C          -4.2451    4.4522   23.7891 C.ar    1  UNL1        0.0543
     34 CL         -4.2773    4.5814   22.2950 Cl      1  UNL1       -0.0826
     35 C          -3.1039    3.7431   24.4562 C.ar    1  UNL1        0.0068
     36 C          -6.4952    5.7411   23.9490 C.3     1  UNL1        0.0988
     37 C          -7.2207    4.4363   23.8032 C.3     1  UNL1        0.0196
     38 C          -5.7698    7.0459   24.0949 C.3     1  UNL1        0.0196
     39 C          -7.6364    6.4502   23.2819 C.1     1  UNL1        0.0752
     40 N          -8.7774    7.1594   22.6148 N.1     1  UNL1       -0.1956
@<TRIPOS>BOND
     1    16    17    1
     2    17    18   ar
     3    18    19   ar
     4    19    20    1
     5    19    21   ar
     6    21    22   ar
     7    22    23   ar
     8    23    15    1
     9    15     1    1
    10     1     2    2
    11     2     3    1
    12     2     4    1
    13     4     5    1
    14     5    27    1
    15    27    28    1
    16    28    29    1
    17    29    30   ar
    18    30    31   ar
    19    31    32   ar
    20    32    36    1
    21    36    37    1
    22    36    38    1
    23    36    39    1
    24    39    40    3
    25    32    33   ar
    26    33    34    1
    27    33    35   ar
    28     5    10    1
    29    10    11    1
    30    11    12    1
    31    12    13    1
    32    13    14    1
    33     5     6    1
    34     6     7    1
    35     7     8    2
    36    23    24   ar
    37    24    25   ar
    38    25    26   ar
    39    26    17   ar
    40    25    21   ar
    41     7     1    1
    42    35    29   ar
    43    14    10    1
    44     3     9    1
@<TRIPOS>MOLECULE
*****
 40 44 0 0 0
SMALL
GASTEIGER

@<TRIPOS>ATOM
      1 C           1.5945    1.2359   19.4212 C.2     1  UNL1        0.0905
      2 C           1.3350   -0.1774   19.8516 C.2     1  UNL1        0.1173
      3 O           0.0250   -0.5396   20.4861 O.2     1  UNL1       -0.5097
      4 C           2.3855   -1.2285   19.6474 C.3     1  UNL1        0.1035
      5 C           3.6956   -0.8662   19.0128 C.3     1  UNL1        0.1435
      6 O           3.9550    0.5472   18.5825 O.3     1  UNL1       -0.4524
      7 C           2.9045    1.5982   18.7866 C.2     1  UNL1        0.3400
      8 O           3.1640    3.0115   18.3563 O.2     1  UNL1       -0.2451
      9 H          -0.6312    0.1169   20.6137 H       1  UNL1        0.2917
     10 C           3.9178   -2.3303   19.2516 C.3     1  UNL1        0.0372
     11 C           4.3638   -3.3327   18.2288 C.3     1  UNL1        0.0035
     12 C           4.4547   -4.6710   18.9001 C.3     1  UNL1        0.0001
     13 C           4.0649   -4.4956   20.3379 C.3     1  UNL1        0.0001
     14 C           3.7331   -3.0491   20.5552 C.3     1  UNL1        0.0035
     15 C           0.5440    2.2870   19.6254 C.3     1  UNL1        0.1032
     16 C          -3.6314    4.1476   26.0072 C.3     1  UNL1        0.0522
     17 C          -2.5485    3.5848   25.1350 C.ar    1  UNL1        0.0637
     18 C          -1.4053    2.8331   25.7496 C.ar    1  UNL1        0.0296
     19 C          -0.3224    2.2703   24.8774 C.ar    1  UNL1        0.0651
     20 C           0.8210    1.5185   25.4921 C.3     1  UNL1        0.0523
     21 N          -0.3829    2.4592   23.3906 N.ar    1  UNL1       -0.1994
     22 N           0.5318    2.0216   22.2852 N.ar    1  UNL1       -0.1476
     23 C          -0.0463    2.5028   20.9874 C.ar    1  UNL1        0.1669
     24 N          -1.3182    3.2379   21.2907 N.ar    1  UNL1       -0.1930
     25 C          -1.5262    3.2109   22.7760 C.ar    1  UNL1        0.2536
     26 N          -2.6090    3.7737   23.6482 N.ar    1  UNL1       -0.2143
     27 C           5.0827   -1.0124   18.4612 C.3     1  UNL1        0.0452
     28 C           6.2630   -0.5633   19.2707 C.3     1  UNL1        0.0300
     29 C           6.7527   -1.4034   20.4127 C.ar    1  UNL1       -0.0212
     30 C           6.5192   -0.9578   21.8258 C.ar    1  UNL1       -0.0045
     31 C           7.0090   -1.7980   22.9679 C.ar    1  UNL1       -0.0028
     32 C           7.7322   -3.0839   22.6967 C.ar    1  UNL1        0.0009
     33 C           7.9656   -3.5295   21.2837 C.ar    1  UNL1        0.0543
     34 CL          8.6888   -4.8155   21.0125 Cl      1  UNL1       -0.0826
     35 C           7.4759   -2.6894   20.1416 C.ar    1  UNL1        0.0068
     36 C           8.2219   -3.9241   23.8387 C.3     1  UNL1        0.0988
     37 C           9.5293   -3.1889   23.8190 C.3     1  UNL1        0.0196
     38 C           6.9146   -4.6593   23.8585 C.3     1  UNL1        0.0196
     39 C           8.7116   -4.7644   24.9807 C.1     1  UNL1        0.0752
     40 N           9.2014   -5.6047   26.1227 N.1     1  UNL1       -0.1956
@<TRIPOS>BOND
     1    16    17    1
     2    17    18   ar
     3    18    19   ar
     4    19    20    1
     5    19    21   ar
     6    21    22   ar
     7    22    23   ar
     8    23    15    1
     9    15     1    1
    10     1     2    2
    11     2     3    1
    12     2     4    1
    13     4     5    1
    14     5    27    1
    15    27    28    1
    16    28    29    1
    17    29    30   ar
    18    30    31   ar
    19    31    32   ar
    20    32    36    1
    21    36    37    1
    22    36    38    1
    23    36    39    1
    24    39    40    3
    25    32    33   ar
    26    33    34    1
    27    33    35   ar
    28     5    10    1
    29    10    11    1
    30    11    12    1
    31    12    13    1
    32    13    14    1
    33     5     6    1
    34     6     7    1
    35     7     8    2
    36    23    24   ar
    37    24    25   ar
    38    25    26   ar
    39    26    17   ar
    40    25    21   ar
    41     7     1    1
    42    35    29   ar
    43    14    10    1
    44     3     9    1
@<TRIPOS>MOLECULE
*****
 40 44 0 0 0
SMALL
GASTEIGER

@<TRIPOS>ATOM
      1 C           1.5417    1.2332   19.3988 C.2     1  UNL1        0.0905
      2 C           1.2878   -0.1757   19.8465 C.2     1  UNL1        0.1173
      3 O          -0.0200   -0.5348   20.4874 O.2     1  UNL1       -0.5097
      4 C           2.3416   -1.2255   19.6532 C.3     1  UNL1        0.1035
      5 C           3.6493   -0.8664   19.0123 C.3     1  UNL1        0.1435
      6 O           3.9032    0.5426   18.5646 O.3     1  UNL1       -0.4524
      7 C           2.8494    1.5924   18.7579 C.2     1  UNL1        0.3400
      8 O           3.1034    3.0013   18.3102 O.2     1  UNL1       -0.2451
      9 H          -0.6783    0.1210   20.6081 H       1  UNL1        0.2917
     10 C           3.8770   -2.3268   19.2682 C.3     1  UNL1        0.0372
     11 C           3.7295   -3.0240   20.5881 C.3     1  UNL1        0.0035
     12 C           4.0534   -4.4744   20.3850 C.3     1  UNL1        0.0001
     13 C           4.4011   -4.6736   18.9395 C.3     1  UNL1        0.0001
     14 C           4.2921   -3.3463   18.2493 C.3     1  UNL1        0.0035
     15 C           0.4879    2.2830   19.5921 C.3     1  UNL1        0.1032
     16 C          -1.2889    2.8443   27.2178 C.3     1  UNL1        0.0522
     17 C          -1.3812    2.9763   25.7264 C.ar    1  UNL1        0.0637
     18 C          -2.5631    3.6600   25.1056 C.ar    1  UNL1        0.0296
     19 C          -2.6553    3.7920   23.6142 C.ar    1  UNL1        0.0651
     20 C          -3.8374    4.4757   22.9935 C.3     1  UNL1        0.0523
     21 N          -1.5655    3.2402   22.7437 N.ar    1  UNL1       -0.1994
     22 N          -1.3830    3.2210   21.2550 N.ar    1  UNL1       -0.1476
     23 C          -0.0882    2.5254   20.9557 C.ar    1  UNL1        0.1669
     24 N           0.5296    2.1147   22.2595 N.ar    1  UNL1       -0.1930
     25 C          -0.3835    2.5565   23.3645 C.ar    1  UNL1        0.2536
     26 N          -0.2913    2.4245   24.8559 N.ar    1  UNL1       -0.2143
     27 C           5.0361   -1.0144   18.4602 C.3     1  UNL1        0.0452
     28 C           6.2167   -0.5599   19.2662 C.3     1  UNL1        0.0300
     29 C           6.7150   -1.3987   20.4054 C.ar    1  UNL1       -0.0212
     30 C           6.5050   -0.9443   21.8194 C.ar    1  UNL1       -0.0045
     31 C           7.0033   -1.7832   22.9587 C.ar    1  UNL1       -0.0028
     32 C           7.7117   -3.0765   22.6839 C.ar    1  UNL1        0.0009
     33 C           7.9217   -3.5310   21.2700 C.ar    1  UNL1        0.0543
     34 CL          8.6300   -4.8244   20.9952 Cl      1  UNL1       -0.0826
     35 C           7.4233   -2.6921   20.1307 C.ar    1  UNL1        0.0068
     36 C           8.2100   -3.9155   23.8231 C.3     1  UNL1        0.0988
     37 C           6.8847   -4.6150   23.8878 C.3     1  UNL1        0.0196
     38 C           9.5354   -3.2160   23.7585 C.3     1  UNL1        0.0196
     39 C           8.7085   -4.7544   24.9624 C.1     1  UNL1        0.0752
     40 N           9.2070   -5.5933   26.1016 N.1     1  UNL1       -0.1956
@<TRIPOS>BOND
     1    16    17    1
     2    17    18   ar
     3    18    19   ar
     4    19    20    1
     5    19    21   ar
     6    21    22   ar
     7    22    23   ar
     8    23    15    1
     9    15     1    1
    10     1     2    2
    11     2     3    1
    12     2     4    1
    13     4     5    1
    14     5    27    1
    15    27    28    1
    16    28    29    1
    17    29    30   ar
    18    30    31   ar
    19    31    32   ar
    20    32    36    1
    21    36    37    1
    22    36    38    1
    23    36    39    1
    24    39    40    3
    25    32    33   ar
    26    33    34    1
    27    33    35   ar
    28     5    10    1
    29    10    11    1
    30    11    12    1
    31    12    13    1
    32    13    14    1
    33     5     6    1
    34     6     7    1
    35     7     8    2
    36    23    24   ar
    37    24    25   ar
    38    25    26   ar
    39    26    17   ar
    40    25    21   ar
    41     7     1    1
    42    35    29   ar
    43    14    10    1
    44     3     9    1
