@<TRIPOS>MOLECULE
*****
 38 42 0 0 0
SMALL
GASTEIGER

@<TRIPOS>ATOM
      1 N         -10.5724  -16.7165   21.1250 N.3     1  UNL1       -0.2679
      2 C         -11.2879  -17.3979   22.2536 C.3     1  UNL1        0.0978
      3 C         -12.6527  -16.9322   22.6663 C.3     1  UNL1        0.0224
      4 C         -13.3682  -17.6136   23.7950 C.3     1  UNL1        0.0065
      5 C         -12.7188  -18.7606   24.5109 C.3     1  UNL1        0.0277
      6 C         -11.3540  -19.2263   24.0982 C.ar    1  UNL1       -0.0073
      7 C         -10.7046  -20.3734   24.8141 C.ar    1  UNL1       -0.0015
      8 C          -9.3398  -20.8391   24.4014 C.ar    1  UNL1        0.0203
      9 C          -8.6243  -20.1577   23.2728 C.ar    1  UNL1        0.0985
     10 N          -9.2737  -19.0107   22.5568 N.ar    1  UNL1       -0.2471
     11 C         -10.6385  -18.5449   22.9695 C.ar    1  UNL1        0.0695
     12 C         -10.6695  -17.2683   19.7336 C.3     1  UNL1        0.0725
     13 C         -11.1531  -18.6714   19.5151 C.3     1  UNL1        0.0188
     14 C         -10.1715  -19.8048   19.4717 C.3     1  UNL1        0.0185
     15 C          -8.7993  -19.5872   18.9062 C.3     1  UNL1        0.0686
     16 N          -7.6733  -19.1751   19.8075 N.3     1  UNL1       -0.2975
     17 H          -7.1629  -18.4371   19.3226 H       1  UNL1        0.1232
     18 C          -6.6571  -20.1865   20.2485 C.3     1  UNL1        0.0686
     19 O          -1.2702  -18.9702   21.7793 O.2     1  UNL1       -0.1730
     20 S          -2.7455  -18.8258   22.0085 S.O2    1  UNL1       -0.0100
     21 O          -2.2232  -17.9864   23.1366 O.2     1  UNL1       -0.1730
     22 C          -4.0394  -18.3898   22.6296 C.3     1  UNL1        0.1509
     23 C          -5.3432  -18.8433   22.0429 C.3     1  UNL1        0.0267
     24 C          -5.3532  -19.7329   20.8352 C.3     1  UNL1        0.0192
     25 C          -4.0593  -20.1689   20.2142 C.3     1  UNL1        0.0267
     26 C          -2.7554  -19.7153   20.8008 C.3     1  UNL1        0.1509
     27 C          -9.7599  -15.4834   21.3877 C.3     1  UNL1        0.0886
     28 C          -8.7801  -15.4587   22.5233 C.3     1  UNL1        0.0748
     29 C          -9.2469  -15.7300   23.9227 C.3     1  UNL1        0.0432
     30 C          -8.2670  -15.7052   25.0582 C.ar    1  UNL1       -0.0234
     31 C          -8.7338  -15.9765   26.4577 C.ar    1  UNL1       -0.0045
     32 C          -7.7540  -15.9518   27.5931 C.ar    1  UNL1       -0.0003
     33 C          -6.3074  -15.6557   27.3292 C.ar    1  UNL1       -0.0003
     34 C          -5.8406  -15.3844   25.9297 C.ar    1  UNL1       -0.0032
     35 C          -6.8204  -15.4092   24.7943 C.ar    1  UNL1       -0.0103
     36 C          -6.3537  -15.1378   23.3947 C.3     1  UNL1        0.0953
     37 N          -7.3335  -15.1626   22.2593 N.3     1  UNL1       -0.2934
     38 H          -7.0037  -15.8687   21.6012 H       1  UNL1        0.1236
@<TRIPOS>BOND
     1    19    20    2
     2    20    21    2
     3    20    22    1
     4    22    23    1
     5    23    24    1
     6    24    18    1
     7    18    16    1
     8    16    15    1
     9    15    14    1
    10    14    13    1
    11    13    12    1
    12    12     1    1
    13     1    27    1
    14    28    27    1
    15    28    29    1
    16    29    30    1
    17    30    31   ar
    18    31    32   ar
    19    32    33   ar
    20    33    34   ar
    21    34    35   ar
    22    35    36    1
    23    36    37    1
    24     2     1    1
    25     2     3    1
    26     3     4    1
    27     4     5    1
    28     5     6    1
    29     6     7   ar
    30     7     8   ar
    31     8     9   ar
    32     9    10   ar
    33    10    11   ar
    34    24    25    1
    35    25    26    1
    36    26    20    1
    37    37    28    1
    38    11     2    1
    39    35    30   ar
    40    11     6   ar
    41    16    17    1
    42    37    38    1
@<TRIPOS>MOLECULE
*****
 38 42 0 0 0
SMALL
GASTEIGER

@<TRIPOS>ATOM
      1 N          -9.6634  -17.7510   21.1481 N.3     1  UNL1       -0.2679
      2 C          -9.9809  -18.5661   22.3666 C.3     1  UNL1        0.0978
      3 C          -8.9918  -19.5733   22.8737 C.3     1  UNL1        0.0224
      4 C          -9.3092  -20.3885   24.0922 C.3     1  UNL1        0.0065
      5 C         -10.6158  -20.1965   24.8036 C.3     1  UNL1        0.0277
      6 C         -11.6049  -19.1893   24.2964 C.ar    1  UNL1       -0.0073
      7 C         -12.9115  -18.9973   25.0077 C.ar    1  UNL1       -0.0015
      8 C         -13.9006  -17.9901   24.5005 C.ar    1  UNL1        0.0203
      9 C         -13.5831  -17.1750   23.2820 C.ar    1  UNL1        0.0985
     10 N         -12.2766  -17.3670   22.5707 N.ar    1  UNL1       -0.2471
     11 C         -11.2874  -18.3742   23.0779 C.ar    1  UNL1        0.0695
     12 C         -10.1536  -18.1933   19.8012 C.3     1  UNL1        0.0725
     13 C          -9.9279  -19.6052   19.3474 C.3     1  UNL1        0.0188
     14 C          -8.5793  -20.0240   18.8418 C.3     1  UNL1        0.0185
     15 C          -7.4548  -20.2545   19.8074 C.3     1  UNL1        0.0686
     16 N          -6.6226  -19.0991   20.2793 N.3     1  UNL1       -0.2975
     17 H          -6.2250  -18.6634   19.4471 H       1  UNL1        0.1232
     18 C          -5.4868  -19.3321   21.2308 C.3     1  UNL1        0.0686
     19 O           0.1068  -18.2866   20.5525 O.2     1  UNL1       -0.1730
     20 S          -1.2666  -18.4181   19.9640 S.O2    1  UNL1       -0.0100
     21 O          -0.4849  -18.0827   18.7285 O.2     1  UNL1       -0.1730
     22 C          -2.3686  -18.4331   18.9464 C.3     1  UNL1        0.1509
     23 C          -3.7753  -18.7377   19.3687 C.3     1  UNL1        0.0267
     24 C          -4.0800  -19.0274   20.8085 C.3     1  UNL1        0.0192
     25 C          -2.9781  -19.0124   21.8261 C.3     1  UNL1        0.0267
     26 C          -1.5714  -18.7077   21.4039 C.3     1  UNL1        0.1509
     27 C          -8.8558  -16.4935   21.2764 C.3     1  UNL1        0.0886
     28 C          -8.1103  -16.2073   22.5462 C.3     1  UNL1        0.0748
     29 C          -8.8642  -15.9625   23.8196 C.3     1  UNL1        0.0432
     30 C          -8.1187  -15.6762   25.0894 C.ar    1  UNL1       -0.0234
     31 C          -8.8726  -15.4315   26.3629 C.ar    1  UNL1       -0.0045
     32 C          -8.1270  -15.1452   27.6326 C.ar    1  UNL1       -0.0003
     33 C          -6.6276  -15.1038   27.6289 C.ar    1  UNL1       -0.0003
     34 C          -5.8737  -15.3485   26.3554 C.ar    1  UNL1       -0.0032
     35 C          -6.6192  -15.6348   25.0857 C.ar    1  UNL1       -0.0103
     36 C          -5.8653  -15.8796   23.8122 C.3     1  UNL1        0.0953
     37 N          -6.6109  -16.1658   22.5425 N.3     1  UNL1       -0.2934
     38 H          -6.2919  -17.0768   22.2128 H       1  UNL1        0.1236
@<TRIPOS>BOND
     1    19    20    2
     2    20    21    2
     3    20    22    1
     4    22    23    1
     5    23    24    1
     6    24    18    1
     7    18    16    1
     8    16    15    1
     9    15    14    1
    10    14    13    1
    11    13    12    1
    12    12     1    1
    13     1    27    1
    14    28    27    1
    15    28    29    1
    16    29    30    1
    17    30    31   ar
    18    31    32   ar
    19    32    33   ar
    20    33    34   ar
    21    34    35   ar
    22    35    36    1
    23    36    37    1
    24     2     1    1
    25     2     3    1
    26     3     4    1
    27     4     5    1
    28     5     6    1
    29     6     7   ar
    30     7     8   ar
    31     8     9   ar
    32     9    10   ar
    33    10    11   ar
    34    24    25    1
    35    25    26    1
    36    26    20    1
    37    37    28    1
    38    11     2    1
    39    35    30   ar
    40    11     6   ar
    41    16    17    1
    42    37    38    1
@<TRIPOS>MOLECULE
*****
 38 42 0 0 0
SMALL
GASTEIGER

@<TRIPOS>ATOM
      1 N          -9.0155  -17.8551   21.1655 N.3     1  UNL1       -0.2679
      2 C         -10.4511  -17.4316   21.2637 C.3     1  UNL1        0.0978
      3 C         -11.0571  -16.5800   20.1879 C.3     1  UNL1        0.0224
      4 C         -12.4928  -16.1566   20.2861 C.3     1  UNL1        0.0065
      5 C         -13.3224  -16.5848   21.4601 C.3     1  UNL1        0.0277
      6 C         -12.7163  -17.4364   22.5359 C.ar    1  UNL1       -0.0073
      7 C         -13.5459  -17.8646   23.7101 C.ar    1  UNL1       -0.0015
      8 C         -12.9399  -18.7162   24.7859 C.ar    1  UNL1        0.0203
      9 C         -11.5042  -19.1396   24.6877 C.ar    1  UNL1        0.0985
     10 N         -10.6746  -18.7115   23.5136 N.ar    1  UNL1       -0.2471
     11 C         -11.2807  -17.8598   22.4377 C.ar    1  UNL1        0.0695
     12 C          -8.6733  -19.2942   20.9168 C.3     1  UNL1        0.0725
     13 C          -7.6619  -19.6544   19.8691 C.3     1  UNL1        0.0188
     14 C          -6.4634  -20.4785   20.2357 C.3     1  UNL1        0.0185
     15 C          -6.0277  -20.5728   21.6678 C.3     1  UNL1        0.0686
     16 N          -5.5606  -19.3450   22.3921 N.3     1  UNL1       -0.2975
     17 H          -5.7067  -18.5573   21.7608 H       1  UNL1        0.1232
     18 C          -4.1443  -19.2539   22.8776 C.3     1  UNL1        0.0686
     19 O          -0.1203  -16.4049   19.9566 O.2     1  UNL1       -0.1730
     20 S          -0.9343  -17.6477   20.1637 S.O2    1  UNL1       -0.0100
     21 O          -0.1088  -18.0702   18.9846 O.2     1  UNL1       -0.1730
     22 C          -1.4615  -19.0373   19.9612 C.3     1  UNL1        0.1509
     23 C          -2.5315  -19.5727   20.8658 C.3     1  UNL1        0.0267
     24 C          -3.0742  -18.7185   21.9729 C.3     1  UNL1        0.0192
     25 C          -2.5470  -17.3289   22.1754 C.3     1  UNL1        0.0267
     26 C          -1.4770  -16.7935   21.2708 C.3     1  UNL1        0.1509
     27 C          -7.9220  -16.8394   21.3160 C.3     1  UNL1        0.0886
     28 C          -7.4354  -16.4581   22.6827 C.3     1  UNL1        0.0748
     29 C          -8.4209  -16.1645   23.7747 C.3     1  UNL1        0.0432
     30 C          -7.9343  -15.7831   25.1415 C.ar    1  UNL1       -0.0234
     31 C          -8.9198  -15.4895   26.2335 C.ar    1  UNL1       -0.0045
     32 C          -8.4332  -15.1082   27.6002 C.ar    1  UNL1       -0.0003
     33 C          -6.9612  -15.0205   27.8748 C.ar    1  UNL1       -0.0003
     34 C          -5.9757  -15.3141   26.7828 C.ar    1  UNL1       -0.0032
     35 C          -6.4623  -15.6954   25.4161 C.ar    1  UNL1       -0.0103
     36 C          -5.4768  -15.9891   24.3240 C.3     1  UNL1        0.0953
     37 N          -5.9634  -16.3704   22.9573 N.3     1  UNL1       -0.2934
     38 H          -5.5700  -17.2885   22.7503 H       1  UNL1        0.1236
@<TRIPOS>BOND
     1    19    20    2
     2    20    21    2
     3    20    22    1
     4    22    23    1
     5    23    24    1
     6    24    18    1
     7    18    16    1
     8    16    15    1
     9    15    14    1
    10    14    13    1
    11    13    12    1
    12    12     1    1
    13     1    27    1
    14    28    27    1
    15    28    29    1
    16    29    30    1
    17    30    31   ar
    18    31    32   ar
    19    32    33   ar
    20    33    34   ar
    21    34    35   ar
    22    35    36    1
    23    36    37    1
    24     2     1    1
    25     2     3    1
    26     3     4    1
    27     4     5    1
    28     5     6    1
    29     6     7   ar
    30     7     8   ar
    31     8     9   ar
    32     9    10   ar
    33    10    11   ar
    34    24    25    1
    35    25    26    1
    36    26    20    1
    37    37    28    1
    38    11     2    1
    39    35    30   ar
    40    11     6   ar
    41    16    17    1
    42    37    38    1
@<TRIPOS>MOLECULE
*****
 38 42 0 0 0
SMALL
GASTEIGER

@<TRIPOS>ATOM
      1 N          -7.3737  -19.1821   22.0010 N.3     1  UNL1       -0.2679
      2 C          -6.2023  -19.7439   21.2512 C.3     1  UNL1        0.0978
      3 C          -6.4256  -20.7104   20.1261 C.3     1  UNL1        0.0224
      4 C          -5.2541  -21.2722   19.3763 C.3     1  UNL1        0.0065
      5 C          -3.8594  -20.8675   19.7517 C.3     1  UNL1        0.0277
      6 C          -3.6361  -19.9010   20.8768 C.ar    1  UNL1       -0.0073
      7 C          -2.2414  -19.4962   21.2521 C.ar    1  UNL1       -0.0015
      8 C          -2.0181  -18.5296   22.3772 C.ar    1  UNL1        0.0203
      9 C          -3.1895  -17.9678   23.1270 C.ar    1  UNL1        0.0985
     10 N          -4.5842  -18.3725   22.7517 N.ar    1  UNL1       -0.2471
     11 C          -4.8076  -19.3391   21.6265 C.ar    1  UNL1        0.0695
     12 C          -8.2912  -20.0986   22.7547 C.3     1  UNL1        0.0725
     13 C          -9.7646  -19.8199   22.7926 C.3     1  UNL1        0.0188
     14 C         -10.5621  -20.1653   24.0152 C.3     1  UNL1        0.0185
     15 C         -11.1044  -19.0740   24.8898 C.3     1  UNL1        0.0686
     16 N         -12.5855  -18.8571   24.9870 N.3     1  UNL1       -0.2975
     17 H         -13.0191  -19.7803   24.9847 H       1  UNL1        0.1232
     18 C         -13.2942  -18.0432   23.9452 C.3     1  UNL1        0.0686
     19 O         -10.7944  -16.2635   19.1053 O.2     1  UNL1       -0.1730
     20 S         -10.9606  -16.1561   20.5921 S.O2    1  UNL1       -0.0100
     21 O          -9.9351  -15.0850   20.3667 O.2     1  UNL1       -0.1730
     22 C         -10.7706  -15.6767   22.0007 C.3     1  UNL1        0.1509
     23 C         -11.5485  -16.3057   23.1184 C.3     1  UNL1        0.0267
     24 C         -12.5163  -17.4141   22.8275 C.3     1  UNL1        0.0192
     25 C         -12.7063  -17.8935   21.4189 C.3     1  UNL1        0.0267
     26 C         -11.9285  -17.2645   20.3013 C.3     1  UNL1        0.1509
     27 C          -7.6276  -17.7038   21.9970 C.3     1  UNL1        0.0886
     28 C          -7.2694  -16.8780   23.1969 C.3     1  UNL1        0.0748
     29 C          -8.1717  -16.8653   24.3951 C.3     1  UNL1        0.0432
     30 C          -7.8134  -16.0395   25.5951 C.ar    1  UNL1       -0.0234
     31 C          -8.7157  -16.0268   26.7932 C.ar    1  UNL1       -0.0045
     32 C          -8.3575  -15.2010   27.9931 C.ar    1  UNL1       -0.0003
     33 C          -7.0969  -14.3879   27.9948 C.ar    1  UNL1       -0.0003
     34 C          -6.1947  -14.4006   26.7966 C.ar    1  UNL1       -0.0032
     35 C          -6.5529  -15.2264   25.5967 C.ar    1  UNL1       -0.0103
     36 C          -5.6506  -15.2391   24.3985 C.3     1  UNL1        0.0953
     37 N          -6.0089  -16.0649   23.1986 N.3     1  UNL1       -0.2934
     38 H          -5.2382  -16.7161   23.0486 H       1  UNL1        0.1236
@<TRIPOS>BOND
     1    19    20    2
     2    20    21    2
     3    20    22    1
     4    22    23    1
     5    23    24    1
     6    24    18    1
     7    18    16    1
     8    16    15    1
     9    15    14    1
    10    14    13    1
    11    13    12    1
    12    12     1    1
    13     1    27    1
    14    28    27    1
    15    28    29    1
    16    29    30    1
    17    30    31   ar
    18    31    32   ar
    19    32    33   ar
    20    33    34   ar
    21    34    35   ar
    22    35    36    1
    23    36    37    1
    24     2     1    1
    25     2     3    1
    26     3     4    1
    27     4     5    1
    28     5     6    1
    29     6     7   ar
    30     7     8   ar
    31     8     9   ar
    32     9    10   ar
    33    10    11   ar
    34    24    25    1
    35    25    26    1
    36    26    20    1
    37    37    28    1
    38    11     2    1
    39    35    30   ar
    40    11     6   ar
    41    16    17    1
    42    37    38    1
@<TRIPOS>MOLECULE
*****
 38 42 0 0 0
SMALL
GASTEIGER

@<TRIPOS>ATOM
      1 N          -7.7040  -19.5527   21.7258 N.3     1  UNL1       -0.2679
      2 C          -8.3903  -19.1433   22.9952 C.3     1  UNL1        0.0978
      3 C          -9.2659  -20.1199   23.7230 C.3     1  UNL1        0.0224
      4 C          -9.9523  -19.7105   24.9923 C.3     1  UNL1        0.0065
      5 C          -9.7631  -18.3245   25.5339 C.3     1  UNL1        0.0277
      6 C          -8.8875  -17.3480   24.8061 C.ar    1  UNL1       -0.0073
      7 C          -8.6983  -15.9620   25.3477 C.ar    1  UNL1       -0.0015
      8 C          -7.8228  -14.9854   24.6199 C.ar    1  UNL1        0.0203
      9 C          -7.1364  -15.3948   23.3506 C.ar    1  UNL1        0.0985
     10 N          -7.3256  -16.7808   22.8090 N.ar    1  UNL1       -0.2471
     11 C          -8.2012  -17.7574   23.5368 C.ar    1  UNL1        0.0695
     12 C          -8.3596  -19.2944   20.4017 C.3     1  UNL1        0.0725
     13 C          -9.6303  -20.0061   20.0424 C.3     1  UNL1        0.0188
     14 C         -10.9544  -19.4212   20.4354 C.3     1  UNL1        0.0185
     15 C         -11.7376  -20.0277   21.5618 C.3     1  UNL1        0.0686
     16 N         -12.2805  -19.1539   22.6535 N.3     1  UNL1       -0.2975
     17 H         -13.0414  -19.6713   23.0937 H       1  UNL1        0.1232
     18 C         -12.8155  -17.7911   22.3272 C.3     1  UNL1        0.0686
     19 O          -9.1900  -14.0757   19.8996 O.2     1  UNL1       -0.1730
     20 S         -10.3907  -14.9687   19.7965 S.O2    1  UNL1       -0.0100
     21 O         -10.3532  -14.4203   18.4008 O.2     1  UNL1       -0.1730
     22 C         -11.5785  -15.6713   19.2086 C.3     1  UNL1        0.1509
     23 C         -12.3867  -16.6120   20.0521 C.3     1  UNL1        0.0267
     24 C         -12.0072  -16.8503   21.4836 C.3     1  UNL1        0.0192
     25 C         -10.8195  -16.1477   22.0715 C.3     1  UNL1        0.0267
     26 C         -10.0112  -15.2069   21.2280 C.3     1  UNL1        0.1509
     27 C          -6.3619  -20.2204   21.7806 C.3     1  UNL1        0.0886
     28 C          -5.1107  -19.3981   21.6878 C.3     1  UNL1        0.0748
     29 C          -4.3003  -19.4056   20.4256 C.3     1  UNL1        0.0432
     30 C          -3.0491  -18.5834   20.3328 C.ar    1  UNL1       -0.0234
     31 C          -2.2386  -18.5909   19.0707 C.ar    1  UNL1       -0.0045
     32 C          -0.9875  -17.7687   18.9779 C.ar    1  UNL1       -0.0003
     33 C          -0.5469  -16.9389   20.1473 C.ar    1  UNL1       -0.0003
     34 C          -1.3574  -16.9314   21.4094 C.ar    1  UNL1       -0.0032
     35 C          -2.6085  -17.7537   21.5022 C.ar    1  UNL1       -0.0103
     36 C          -3.4190  -17.7462   22.7644 C.3     1  UNL1        0.0953
     37 N          -4.6701  -18.5684   22.8571 N.3     1  UNL1       -0.2934
     38 H          -5.4322  -17.9227   23.0638 H       1  UNL1        0.1236
@<TRIPOS>BOND
     1    19    20    2
     2    20    21    2
     3    20    22    1
     4    22    23    1
     5    23    24    1
     6    24    18    1
     7    18    16    1
     8    16    15    1
     9    15    14    1
    10    14    13    1
    11    13    12    1
    12    12     1    1
    13     1    27    1
    14    28    27    1
    15    28    29    1
    16    29    30    1
    17    30    31   ar
    18    31    32   ar
    19    32    33   ar
    20    33    34   ar
    21    34    35   ar
    22    35    36    1
    23    36    37    1
    24     2     1    1
    25     2     3    1
    26     3     4    1
    27     4     5    1
    28     5     6    1
    29     6     7   ar
    30     7     8   ar
    31     8     9   ar
    32     9    10   ar
    33    10    11   ar
    34    24    25    1
    35    25    26    1
    36    26    20    1
    37    37    28    1
    38    11     2    1
    39    35    30   ar
    40    11     6   ar
    41    16    17    1
    42    37    38    1
@<TRIPOS>MOLECULE
*****
 38 42 0 0 0
SMALL
GASTEIGER

@<TRIPOS>ATOM
      1 N         -15.6378   -4.9492   18.4439 N.3     1  UNL1       -0.2679
      2 C         -16.7304   -5.8940   18.8485 C.3     1  UNL1        0.0978
      3 C         -18.0087   -5.3601   19.4236 C.3     1  UNL1        0.0224
      4 C         -19.1013   -6.3049   19.8282 C.3     1  UNL1        0.0065
      5 C         -18.9155   -7.7835   19.6577 C.3     1  UNL1        0.0277
      6 C         -17.6372   -8.3174   19.0826 C.ar    1  UNL1       -0.0073
      7 C         -17.4513   -9.7961   18.9121 C.ar    1  UNL1       -0.0015
      8 C         -16.1730  -10.3299   18.3370 C.ar    1  UNL1        0.0203
      9 C         -15.0804   -9.3852   17.9324 C.ar    1  UNL1        0.0985
     10 N         -15.2662   -7.9065   18.1029 N.ar    1  UNL1       -0.2471
     11 C         -16.5446   -7.3726   18.6780 C.ar    1  UNL1        0.0695
     12 C         -14.2873   -5.0437   19.0897 C.3     1  UNL1        0.0725
     13 C         -14.1047   -4.6084   20.5136 C.3     1  UNL1        0.0188
     14 C         -13.5116   -3.2645   20.8168 C.3     1  UNL1        0.0185
     15 C         -12.9945   -2.4042   19.7021 C.3     1  UNL1        0.0686
     16 N         -11.5169   -2.2213   19.5193 N.3     1  UNL1       -0.2975
     17 H         -11.3408   -1.2167   19.5321 H       1  UNL1        0.1232
     18 C         -10.8397   -2.7641   18.2960 C.3     1  UNL1        0.0686
     19 O         -10.5971   -8.3320   16.9613 O.2     1  UNL1       -0.1730
     20 S         -10.2004   -7.1969   17.8580 S.O2    1  UNL1       -0.0100
     21 O          -9.4771   -8.3255   18.5310 O.2     1  UNL1       -0.1730
     22 C          -9.5524   -6.4537   18.9884 C.3     1  UNL1        0.1509
     23 C          -9.7655   -4.9762   19.1344 C.3     1  UNL1        0.0267
     24 C         -10.6266   -4.2418   18.1500 C.3     1  UNL1        0.0192
     25 C         -11.2745   -4.9849   17.0196 C.3     1  UNL1        0.0267
     26 C         -11.0614   -6.4624   16.8735 C.3     1  UNL1        0.1509
     27 C         -15.8958   -3.9100   17.3935 C.3     1  UNL1        0.0886
     28 C         -15.8013   -2.4536   17.7402 C.3     1  UNL1        0.0748
     29 C         -16.4916   -1.9275   18.9635 C.3     1  UNL1        0.0432
     30 C         -16.3972   -0.4711   19.3102 C.ar    1  UNL1       -0.0234
     31 C         -17.0875    0.0549   20.5335 C.ar    1  UNL1       -0.0045
     32 C         -16.9930    1.5112   20.8801 C.ar    1  UNL1       -0.0003
     33 C         -16.2082    2.4415   20.0034 C.ar    1  UNL1       -0.0003
     34 C         -15.5178    1.9154   18.7801 C.ar    1  UNL1       -0.0032
     35 C         -15.6123    0.4591   18.4335 C.ar    1  UNL1       -0.0103
     36 C         -14.9219   -0.0670   17.2101 C.3     1  UNL1        0.0953
     37 N         -15.0164   -1.5234   16.8635 N.3     1  UNL1       -0.2934
     38 H         -14.0619   -1.8816   16.8341 H       1  UNL1        0.1236
@<TRIPOS>BOND
     1    19    20    2
     2    20    21    2
     3    20    22    1
     4    22    23    1
     5    23    24    1
     6    24    18    1
     7    18    16    1
     8    16    15    1
     9    15    14    1
    10    14    13    1
    11    13    12    1
    12    12     1    1
    13     1    27    1
    14    28    27    1
    15    28    29    1
    16    29    30    1
    17    30    31   ar
    18    31    32   ar
    19    32    33   ar
    20    33    34   ar
    21    34    35   ar
    22    35    36    1
    23    36    37    1
    24     2     1    1
    25     2     3    1
    26     3     4    1
    27     4     5    1
    28     5     6    1
    29     6     7   ar
    30     7     8   ar
    31     8     9   ar
    32     9    10   ar
    33    10    11   ar
    34    24    25    1
    35    25    26    1
    36    26    20    1
    37    37    28    1
    38    11     2    1
    39    35    30   ar
    40    11     6   ar
    41    16    17    1
    42    37    38    1
@<TRIPOS>MOLECULE
*****
 38 42 0 0 0
SMALL
GASTEIGER

@<TRIPOS>ATOM
      1 N          -7.5228  -19.4790   21.5558 N.3     1  UNL1       -0.2679
      2 C          -8.2754  -19.1735   22.8168 C.3     1  UNL1        0.0978
      3 C          -9.1452  -20.2223   23.4440 C.3     1  UNL1        0.0224
      4 C          -9.8979  -19.9167   24.7050 C.3     1  UNL1        0.0065
      5 C          -9.7807  -18.5624   25.3389 C.3     1  UNL1        0.0277
      6 C          -8.9109  -17.5135   24.7117 C.ar    1  UNL1       -0.0073
      7 C          -8.7937  -16.1590   25.3456 C.ar    1  UNL1       -0.0015
      8 C          -7.9240  -15.1102   24.7184 C.ar    1  UNL1        0.0203
      9 C          -7.1713  -15.4157   23.4574 C.ar    1  UNL1        0.0985
     10 N          -7.2885  -16.7701   22.8235 N.ar    1  UNL1       -0.2471
     11 C          -8.1583  -17.8191   23.4507 C.ar    1  UNL1        0.0695
     12 C          -8.1029  -19.0996   20.2255 C.3     1  UNL1        0.0725
     13 C          -8.8644  -20.1126   19.4230 C.3     1  UNL1        0.0188
     14 C         -10.2628  -19.8134   18.9705 C.3     1  UNL1        0.0185
     15 C         -11.1313  -18.8936   19.7766 C.3     1  UNL1        0.0686
     16 N         -10.9961  -17.4076   19.6223 N.3     1  UNL1       -0.2975
     17 H          -9.9981  -17.1986   19.6474 H       1  UNL1        0.1232
     18 C         -11.6560  -16.4883   20.6068 C.3     1  UNL1        0.0686
     19 O         -15.2561  -18.8770   24.3718 O.2     1  UNL1       -0.1730
     20 S         -13.9555  -18.1886   24.0812 S.O2    1  UNL1       -0.0100
     21 O         -13.8292  -18.3685   25.5650 O.2     1  UNL1       -0.1730
     22 C         -12.6110  -17.5627   24.3060 C.3     1  UNL1        0.1509
     23 C         -11.8445  -16.9959   23.1479 C.3     1  UNL1        0.0267
     24 C         -12.4225  -17.0551   21.7650 C.3     1  UNL1        0.0192
     25 C         -13.7670  -17.6810   21.5403 C.3     1  UNL1        0.0267
     26 C         -14.5335  -18.2478   22.6984 C.3     1  UNL1        0.1509
     27 C          -6.1902  -20.1639   21.6250 C.3     1  UNL1        0.0886
     28 C          -4.9276  -19.3566   21.5592 C.3     1  UNL1        0.0748
     29 C          -4.1122  -19.3408   20.3004 C.3     1  UNL1        0.0432
     30 C          -2.8496  -18.5335   20.2346 C.ar    1  UNL1       -0.0234
     31 C          -2.0342  -18.5177   18.9758 C.ar    1  UNL1       -0.0045
     32 C          -0.7717  -17.7104   18.9101 C.ar    1  UNL1       -0.0003
     33 C          -0.3247  -16.9188   20.1033 C.ar    1  UNL1       -0.0003
     34 C          -1.1401  -16.9346   21.3621 C.ar    1  UNL1       -0.0032
     35 C          -2.4026  -17.7419   21.4278 C.ar    1  UNL1       -0.0103
     36 C          -3.2181  -17.7577   22.6867 C.3     1  UNL1        0.0953
     37 N          -4.4806  -18.5650   22.7524 N.3     1  UNL1       -0.2934
     38 H          -5.2347  -17.9148   22.9738 H       1  UNL1        0.1236
@<TRIPOS>BOND
     1    19    20    2
     2    20    21    2
     3    20    22    1
     4    22    23    1
     5    23    24    1
     6    24    18    1
     7    18    16    1
     8    16    15    1
     9    15    14    1
    10    14    13    1
    11    13    12    1
    12    12     1    1
    13     1    27    1
    14    28    27    1
    15    28    29    1
    16    29    30    1
    17    30    31   ar
    18    31    32   ar
    19    32    33   ar
    20    33    34   ar
    21    34    35   ar
    22    35    36    1
    23    36    37    1
    24     2     1    1
    25     2     3    1
    26     3     4    1
    27     4     5    1
    28     5     6    1
    29     6     7   ar
    30     7     8   ar
    31     8     9   ar
    32     9    10   ar
    33    10    11   ar
    34    24    25    1
    35    25    26    1
    36    26    20    1
    37    37    28    1
    38    11     2    1
    39    35    30   ar
    40    11     6   ar
    41    16    17    1
    42    37    38    1
@<TRIPOS>MOLECULE
*****
 38 42 0 0 0
SMALL
GASTEIGER

@<TRIPOS>ATOM
      1 N           6.8989   -1.5787   21.6058 N.3     1  UNL1       -0.2679
      2 C           6.1804   -0.2744   21.4250 C.3     1  UNL1        0.0978
      3 C           6.7212    0.7548   20.4774 C.3     1  UNL1        0.0224
      4 C           6.0026    2.0590   20.2966 C.3     1  UNL1        0.0065
      5 C           4.7432    2.3340   21.0636 C.3     1  UNL1        0.0277
      6 C           4.2023    1.3047   22.0112 C.ar    1  UNL1       -0.0073
      7 C           2.9429    1.5796   22.7782 C.ar    1  UNL1       -0.0015
      8 C           2.4020    0.5504   23.7259 C.ar    1  UNL1        0.0203
      9 C           3.1206   -0.7538   23.9066 C.ar    1  UNL1        0.0985
     10 N           4.3800   -1.0288   23.1397 N.ar    1  UNL1       -0.2471
     11 C           4.9209    0.0005   22.1920 C.ar    1  UNL1        0.0695
     12 C           6.7023   -2.6870   20.6144 C.3     1  UNL1        0.0725
     13 C           5.4974   -3.5752   20.7115 C.3     1  UNL1        0.0188
     14 C           4.7535   -3.9685   19.4698 C.3     1  UNL1        0.0185
     15 C           5.2190   -3.4798   18.1302 C.3     1  UNL1        0.0686
     16 N           4.5238   -2.3264   17.4696 N.3     1  UNL1       -0.2975
     17 H           4.9414   -2.2214   16.5449 H       1  UNL1        0.1232
     18 C           4.5454   -0.9706   18.1109 C.3     1  UNL1        0.0686
     19 O          -0.2983    0.4263   20.8366 O.2     1  UNL1       -0.1730
     20 S           0.7681    0.7624   19.8367 S.O2    1  UNL1       -0.0100
     21 O          -0.0946    1.9838   19.7181 O.2     1  UNL1       -0.1730
     22 C           1.5348    1.5228   18.7956 C.3     1  UNL1        0.1509
     23 C           2.7939    0.9452   18.2203 C.3     1  UNL1        0.0267
     24 C           3.2862   -0.3929   18.6862 C.3     1  UNL1        0.0192
     25 C           2.5195   -1.1533   19.7273 C.3     1  UNL1        0.0267
     26 C           1.2605   -0.5756   20.3026 C.3     1  UNL1        0.1509
     27 C           7.8142   -1.7745   22.7779 C.3     1  UNL1        0.0886
     28 C           7.5540   -2.8819   23.7558 C.3     1  UNL1        0.0748
     29 C           8.0809   -4.2601   23.4858 C.3     1  UNL1        0.0432
     30 C           7.8208   -5.3674   24.4637 C.ar    1  UNL1       -0.0234
     31 C           8.3476   -6.7456   24.1938 C.ar    1  UNL1       -0.0045
     32 C           8.0875   -7.8528   25.1717 C.ar    1  UNL1       -0.0003
     33 C           7.3004   -7.5818   26.4195 C.ar    1  UNL1       -0.0003
     34 C           6.7735   -6.2037   26.6895 C.ar    1  UNL1       -0.0032
     35 C           7.0337   -5.0964   25.7116 C.ar    1  UNL1       -0.0103
     36 C           6.5068   -3.7181   25.9815 C.3     1  UNL1        0.0953
     37 N           6.7670   -2.6109   25.0037 N.3     1  UNL1       -0.2934
     38 H           7.2639   -1.8796   25.5122 H       1  UNL1        0.1236
@<TRIPOS>BOND
     1    19    20    2
     2    20    21    2
     3    20    22    1
     4    22    23    1
     5    23    24    1
     6    24    18    1
     7    18    16    1
     8    16    15    1
     9    15    14    1
    10    14    13    1
    11    13    12    1
    12    12     1    1
    13     1    27    1
    14    28    27    1
    15    28    29    1
    16    29    30    1
    17    30    31   ar
    18    31    32   ar
    19    32    33   ar
    20    33    34   ar
    21    34    35   ar
    22    35    36    1
    23    36    37    1
    24     2     1    1
    25     2     3    1
    26     3     4    1
    27     4     5    1
    28     5     6    1
    29     6     7   ar
    30     7     8   ar
    31     8     9   ar
    32     9    10   ar
    33    10    11   ar
    34    24    25    1
    35    25    26    1
    36    26    20    1
    37    37    28    1
    38    11     2    1
    39    35    30   ar
    40    11     6   ar
    41    16    17    1
    42    37    38    1
@<TRIPOS>MOLECULE
*****
 38 42 0 0 0
SMALL
GASTEIGER

@<TRIPOS>ATOM
      1 N           4.9313   -2.1527   22.9006 N.3     1  UNL1       -0.2679
      2 C           4.1658   -0.8629   22.8793 C.3     1  UNL1        0.0978
      3 C           2.9770   -0.6815   23.7757 C.3     1  UNL1        0.0224
      4 C           2.2114    0.6083   23.7544 C.3     1  UNL1        0.0065
      5 C           2.6348    1.7166   22.8367 C.3     1  UNL1        0.0277
      6 C           3.8237    1.5352   21.9403 C.ar    1  UNL1       -0.0073
      7 C           4.2471    2.6436   21.0225 C.ar    1  UNL1       -0.0015
      8 C           5.4359    2.4621   20.1261 C.ar    1  UNL1        0.0203
      9 C           6.2015    1.1724   20.1474 C.ar    1  UNL1        0.0985
     10 N           5.7781    0.0640   21.0651 N.ar    1  UNL1       -0.2471
     11 C           4.5892    0.2454   21.9616 C.ar    1  UNL1        0.0695
     12 C           4.3322   -3.3904   22.3015 C.3     1  UNL1        0.0725
     13 C           4.7585   -3.8453   20.9371 C.3     1  UNL1        0.0188
     14 C           5.9587   -3.2287   20.2820 C.3     1  UNL1        0.0185
     15 C           5.9682   -2.9975   18.8000 C.3     1  UNL1        0.0686
     16 N           4.7014   -2.6182   18.0918 N.3     1  UNL1       -0.2975
     17 H           4.7323   -3.0632   17.1745 H       1  UNL1        0.1232
     18 C           4.3752   -1.1725   17.8610 C.3     1  UNL1        0.0686
     19 O          -0.2365    0.3524   20.9023 O.2     1  UNL1       -0.1730
     20 S           0.7781    0.6666   19.8432 S.O2    1  UNL1       -0.0100
     21 O          -0.0442    1.9203   19.7964 O.2     1  UNL1       -0.1730
     22 C           1.5072    1.4164   18.7678 C.3     1  UNL1        0.1509
     23 C           2.7061    0.8034   18.1071 C.3     1  UNL1        0.0267
     24 C           3.1761   -0.5594   18.5218 C.3     1  UNL1        0.0192
     25 C           2.4471   -1.3091   19.5971 C.3     1  UNL1        0.0267
     26 C           1.2481   -0.6961   20.2579 C.3     1  UNL1        0.1509
     27 C           6.2960   -2.2048   23.5211 C.3     1  UNL1        0.0886
     28 C           6.7526   -3.4478   24.2258 C.3     1  UNL1        0.0748
     29 C           7.6807   -4.4030   23.5358 C.3     1  UNL1        0.0432
     30 C           8.1373   -5.6461   24.2405 C.ar    1  UNL1       -0.0234
     31 C           9.0655   -6.6013   23.5506 C.ar    1  UNL1       -0.0045
     32 C           9.5220   -7.8442   24.2553 C.ar    1  UNL1       -0.0003
     33 C           9.0505   -8.1319   25.6499 C.ar    1  UNL1       -0.0003
     34 C           8.1223   -7.1767   26.3398 C.ar    1  UNL1       -0.0032
     35 C           7.6658   -5.9337   25.6351 C.ar    1  UNL1       -0.0103
     36 C           6.7376   -4.9784   26.3250 C.3     1  UNL1        0.0953
     37 N           6.2810   -3.7355   25.6203 N.3     1  UNL1       -0.2934
     38 H           6.5708   -2.9463   26.1979 H       1  UNL1        0.1236
@<TRIPOS>BOND
     1    19    20    2
     2    20    21    2
     3    20    22    1
     4    22    23    1
     5    23    24    1
     6    24    18    1
     7    18    16    1
     8    16    15    1
     9    15    14    1
    10    14    13    1
    11    13    12    1
    12    12     1    1
    13     1    27    1
    14    28    27    1
    15    28    29    1
    16    29    30    1
    17    30    31   ar
    18    31    32   ar
    19    32    33   ar
    20    33    34   ar
    21    34    35   ar
    22    35    36    1
    23    36    37    1
    24     2     1    1
    25     2     3    1
    26     3     4    1
    27     4     5    1
    28     5     6    1
    29     6     7   ar
    30     7     8   ar
    31     8     9   ar
    32     9    10   ar
    33    10    11   ar
    34    24    25    1
    35    25    26    1
    36    26    20    1
    37    37    28    1
    38    11     2    1
    39    35    30   ar
    40    11     6   ar
    41    16    17    1
    42    37    38    1
