@<TRIPOS>MOLECULE
*****
 33 35 0 0 0
SMALL
GASTEIGER

@<TRIPOS>ATOM
      1 C          -9.8093  -19.2521   21.1231 C.ar    1  UNL1        0.0293
      2 C          -8.4114  -18.7091   21.1506 C.ar    1  UNL1        0.0145
      3 C          -7.4797  -18.9780   20.0062 C.ar    1  UNL1        0.0505
      4 C          -7.9460  -19.7900   18.8343 C.ar    1  UNL1        0.0170
      5 C          -9.3440  -20.3330   18.8068 C.ar    1  UNL1        0.0306
      6 C         -10.2756  -20.0640   19.9512 C.ar    1  UNL1        0.1380
      7 F         -11.6737  -20.6070   19.9237 F       1  UNL1       -0.2044
      8 C          -9.8890  -20.0592   22.8726 C.3     1  UNL1        0.0321
      9 C         -10.7411  -18.9831   22.2675 C.3     1  UNL1        0.1432
     10 N         -11.2695  -18.0005   21.2649 N.2     1  UNL1       -0.2214
     11 C         -12.4337  -17.1227   21.6169 C.2     1  UNL1        0.2769
     12 N         -12.9622  -16.1400   20.6143 N.pl3   1  UNL1       -0.3133
     13 O         -13.0695  -17.2275   22.9715 O.2     1  UNL1       -0.4480
     14 C         -12.5411  -18.2101   23.9740 C.3     1  UNL1        0.2383
     15 C         -11.3769  -19.0880   23.6221 C.3     1  UNL1        0.2277
     16 F         -10.8484  -20.0706   24.6246 F       1  UNL1       -0.2309
     17 H         -12.5449  -16.0712   19.7253 H       1  UNL1        0.1466
     18 H         -13.7263  -15.5638   20.8453 H       1  UNL1        0.1466
     19 C         -13.1769  -18.3149   25.3286 C.3     1  UNL1        0.2394
     20 F         -14.6376  -18.6342   25.4488 F       1  UNL1       -0.2302
     21 N          -6.0817  -18.4350   20.0337 N.am    1  UNL1       -0.2791
     22 C          -4.9140  -19.3734   20.1114 C.2     1  UNL1        0.2688
     23 O          -5.1444  -20.8548   20.1617 O.2     1  UNL1       -0.2681
     24 H          -5.9305  -17.4628   20.0007 H       1  UNL1        0.1552
     25 C          -3.5160  -18.8305   20.1389 C.ar    1  UNL1        0.1541
     26 C          -2.5032  -19.4139   21.0789 C.ar    1  UNL1        0.1258
     27 N          -1.1051  -18.8709   21.1064 N.ar    1  UNL1       -0.2070
     28 C          -0.7200  -17.7446   20.1938 C.ar    1  UNL1        0.2469
     29 C          -1.7328  -17.1611   19.2537 C.ar    1  UNL1        0.1566
     30 N          -3.1308  -17.7040   19.2263 N.ar    1  UNL1       -0.2328
     31 O           0.6780  -17.2016   20.2213 O.3     1  UNL1       -0.4265
     32 C           1.7711  -17.9781   20.8938 C.3     1  UNL1        0.4044
     33 F           3.0713  -17.3082   21.2267 F       1  UNL1       -0.1809
@<TRIPOS>BOND
     1     9     8    1
     2     9     1    1
     3     1     2   ar
     4     2     3   ar
     5     3    21    1
     6    21    22   am
     7    22    23    2
     8    22    25    1
     9    25    26   ar
    10    26    27   ar
    11    27    28   ar
    12    28    31    1
    13    31    32    1
    14    32    33    1
    15    28    29   ar
    16    29    30   ar
    17     3     4   ar
    18     4     5   ar
    19     5     6   ar
    20     6     7    1
    21     9    10    1
    22    10    11    2
    23    11    12    1
    24    11    13    1
    25    13    14    1
    26    14    19    1
    27    19    20    1
    28    14    15    1
    29    15    16    1
    30    15     9    1
    31     6     1   ar
    32    30    25   ar
    33    21    24    1
    34    12    17    1
    35    12    18    1
@<TRIPOS>MOLECULE
*****
 33 35 0 0 0
SMALL
GASTEIGER

@<TRIPOS>ATOM
      1 C           2.9468   -0.6554   20.2412 C.ar    1  UNL1        0.0293
      2 C           1.6502   -0.1560   20.8061 C.ar    1  UNL1        0.0145
      3 C           0.7868    0.7677   19.9990 C.ar    1  UNL1        0.0505
      4 C           1.2200    1.1918   18.6270 C.ar    1  UNL1        0.0170
      5 C           2.5167    0.6924   18.0621 C.ar    1  UNL1        0.0306
      6 C           3.3801   -0.2312   18.8692 C.ar    1  UNL1        0.1380
      7 F           4.6768   -0.7307   18.3043 F       1  UNL1       -0.2044
      8 C           3.8973   -0.3400   21.8892 C.3     1  UNL1        0.0321
      9 C           3.8103   -1.5791   21.0483 C.3     1  UNL1        0.1432
     10 N           3.4234   -2.4974   19.9272 N.2     1  UNL1       -0.2214
     11 C           3.9301   -3.9090   19.9051 C.2     1  UNL1        0.2769
     12 N           3.5432   -4.8274   18.7839 N.pl3   1  UNL1       -0.3133
     13 O           4.8238   -4.4023   21.0043 O.2     1  UNL1       -0.4480
     14 C           5.2107   -3.4840   22.1254 C.3     1  UNL1        0.2383
     15 C           4.7040   -2.0724   22.1474 C.3     1  UNL1        0.2277
     16 F           5.0908   -1.1540   23.2685 F       1  UNL1       -0.2309
     17 H           2.9566   -4.5036   18.0626 H       1  UNL1        0.1466
     18 H           3.8758   -5.7539   18.7694 H       1  UNL1        0.1466
     19 C           6.1044   -3.9773   23.2245 C.3     1  UNL1        0.2394
     20 F           5.8020   -3.6267   24.6512 F       1  UNL1       -0.2302
     21 N          -0.5100    1.2671   20.5639 N.am    1  UNL1       -0.2791
     22 C          -0.6117    2.6720   21.0798 C.2     1  UNL1        0.2688
     23 O           0.5834    3.5773   21.0308 O.2     1  UNL1       -0.2681
     24 H          -1.2943    0.6730   20.5961 H       1  UNL1        0.1552
     25 C          -1.9083    3.1715   21.6447 C.ar    1  UNL1        0.1541
     26 C          -1.9151    3.9709   22.9139 C.ar    1  UNL1        0.1258
     27 N          -3.2118    4.4704   23.4788 N.ar    1  UNL1       -0.2070
     28 C          -4.5017    4.1705   22.7744 C.ar    1  UNL1        0.2469
     29 C          -4.4950    3.3711   21.5052 C.ar    1  UNL1        0.1566
     30 N          -3.1983    2.8716   20.9404 N.ar    1  UNL1       -0.2328
     31 O          -5.7984    4.6700   23.3393 O.3     1  UNL1       -0.4265
     32 C          -7.0910    4.3445   22.6515 C.3     1  UNL1        0.4044
     33 F          -8.2984    3.9733   23.4606 F       1  UNL1       -0.1809
@<TRIPOS>BOND
     1     9     8    1
     2     9     1    1
     3     1     2   ar
     4     2     3   ar
     5     3    21    1
     6    21    22   am
     7    22    23    2
     8    22    25    1
     9    25    26   ar
    10    26    27   ar
    11    27    28   ar
    12    28    31    1
    13    31    32    1
    14    32    33    1
    15    28    29   ar
    16    29    30   ar
    17     3     4   ar
    18     4     5   ar
    19     5     6   ar
    20     6     7    1
    21     9    10    1
    22    10    11    2
    23    11    12    1
    24    11    13    1
    25    13    14    1
    26    14    19    1
    27    19    20    1
    28    14    15    1
    29    15    16    1
    30    15     9    1
    31     6     1   ar
    32    30    25   ar
    33    21    24    1
    34    12    17    1
    35    12    18    1
@<TRIPOS>MOLECULE
*****
 33 35 0 0 0
SMALL
GASTEIGER

@<TRIPOS>ATOM
      1 C          -8.3739  -16.3341   24.5074 C.ar    1  UNL1        0.0293
      2 C          -7.1086  -16.5208   23.7237 C.ar    1  UNL1        0.0145
      3 C          -5.8033  -16.0344   24.2800 C.ar    1  UNL1        0.0505
      4 C          -5.7632  -15.3613   25.6199 C.ar    1  UNL1        0.0170
      5 C          -7.0285  -15.1746   26.4035 C.ar    1  UNL1        0.0306
      6 C          -8.3338  -15.6610   25.8473 C.ar    1  UNL1        0.1380
      7 F          -9.5992  -15.4743   26.6309 F       1  UNL1       -0.2044
      8 C          -9.6480  -17.5800   25.2442 C.3     1  UNL1        0.0321
      9 C          -9.6793  -16.8204   23.9511 C.3     1  UNL1        0.1432
     10 N          -9.2573  -15.8920   22.8512 N.2     1  UNL1       -0.2214
     11 C         -10.1297  -15.7137   21.6441 C.2     1  UNL1        0.2769
     12 N          -9.7076  -14.7852   20.5442 N.pl3   1  UNL1       -0.3133
     13 O         -11.4243  -16.4639   21.5370 O.2     1  UNL1       -0.4480
     14 C         -11.8463  -17.3923   22.6369 C.3     1  UNL1        0.2383
     15 C         -10.9739  -17.5706   23.8440 C.3     1  UNL1        0.2277
     16 F         -11.3959  -18.4990   24.9440 F       1  UNL1       -0.2309
     17 H          -8.8580  -14.2929   20.6145 H       1  UNL1        0.1466
     18 H         -10.2802  -14.6682   19.7519 H       1  UNL1        0.1466
     19 C         -13.1409  -18.1425   22.5298 C.3     1  UNL1        0.2394
     20 F         -14.1151  -18.1239   23.6703 F       1  UNL1       -0.2302
     21 N          -4.5379  -16.2211   23.4963 N.am    1  UNL1       -0.2791
     22 C          -4.3032  -17.4973   22.7438 C.2     1  UNL1        0.2688
     23 O          -5.3338  -18.5868   22.7749 O.2     1  UNL1       -0.2681
     24 H          -3.8615  -15.5061   23.4759 H       1  UNL1        0.1552
     25 C          -3.0379  -17.6840   21.9602 C.ar    1  UNL1        0.1541
     26 C          -2.5142  -19.0652   21.6992 C.ar    1  UNL1        0.1258
     27 N          -1.2488  -19.2519   20.9156 N.ar    1  UNL1       -0.2070
     28 C          -0.5072  -18.0575   20.3929 C.ar    1  UNL1        0.2469
     29 C          -1.0309  -16.6763   20.6538 C.ar    1  UNL1        0.1566
     30 N          -2.2962  -16.4895   21.4375 N.ar    1  UNL1       -0.2328
     31 O           0.7581  -18.2442   19.6093 O.3     1  UNL1       -0.4265
     32 C           1.9494  -17.3772   19.8906 C.3     1  UNL1        0.4044
     33 F           2.7039  -17.5339   21.1775 F       1  UNL1       -0.1809
@<TRIPOS>BOND
     1     9     8    1
     2     9     1    1
     3     1     2   ar
     4     2     3   ar
     5     3    21    1
     6    21    22   am
     7    22    23    2
     8    22    25    1
     9    25    26   ar
    10    26    27   ar
    11    27    28   ar
    12    28    31    1
    13    31    32    1
    14    32    33    1
    15    28    29   ar
    16    29    30   ar
    17     3     4   ar
    18     4     5   ar
    19     5     6   ar
    20     6     7    1
    21     9    10    1
    22    10    11    2
    23    11    12    1
    24    11    13    1
    25    13    14    1
    26    14    19    1
    27    19    20    1
    28    14    15    1
    29    15    16    1
    30    15     9    1
    31     6     1   ar
    32    30    25   ar
    33    21    24    1
    34    12    17    1
    35    12    18    1
@<TRIPOS>MOLECULE
*****
 33 35 0 0 0
SMALL
GASTEIGER

@<TRIPOS>ATOM
      1 C         -14.4802   -2.4629   18.5863 C.ar    1  UNL1        0.0293
      2 C         -15.1281   -1.7695   19.7479 C.ar    1  UNL1        0.0145
      3 C         -16.4290   -1.0470   19.5594 C.ar    1  UNL1        0.0505
      4 C         -17.0820   -1.0178   18.2093 C.ar    1  UNL1        0.0170
      5 C         -16.4341   -1.7113   17.0477 C.ar    1  UNL1        0.0306
      6 C         -15.1332   -2.4338   17.2362 C.ar    1  UNL1        0.1380
      7 F         -14.4852   -3.1273   16.0746 F       1  UNL1       -0.2044
      8 C         -12.6712   -1.7993   18.5095 C.3     1  UNL1        0.0321
      9 C         -13.1793   -3.1855   18.7748 C.3     1  UNL1        0.1432
     10 N         -14.1391   -4.3207   18.9746 N.2     1  UNL1       -0.2214
     11 C         -13.6216   -5.6971   19.2708 C.2     1  UNL1        0.2769
     12 N         -14.5815   -6.8324   19.4706 N.pl3   1  UNL1       -0.3133
     13 O         -12.1442   -5.9383   19.3671 O.2     1  UNL1       -0.4480
     14 C         -11.1844   -4.8030   19.1673 C.3     1  UNL1        0.2383
     15 C         -11.7019   -3.4267   18.8712 C.3     1  UNL1        0.2277
     16 F         -10.7421   -2.2914   18.6713 F       1  UNL1       -0.2309
     17 H         -15.5511   -6.6741   19.4074 H       1  UNL1        0.1466
     18 H         -14.2418   -7.7358   19.6650 H       1  UNL1        0.1466
     19 C          -9.7070   -5.0442   19.2637 C.3     1  UNL1        0.2394
     20 F          -9.1868   -6.4332   19.4870 F       1  UNL1       -0.2302
     21 N         -17.0770   -0.3535   20.7210 N.am    1  UNL1       -0.2791
     22 C         -17.0567    1.1439   20.8069 C.2     1  UNL1        0.2688
     23 O         -16.3884    1.9478   19.7311 O.2     1  UNL1       -0.2681
     24 H         -17.5156   -0.8811   21.4270 H       1  UNL1        0.1552
     25 C         -17.7046    1.8374   21.9684 C.ar    1  UNL1        0.1541
     26 C         -16.9927    2.9594   22.6642 C.ar    1  UNL1        0.1258
     27 N         -17.6407    3.6529   23.8258 N.ar    1  UNL1       -0.2070
     28 C         -19.0006    3.2244   24.2916 C.ar    1  UNL1        0.2469
     29 C         -19.7125    2.1023   23.5958 C.ar    1  UNL1        0.1566
     30 N         -19.0646    1.4089   22.4342 N.ar    1  UNL1       -0.2328
     31 O         -19.6485    3.9179   25.4531 O.3     1  UNL1       -0.4265
     32 C         -19.1040    5.2265   25.9441 C.3     1  UNL1        0.4044
     33 F         -18.3954    5.2960   27.2644 F       1  UNL1       -0.1809
@<TRIPOS>BOND
     1     9     8    1
     2     9     1    1
     3     1     2   ar
     4     2     3   ar
     5     3    21    1
     6    21    22   am
     7    22    23    2
     8    22    25    1
     9    25    26   ar
    10    26    27   ar
    11    27    28   ar
    12    28    31    1
    13    31    32    1
    14    32    33    1
    15    28    29   ar
    16    29    30   ar
    17     3     4   ar
    18     4     5   ar
    19     5     6   ar
    20     6     7    1
    21     9    10    1
    22    10    11    2
    23    11    12    1
    24    11    13    1
    25    13    14    1
    26    14    19    1
    27    19    20    1
    28    14    15    1
    29    15    16    1
    30    15     9    1
    31     6     1   ar
    32    30    25   ar
    33    21    24    1
    34    12    17    1
    35    12    18    1
@<TRIPOS>MOLECULE
*****
 33 35 0 0 0
SMALL
GASTEIGER

@<TRIPOS>ATOM
      1 C          -8.4546  -16.4396   24.6344 C.ar    1  UNL1        0.0293
      2 C          -7.2106  -16.5803   23.8083 C.ar    1  UNL1        0.0145
      3 C          -5.8812  -16.1878   24.3816 C.ar    1  UNL1        0.0505
      4 C          -5.7960  -15.6545   25.7810 C.ar    1  UNL1        0.0170
      5 C          -7.0400  -15.5138   26.6071 C.ar    1  UNL1        0.0306
      6 C          -8.3693  -15.9064   26.0338 C.ar    1  UNL1        0.1380
      7 F          -9.6135  -15.7656   26.8599 F       1  UNL1       -0.2044
      8 C          -9.6841  -15.4261   23.5481 C.3     1  UNL1        0.0321
      9 C          -9.7841  -16.8322   24.0611 C.3     1  UNL1        0.1432
     10 N          -9.4224  -18.1018   24.7732 N.2     1  UNL1       -0.2214
     11 C         -10.3553  -19.2757   24.7338 C.2     1  UNL1        0.2769
     12 N          -9.9935  -20.5454   25.4459 N.pl3   1  UNL1       -0.3133
     13 O         -11.6500  -19.1799   23.9823 O.2     1  UNL1       -0.4480
     14 C         -12.0117  -17.9103   23.2703 C.3     1  UNL1        0.2383
     15 C         -11.0787  -16.7364   23.3096 C.3     1  UNL1        0.2277
     16 F         -11.4404  -15.4667   22.5976 F       1  UNL1       -0.2309
     17 H          -9.1438  -20.6083   25.9391 H       1  UNL1        0.1466
     18 H         -10.6059  -21.3159   25.4201 H       1  UNL1        0.1466
     19 C         -13.3064  -17.8145   22.5188 C.3     1  UNL1        0.2394
     20 F         -13.3023  -17.4724   21.0583 F       1  UNL1       -0.2302
     21 N          -4.6371  -16.3285   23.5555 N.am    1  UNL1       -0.2791
     22 C          -4.3456  -17.6213   22.8528 C.2     1  UNL1        0.2688
     23 O          -5.2983  -18.7734   22.9763 O.2     1  UNL1       -0.2681
     24 H          -4.0118  -15.5724   23.4745 H       1  UNL1        0.1552
     25 C          -3.1016  -17.7621   22.0268 C.ar    1  UNL1        0.1541
     26 C          -2.5551  -19.1249   21.7202 C.ar    1  UNL1        0.1258
     27 N          -1.3109  -19.2656   20.8940 N.ar    1  UNL1       -0.2070
     28 C          -0.6134  -18.0435   20.3746 C.ar    1  UNL1        0.2469
     29 C          -1.1599  -16.6807   20.6811 C.ar    1  UNL1        0.1566
     30 N          -2.4040  -16.5399   21.5072 N.ar    1  UNL1       -0.2328
     31 O           0.6307  -18.1843   19.5485 O.3     1  UNL1       -0.4265
     32 C           1.8461  -17.3695   19.8783 C.3     1  UNL1        0.4044
     33 F           2.5271  -17.5411   21.2038 F       1  UNL1       -0.1809
@<TRIPOS>BOND
     1     9     8    1
     2     9     1    1
     3     1     2   ar
     4     2     3   ar
     5     3    21    1
     6    21    22   am
     7    22    23    2
     8    22    25    1
     9    25    26   ar
    10    26    27   ar
    11    27    28   ar
    12    28    31    1
    13    31    32    1
    14    32    33    1
    15    28    29   ar
    16    29    30   ar
    17     3     4   ar
    18     4     5   ar
    19     5     6   ar
    20     6     7    1
    21     9    10    1
    22    10    11    2
    23    11    12    1
    24    11    13    1
    25    13    14    1
    26    14    19    1
    27    19    20    1
    28    14    15    1
    29    15    16    1
    30    15     9    1
    31     6     1   ar
    32    30    25   ar
    33    21    24    1
    34    12    17    1
    35    12    18    1
@<TRIPOS>MOLECULE
*****
 33 35 0 0 0
SMALL
GASTEIGER

@<TRIPOS>ATOM
      1 C           3.6698   -0.6723   19.1912 C.ar    1  UNL1        0.0293
      2 C           4.3823   -1.0950   20.4416 C.ar    1  UNL1        0.0145
      3 C           5.5045   -2.0875   20.3663 C.ar    1  UNL1        0.0505
      4 C           5.9143   -2.6571   19.0405 C.ar    1  UNL1        0.0170
      5 C           5.2018   -2.2343   17.7901 C.ar    1  UNL1        0.0306
      6 C           4.0796   -1.2419   17.8654 C.ar    1  UNL1        0.1380
      7 F           3.3671   -0.8190   16.6150 F       1  UNL1       -0.2044
      8 C           1.8528   -0.8993   19.7960 C.3     1  UNL1        0.0321
      9 C           2.5476    0.3202   19.2665 C.3     1  UNL1        0.1432
     10 N           3.6320    1.1950   18.7109 N.2     1  UNL1       -0.2214
     11 C           3.3529    2.6387   18.4145 C.2     1  UNL1        0.2769
     12 N           4.4374    3.5135   17.8589 N.pl3   1  UNL1       -0.3133
     13 O           1.9894    3.2075   18.6737 O.2     1  UNL1       -0.4480
     14 C           0.9049    2.3328   19.2293 C.3     1  UNL1        0.2383
     15 C           1.1840    0.8891   19.5257 C.3     1  UNL1        0.2277
     16 F           0.0996    0.0142   20.0813 F       1  UNL1       -0.2309
     17 H           5.3324    3.1401   17.6888 H       1  UNL1        0.1466
     18 H           4.2543    4.4610   17.6643 H       1  UNL1        0.1466
     19 C          -0.4586    2.9017   19.4884 C.3     1  UNL1        0.2394
     20 F          -1.2208    2.4937   20.7142 F       1  UNL1       -0.2302
     21 N           6.2170   -2.5103   21.6168 N.am    1  UNL1       -0.2791
     22 C           5.7095   -3.6771   22.4111 C.2     1  UNL1        0.2688
     23 O           4.4894   -4.4210   21.9550 O.2     1  UNL1       -0.2681
     24 H           7.0178   -2.0220   21.9161 H       1  UNL1        0.1552
     25 C           6.4219   -4.0999   23.6615 C.ar    1  UNL1        0.1541
     26 C           6.2532   -3.3090   24.9248 C.ar    1  UNL1        0.1258
     27 N           6.9657   -3.7319   26.1753 N.ar    1  UNL1       -0.2070
     28 C           7.8469   -4.9457   26.1624 C.ar    1  UNL1        0.2469
     29 C           8.0157   -5.7366   24.8990 C.ar    1  UNL1        0.1566
     30 N           7.3032   -5.3137   23.6486 N.ar    1  UNL1       -0.2328
     31 O           8.5594   -5.3685   27.4128 O.3     1  UNL1       -0.4265
     32 C           7.8415   -6.1869   28.4447 C.3     1  UNL1        0.4044
     33 F           6.5086   -5.7366   28.9648 F       1  UNL1       -0.1809
@<TRIPOS>BOND
     1     9     8    1
     2     9     1    1
     3     1     2   ar
     4     2     3   ar
     5     3    21    1
     6    21    22   am
     7    22    23    2
     8    22    25    1
     9    25    26   ar
    10    26    27   ar
    11    27    28   ar
    12    28    31    1
    13    31    32    1
    14    32    33    1
    15    28    29   ar
    16    29    30   ar
    17     3     4   ar
    18     4     5   ar
    19     5     6   ar
    20     6     7    1
    21     9    10    1
    22    10    11    2
    23    11    12    1
    24    11    13    1
    25    13    14    1
    26    14    19    1
    27    19    20    1
    28    14    15    1
    29    15    16    1
    30    15     9    1
    31     6     1   ar
    32    30    25   ar
    33    21    24    1
    34    12    17    1
    35    12    18    1
@<TRIPOS>MOLECULE
*****
 33 35 0 0 0
SMALL
GASTEIGER

@<TRIPOS>ATOM
      1 C           4.1749   -0.3812   19.0230 C.ar    1  UNL1        0.0293
      2 C           4.7935   -0.6972   20.3524 C.ar    1  UNL1        0.0145
      3 C           5.5616   -1.9722   20.5381 C.ar    1  UNL1        0.0505
      4 C           5.7110   -2.9312   19.3944 C.ar    1  UNL1        0.0170
      5 C           5.0923   -2.6152   18.0650 C.ar    1  UNL1        0.0306
      6 C           4.3243   -1.3402   17.8793 C.ar    1  UNL1        0.1380
      7 F           3.7056   -1.0242   16.5498 F       1  UNL1       -0.2044
      8 C           4.7231    1.2930   18.2387 C.3     1  UNL1        0.0321
      9 C           3.4068    0.8938   18.8372 C.3     1  UNL1        0.1432
     10 N           2.3574    0.0518   19.5002 N.2     1  UNL1       -0.2214
     11 C           0.9970    0.6234   19.7696 C.2     1  UNL1        0.2769
     12 N          -0.0525   -0.2186   20.4326 N.pl3   1  UNL1       -0.3133
     13 O           0.6861    2.0371   19.3759 O.2     1  UNL1       -0.4480
     14 C           1.7355    2.8791   18.7129 C.3     1  UNL1        0.2383
     15 C           3.0959    2.3075   18.4435 C.3     1  UNL1        0.2277
     16 F           4.1455    3.1494   17.7805 F       1  UNL1       -0.2309
     17 H           0.1516   -1.1465   20.6910 H       1  UNL1        0.1466
     18 H          -0.9454    0.1565   20.6094 H       1  UNL1        0.1466
     19 C           1.4246    4.2928   18.3192 C.3     1  UNL1        0.2394
     20 F           1.9262    4.8354   17.0138 F       1  UNL1       -0.2302
     21 N           6.1802   -2.2882   21.8676 N.am    1  UNL1       -0.2791
     22 C           5.5104   -3.2586   22.7948 C.2     1  UNL1        0.2688
     23 O           4.2220   -3.9130   22.3925 O.2     1  UNL1       -0.2681
     24 H           7.0259   -1.8587   22.1316 H       1  UNL1        0.1552
     25 C           6.1291   -3.5747   24.1242 C.ar    1  UNL1        0.1541
     26 C           7.0253   -4.7687   24.2696 C.ar    1  UNL1        0.1258
     27 N           7.6439   -5.0847   25.5991 N.ar    1  UNL1       -0.2070
     28 C           7.3663   -4.2068   26.7831 C.ar    1  UNL1        0.2469
     29 C           6.4700   -3.0127   26.6378 C.ar    1  UNL1        0.1566
     30 N           5.8514   -2.6967   25.3084 N.ar    1  UNL1       -0.2328
     31 O           7.9849   -4.5228   28.1126 O.3     1  UNL1       -0.4265
     32 C           7.5844   -5.7664   28.8495 C.3     1  UNL1        0.4044
     33 F           6.4530   -5.7235   29.8336 F       1  UNL1       -0.1809
@<TRIPOS>BOND
     1     9     8    1
     2     9     1    1
     3     1     2   ar
     4     2     3   ar
     5     3    21    1
     6    21    22   am
     7    22    23    2
     8    22    25    1
     9    25    26   ar
    10    26    27   ar
    11    27    28   ar
    12    28    31    1
    13    31    32    1
    14    32    33    1
    15    28    29   ar
    16    29    30   ar
    17     3     4   ar
    18     4     5   ar
    19     5     6   ar
    20     6     7    1
    21     9    10    1
    22    10    11    2
    23    11    12    1
    24    11    13    1
    25    13    14    1
    26    14    19    1
    27    19    20    1
    28    14    15    1
    29    15    16    1
    30    15     9    1
    31     6     1   ar
    32    30    25   ar
    33    21    24    1
    34    12    17    1
    35    12    18    1
@<TRIPOS>MOLECULE
*****
 33 35 0 0 0
SMALL
GASTEIGER

@<TRIPOS>ATOM
      1 C           3.4275   -1.2834   19.9725 C.ar    1  UNL1        0.0293
      2 C           3.6484   -1.6117   21.4193 C.ar    1  UNL1        0.0145
      3 C           4.4275   -2.8356   21.8001 C.ar    1  UNL1        0.0505
      4 C           4.9856   -3.7312   20.7341 C.ar    1  UNL1        0.0170
      5 C           4.7647   -3.4029   19.2873 C.ar    1  UNL1        0.0306
      6 C           3.9856   -2.1790   18.9065 C.ar    1  UNL1        0.1380
      7 F           3.7647   -1.8506   17.4596 F       1  UNL1       -0.2044
      8 C           1.5390   -0.9212   20.1174 C.3     1  UNL1        0.0321
      9 C           2.6484   -0.0594   19.5916 C.3     1  UNL1        0.1432
     10 N           4.0284    0.3773   19.1981 N.2     1  UNL1       -0.2214
     11 C           4.2441    1.7387   18.6063 C.2     1  UNL1        0.2769
     12 N           5.6241    2.1754   18.2128 N.pl3   1  UNL1       -0.3133
     13 O           3.0796    2.6633   18.4080 O.2     1  UNL1       -0.4480
     14 C           1.6997    2.2266   18.8015 C.3     1  UNL1        0.2383
     15 C           1.4840    0.8652   19.3933 C.3     1  UNL1        0.2277
     16 F           0.1041    0.4284   19.7868 F       1  UNL1       -0.2309
     17 H           6.3883    1.5685   18.3429 H       1  UNL1        0.1466
     18 H           5.7657    3.0689   17.8244 H       1  UNL1        0.1466
     19 C           0.5353    3.1512   18.6032 C.3     1  UNL1        0.2394
     20 F          -0.4539    2.8871   17.5070 F       1  UNL1       -0.2302
     21 N           4.6484   -3.1639   23.2470 N.am    1  UNL1       -0.2791
     22 C           5.9706   -2.8666   23.8901 C.2     1  UNL1        0.2688
     23 O           7.0717   -2.2408   23.0863 O.2     1  UNL1       -0.2681
     24 H           3.9257   -3.5746   23.7745 H       1  UNL1        0.1552
     25 C           6.1915   -3.1949   25.3369 C.ar    1  UNL1        0.1541
     26 C           6.9051   -4.4578   25.7189 C.ar    1  UNL1        0.1258
     27 N           7.1261   -4.7861   27.1659 N.ar    1  UNL1       -0.2070
     28 C           6.6335   -3.8515   28.2307 C.ar    1  UNL1        0.2469
     29 C           5.9200   -2.5886   27.8487 C.ar    1  UNL1        0.1566
     30 N           5.6990   -2.2603   26.4019 N.ar    1  UNL1       -0.2328
     31 O           6.8545   -4.1798   29.6775 O.3     1  UNL1       -0.4265
     32 C           6.8362   -5.6086   30.1336 C.3     1  UNL1        0.4044
     33 F           6.8380   -5.9282   31.5992 F       1  UNL1       -0.1809
@<TRIPOS>BOND
     1     9     8    1
     2     9     1    1
     3     1     2   ar
     4     2     3   ar
     5     3    21    1
     6    21    22   am
     7    22    23    2
     8    22    25    1
     9    25    26   ar
    10    26    27   ar
    11    27    28   ar
    12    28    31    1
    13    31    32    1
    14    32    33    1
    15    28    29   ar
    16    29    30   ar
    17     3     4   ar
    18     4     5   ar
    19     5     6   ar
    20     6     7    1
    21     9    10    1
    22    10    11    2
    23    11    12    1
    24    11    13    1
    25    13    14    1
    26    14    19    1
    27    19    20    1
    28    14    15    1
    29    15    16    1
    30    15     9    1
    31     6     1   ar
    32    30    25   ar
    33    21    24    1
    34    12    17    1
    35    12    18    1
@<TRIPOS>MOLECULE
*****
 33 35 0 0 0
SMALL
GASTEIGER

@<TRIPOS>ATOM
      1 C           2.8217    1.0626   18.8265 C.ar    1  UNL1        0.0293
      2 C           1.3749    1.3510   19.0972 C.ar    1  UNL1        0.0145
      3 C           0.8474    2.7471   18.9463 C.ar    1  UNL1        0.0505
      4 C           1.7669    3.8547   18.5246 C.ar    1  UNL1        0.0170
      5 C           3.2137    3.5663   18.2539 C.ar    1  UNL1        0.0306
      6 C           3.7412    2.1703   18.4049 C.ar    1  UNL1        0.1380
      7 F           5.1881    1.8818   18.1342 F       1  UNL1       -0.2044
      8 C           3.4497   -0.1765   17.4890 C.3     1  UNL1        0.0321
      9 C           3.3492   -0.3335   18.9774 C.3     1  UNL1        0.1432
     10 N           3.0656   -0.0056   20.4133 N.2     1  UNL1       -0.2214
     11 C           3.3443   -1.0192   21.4833 C.2     1  UNL1        0.2769
     12 N           3.0607   -0.6913   22.9193 N.pl3   1  UNL1       -0.3133
     13 O           3.9067   -2.3608   21.1173 O.2     1  UNL1       -0.4480
     14 C           4.1904   -2.6887   19.6813 C.3     1  UNL1        0.2383
     15 C           3.9116   -1.6751   18.6114 C.3     1  UNL1        0.2277
     16 F           4.1952   -2.0029   17.1754 F       1  UNL1       -0.2309
     17 H           2.6916    0.1892   23.1595 H       1  UNL1        0.1466
     18 H           3.2436   -1.3566   23.6216 H       1  UNL1        0.1466
     19 C           4.7528   -4.0303   19.3153 C.3     1  UNL1        0.2394
     20 F           3.8874   -5.0437   18.6268 F       1  UNL1       -0.2302
     21 N          -0.5995    3.0356   19.2170 N.am    1  UNL1       -0.2791
     22 C          -1.1021    3.0891   20.6293 C.2     1  UNL1        0.2688
     23 O          -0.1578    2.8541   21.7708 O.2     1  UNL1       -0.2681
     24 H          -1.2193    3.1897   18.4677 H       1  UNL1        0.1552
     25 C          -2.5490    3.3775   20.9000 C.ar    1  UNL1        0.1541
     26 C          -3.5022    3.5687   19.7577 C.ar    1  UNL1        0.1258
     27 N          -4.9491    3.8572   20.0285 N.ar    1  UNL1       -0.2070
     28 C          -5.4428    3.9544   21.4415 C.ar    1  UNL1        0.2469
     29 C          -4.4896    3.7632   22.5839 C.ar    1  UNL1        0.1566
     30 N          -3.0427    3.4748   22.3131 N.ar    1  UNL1       -0.2328
     31 O          -6.8896    4.2429   21.7123 O.3     1  UNL1       -0.4265
     32 C          -7.3400    4.5787   23.1031 C.3     1  UNL1        0.4044
     33 F          -8.5873    3.9571   23.6582 F       1  UNL1       -0.1809
@<TRIPOS>BOND
     1     9     8    1
     2     9     1    1
     3     1     2   ar
     4     2     3   ar
     5     3    21    1
     6    21    22   am
     7    22    23    2
     8    22    25    1
     9    25    26   ar
    10    26    27   ar
    11    27    28   ar
    12    28    31    1
    13    31    32    1
    14    32    33    1
    15    28    29   ar
    16    29    30   ar
    17     3     4   ar
    18     4     5   ar
    19     5     6   ar
    20     6     7    1
    21     9    10    1
    22    10    11    2
    23    11    12    1
    24    11    13    1
    25    13    14    1
    26    14    19    1
    27    19    20    1
    28    14    15    1
    29    15    16    1
    30    15     9    1
    31     6     1   ar
    32    30    25   ar
    33    21    24    1
    34    12    17    1
    35    12    18    1
