@<TRIPOS>MOLECULE
*****
 32 35 0 0 0
SMALL
GASTEIGER

@<TRIPOS>ATOM
      1 C          -6.5008  -18.3885   22.3145 C.3     1  UNL1        0.1420
      2 C          -7.4749  -19.2544   21.5721 C.3     1  UNL1        0.0268
      3 C          -6.9773  -20.2577   20.5742 C.3     1  UNL1        0.0022
      4 C          -5.5056  -20.3950   20.3187 C.3     1  UNL1        0.0051
      5 C          -4.5315  -19.5290   21.0611 C.3     1  UNL1        0.0595
      6 C          -5.0291  -18.5257   22.0590 C.3     1  UNL1        0.0731
      7 C          -4.0550  -17.6597   22.8015 C.3     1  UNL1        0.2075
      8 O          -4.5526  -16.6564   23.7993 O.3     1  UNL1       -0.4733
      9 C          -6.0243  -16.5192   24.0549 C.ar    1  UNL1        0.1654
     10 C          -6.5219  -15.5158   25.0528 C.ar    1  UNL1        0.1737
     11 F          -5.5478  -14.6499   25.7952 F       1  UNL1       -0.2010
     12 C          -7.9936  -15.3786   25.3083 C.ar    1  UNL1        0.0351
     13 C          -8.9677  -16.2446   24.5659 C.ar    1  UNL1        0.0319
     14 C          -8.4701  -17.2479   23.5680 C.ar    1  UNL1        0.1407
     15 F          -9.6903  -17.9288   23.0227 F       1  UNL1       -0.2043
     16 C          -6.9984  -17.3851   23.3125 C.ar    1  UNL1        0.0616
     17 O          -8.3052  -18.7338   23.1102 O.2     1  UNL1       -0.1684
     18 S          -7.9725  -18.2512   22.5700 S.O2    1  UNL1        0.0093
     19 O          -8.4000  -17.1492   21.6466 O.2     1  UNL1       -0.1684
     20 C          -9.4442  -18.1139   22.8255 C.ar    1  UNL1        0.1059
     21 C         -10.0933  -18.9110   23.9180 C.ar    1  UNL1        0.0192
     22 C         -11.5650  -18.7738   24.1735 C.ar    1  UNL1        0.0127
     23 C         -12.3876  -17.8394   23.3365 C.ar    1  UNL1        0.0578
     24 CL        -13.8593  -17.7021   23.5920 Cl      1  UNL1       -0.0822
     25 C         -11.7385  -17.0423   22.2442 C.ar    1  UNL1        0.0127
     26 C         -10.2668  -17.1796   21.9887 C.ar    1  UNL1        0.0192
     27 C          -3.2273  -18.9404   21.5113 C.3     1  UNL1        0.1396
     28 O          -2.0290  -19.8240   21.6939 O.3     1  UNL1       -0.3819
     29 H          -2.1901  -20.4401   22.4255 H       1  UNL1        0.2104
     30 C          -3.5809  -20.3279   20.2195 C.3     1  UNL1        0.1396
     31 O          -2.9203  -19.6967   19.0299 O.3     1  UNL1       -0.3819
     32 H          -3.5909  -19.4859   18.3616 H       1  UNL1        0.2104
@<TRIPOS>BOND
     1    17    18    2
     2    18    19    2
     3    18    20    1
     4    20    21   ar
     5    21    22   ar
     6    22    23   ar
     7    23    24    1
     8    23    25   ar
     9    25    26   ar
    10     1    18    1
    11     1     2    1
    12     2     3    1
    13     3     4    1
    14     4     5    1
    15     5    27    1
    16    27    28    1
    17     5    30    1
    18    30    31    1
    19     5     6    1
    20     6     7    1
    21     7     8    1
    22     8     9    1
    23     9    10   ar
    24    10    11    1
    25    10    12   ar
    26    12    13   ar
    27    13    14   ar
    28    14    15    1
    29    14    16   ar
    30    26    20   ar
    31     6     1    1
    32    16     9   ar
    33    16     1    1
    34    28    29    1
    35    31    32    1
@<TRIPOS>MOLECULE
*****
 32 35 0 0 0
SMALL
GASTEIGER

@<TRIPOS>ATOM
      1 C          -6.3765  -18.6780   21.7132 C.3     1  UNL1        0.1420
      2 C          -6.6101  -17.6670   22.7964 C.3     1  UNL1        0.0268
      3 C          -5.4537  -17.1426   23.5949 C.3     1  UNL1        0.0022
      4 C          -4.0637  -17.6292   23.3103 C.3     1  UNL1        0.0051
      5 C          -3.8300  -18.6402   22.2271 C.3     1  UNL1        0.0595
      6 C          -4.9864  -19.1645   21.4286 C.3     1  UNL1        0.0731
      7 C          -4.7528  -20.1756   20.3453 C.3     1  UNL1        0.2075
      8 O          -5.9092  -20.7000   19.5468 O.3     1  UNL1       -0.4733
      9 C          -7.2992  -20.2134   19.8314 C.ar    1  UNL1        0.1654
     10 C          -8.4557  -20.7379   19.0328 C.ar    1  UNL1        0.1737
     11 F          -8.2220  -21.7488   17.9497 F       1  UNL1       -0.2010
     12 C          -9.8457  -20.2513   19.3175 C.ar    1  UNL1        0.0351
     13 C         -10.0793  -19.2403   20.4007 C.ar    1  UNL1        0.0319
     14 C          -8.9230  -18.7159   21.1993 C.ar    1  UNL1        0.1407
     15 F          -9.5053  -17.7402   22.1785 F       1  UNL1       -0.2043
     16 C          -7.5329  -19.2024   20.9146 C.ar    1  UNL1        0.0616
     17 O          -8.2469  -18.6609   22.4271 O.2     1  UNL1       -0.1684
     18 S          -7.7665  -18.1914   21.9979 S.O2    1  UNL1        0.0093
     19 O          -7.8269  -16.8517   21.3260 O.2     1  UNL1       -0.1684
     20 C          -9.1566  -17.7049   22.2825 C.ar    1  UNL1        0.1059
     21 C          -9.7103  -16.5329   21.5275 C.ar    1  UNL1        0.0192
     22 C         -11.1003  -16.0463   21.8121 C.ar    1  UNL1        0.0127
     23 C         -11.9367  -16.7318   22.8518 C.ar    1  UNL1        0.0578
     24 CL        -13.3267  -16.2452   23.1365 Cl      1  UNL1       -0.0822
     25 C         -11.3829  -17.9036   23.6068 C.ar    1  UNL1        0.0127
     26 C          -9.9929  -18.3902   23.3221 C.ar    1  UNL1        0.0192
     27 C          -3.1076  -19.5827   21.3107 C.3     1  UNL1        0.1396
     28 O          -1.7202  -20.0416   21.6488 O.3     1  UNL1       -0.3819
     29 H          -1.1128  -19.2861   21.6162 H       1  UNL1        0.2104
     30 C          -2.4227  -18.4431   22.7074 C.3     1  UNL1        0.1396
     31 O          -1.7124  -17.1497   22.4378 O.3     1  UNL1       -0.3819
     32 H          -1.5735  -17.0500   21.4830 H       1  UNL1        0.2104
@<TRIPOS>BOND
     1    17    18    2
     2    18    19    2
     3    18    20    1
     4    20    21   ar
     5    21    22   ar
     6    22    23   ar
     7    23    24    1
     8    23    25   ar
     9    25    26   ar
    10     1    18    1
    11     1     2    1
    12     2     3    1
    13     3     4    1
    14     4     5    1
    15     5    27    1
    16    27    28    1
    17     5    30    1
    18    30    31    1
    19     5     6    1
    20     6     7    1
    21     7     8    1
    22     8     9    1
    23     9    10   ar
    24    10    11    1
    25    10    12   ar
    26    12    13   ar
    27    13    14   ar
    28    14    15    1
    29    14    16   ar
    30    26    20   ar
    31     6     1    1
    32    16     9   ar
    33    16     1    1
    34    28    29    1
    35    31    32    1
@<TRIPOS>MOLECULE
*****
 32 35 0 0 0
SMALL
GASTEIGER

@<TRIPOS>ATOM
      1 C          -8.2177  -17.1484   23.5635 C.3     1  UNL1        0.1420
      2 C          -9.0043  -16.5346   24.6836 C.3     1  UNL1        0.0268
      3 C          -8.3197  -15.6528   25.6854 C.3     1  UNL1        0.0022
      4 C          -6.8486  -15.3846   25.5671 C.3     1  UNL1        0.0051
      5 C          -6.0621  -15.9983   24.4470 C.3     1  UNL1        0.0595
      6 C          -6.7466  -16.8802   23.4452 C.3     1  UNL1        0.0731
      7 C          -5.9601  -17.4940   22.3250 C.3     1  UNL1        0.2075
      8 O          -6.6447  -18.3759   21.3232 O.3     1  UNL1       -0.4733
      9 C          -8.1158  -18.6441   21.4416 C.ar    1  UNL1        0.1654
     10 C          -8.8003  -19.5260   20.4397 C.ar    1  UNL1        0.1737
     11 F          -8.0138  -20.1397   19.3196 F       1  UNL1       -0.2010
     12 C         -10.2714  -19.7942   20.5580 C.ar    1  UNL1        0.0351
     13 C         -11.0579  -19.1804   21.6782 C.ar    1  UNL1        0.0319
     14 C         -10.3734  -18.2985   22.6800 C.ar    1  UNL1        0.1407
     15 F         -11.4376  -17.8636   23.6434 F       1  UNL1       -0.2043
     16 C          -8.9023  -18.0303   22.5616 C.ar    1  UNL1        0.0616
     17 O         -10.1934  -16.8591   23.4171 O.2     1  UNL1       -0.1684
     18 S          -9.6888  -17.4165   23.6818 S.O2    1  UNL1        0.0093
     19 O          -9.7605  -18.7726   24.3190 O.2     1  UNL1       -0.1684
     20 C         -11.1599  -17.6847   23.8001 C.ar    1  UNL1        0.1059
     21 C         -12.1297  -16.9454   22.9265 C.ar    1  UNL1        0.0192
     22 C         -13.6007  -17.2136   23.0448 C.ar    1  UNL1        0.0127
     23 C         -14.1021  -18.2210   24.0368 C.ar    1  UNL1        0.0578
     24 CL        -15.5732  -18.4891   24.1551 Cl      1  UNL1       -0.0822
     25 C         -13.1323  -18.9602   24.9103 C.ar    1  UNL1        0.0127
     26 C         -11.6612  -18.6920   24.7920 C.ar    1  UNL1        0.0192
     27 C          -4.8973  -16.3480   23.5688 C.3     1  UNL1        0.1396
     28 O          -4.1046  -15.2606   22.9062 O.3     1  UNL1       -0.3819
     29 H          -4.6632  -14.8014   22.2596 H       1  UNL1        0.2104
     30 C          -4.9730  -15.2378   25.1438 C.3     1  UNL1        0.1396
     31 O          -5.3217  -14.1560   26.1226 O.3     1  UNL1       -0.3819
     32 H          -5.7567  -13.4255   25.6557 H       1  UNL1        0.2104
@<TRIPOS>BOND
     1    17    18    2
     2    18    19    2
     3    18    20    1
     4    20    21   ar
     5    21    22   ar
     6    22    23   ar
     7    23    24    1
     8    23    25   ar
     9    25    26   ar
    10     1    18    1
    11     1     2    1
    12     2     3    1
    13     3     4    1
    14     4     5    1
    15     5    27    1
    16    27    28    1
    17     5    30    1
    18    30    31    1
    19     5     6    1
    20     6     7    1
    21     7     8    1
    22     8     9    1
    23     9    10   ar
    24    10    11    1
    25    10    12   ar
    26    12    13   ar
    27    13    14   ar
    28    14    15    1
    29    14    16   ar
    30    26    20   ar
    31     6     1    1
    32    16     9   ar
    33    16     1    1
    34    28    29    1
    35    31    32    1
@<TRIPOS>MOLECULE
*****
 32 35 0 0 0
SMALL
GASTEIGER

@<TRIPOS>ATOM
      1 C         -13.7733   -5.7853   18.9298 C.3     1  UNL1        0.1420
      2 C         -13.4921   -7.2112   18.5588 C.3     1  UNL1        0.0268
      3 C         -12.0789   -7.6649   18.3417 C.3     1  UNL1        0.0022
      4 C         -10.9471   -6.6926   18.4955 C.3     1  UNL1        0.0051
      5 C         -11.2284   -5.2667   18.8664 C.3     1  UNL1        0.0595
      6 C         -12.6415   -4.8130   19.0835 C.3     1  UNL1        0.0731
      7 C         -12.9228   -3.3871   19.4545 C.3     1  UNL1        0.2075
      8 O         -14.3360   -2.9334   19.6716 O.3     1  UNL1       -0.4733
      9 C         -15.4678   -3.9057   19.5178 C.ar    1  UNL1        0.1654
     10 C         -16.8810   -3.4519   19.7350 C.ar    1  UNL1        0.1737
     11 F         -17.1623   -2.0260   20.1059 F       1  UNL1       -0.2010
     12 C         -18.0129   -4.4242   19.5812 C.ar    1  UNL1        0.0351
     13 C         -17.7315   -5.8502   19.2103 C.ar    1  UNL1        0.0319
     14 C         -16.3184   -6.3038   18.9931 C.ar    1  UNL1        0.1407
     15 F         -16.4009   -7.7598   18.6421 F       1  UNL1       -0.2043
     16 C         -15.1865   -5.3316   19.1469 C.ar    1  UNL1        0.0616
     17 O         -15.2036   -7.0919   19.4352 O.2     1  UNL1       -0.1684
     18 S         -14.9052   -6.7575   18.7760 S.O2    1  UNL1        0.0093
     19 O         -15.1460   -6.8032   17.2962 O.2     1  UNL1       -0.1684
     20 C         -16.0370   -7.7298   18.6222 C.ar    1  UNL1        0.1059
     21 C         -16.4657   -8.5722   19.7871 C.ar    1  UNL1        0.0192
     22 C         -17.5975   -9.5444   19.6333 C.ar    1  UNL1        0.0127
     23 C         -18.3007   -9.6743   18.3147 C.ar    1  UNL1        0.0578
     24 CL        -19.4326  -10.6466   18.1609 Cl      1  UNL1       -0.0822
     25 C         -17.8721   -8.8320   17.1499 C.ar    1  UNL1        0.0127
     26 C         -16.7403   -7.8597   17.3037 C.ar    1  UNL1        0.0192
     27 C         -10.9901   -3.8243   19.2024 C.3     1  UNL1        0.1396
     28 O          -9.5890   -3.3118   19.3570 O.3     1  UNL1       -0.3819
     29 H          -9.1755   -3.7287   20.1290 H       1  UNL1        0.2104
     30 C          -9.7324   -5.2195   18.7659 C.3     1  UNL1        0.1396
     31 O          -8.8909   -5.9992   19.7323 O.3     1  UNL1       -0.3819
     32 H          -9.0051   -5.6379   20.6252 H       1  UNL1        0.2104
@<TRIPOS>BOND
     1    17    18    2
     2    18    19    2
     3    18    20    1
     4    20    21   ar
     5    21    22   ar
     6    22    23   ar
     7    23    24    1
     8    23    25   ar
     9    25    26   ar
    10     1    18    1
    11     1     2    1
    12     2     3    1
    13     3     4    1
    14     4     5    1
    15     5    27    1
    16    27    28    1
    17     5    30    1
    18    30    31    1
    19     5     6    1
    20     6     7    1
    21     7     8    1
    22     8     9    1
    23     9    10   ar
    24    10    11    1
    25    10    12   ar
    26    12    13   ar
    27    13    14   ar
    28    14    15    1
    29    14    16   ar
    30    26    20   ar
    31     6     1    1
    32    16     9   ar
    33    16     1    1
    34    28    29    1
    35    31    32    1
@<TRIPOS>MOLECULE
*****
 32 35 0 0 0
SMALL
GASTEIGER

@<TRIPOS>ATOM
      1 C         -15.3430   -7.0963   18.5882 C.3     1  UNL1        0.1420
      2 C         -14.2822   -7.9860   18.0110 C.3     1  UNL1        0.0268
      3 C         -14.5464   -9.4521   17.8365 C.3     1  UNL1        0.0022
      4 C         -15.8713  -10.0287   18.2391 C.3     1  UNL1        0.0051
      5 C         -16.9321   -9.1390   18.8163 C.3     1  UNL1        0.0595
      6 C         -16.6680   -7.6729   18.9909 C.3     1  UNL1        0.0731
      7 C         -17.7288   -6.7831   19.5681 C.3     1  UNL1        0.2075
      8 O         -17.4647   -5.3170   19.7426 O.3     1  UNL1       -0.4733
      9 C         -16.1397   -4.7404   19.3400 C.ar    1  UNL1        0.1654
     10 C         -15.8756   -3.2742   19.5146 C.ar    1  UNL1        0.1737
     11 F         -16.9364   -2.3845   20.0918 F       1  UNL1       -0.2010
     12 C         -14.5507   -2.6976   19.1119 C.ar    1  UNL1        0.0351
     13 C         -13.4898   -3.5874   18.5347 C.ar    1  UNL1        0.0319
     14 C         -13.7540   -5.0535   18.3602 C.ar    1  UNL1        0.1407
     15 F         -12.5027   -5.6314   17.7683 F       1  UNL1       -0.2043
     16 C         -15.0789   -5.6301   18.7628 C.ar    1  UNL1        0.0616
     17 O         -13.8982   -6.3604   17.4138 O.2     1  UNL1       -0.1684
     18 S         -14.0181   -6.5198   18.1856 S.O2    1  UNL1        0.0093
     19 O         -13.2616   -6.4123   19.4764 O.2     1  UNL1       -0.1684
     20 C         -12.6932   -5.9432   17.7830 C.ar    1  UNL1        0.1059
     21 C         -12.5063   -5.3848   16.4033 C.ar    1  UNL1        0.0192
     22 C         -11.1814   -4.8082   16.0007 C.ar    1  UNL1        0.0127
     23 C         -10.0433   -4.7902   16.9777 C.ar    1  UNL1        0.0578
     24 CL         -8.7183   -4.2136   16.5750 Cl      1  UNL1       -0.0822
     25 C         -10.2301   -5.3486   18.3572 C.ar    1  UNL1        0.0127
     26 C         -11.5551   -5.9252   18.7599 C.ar    1  UNL1        0.0192
     27 C         -18.2428   -8.7064   19.4038 C.3     1  UNL1        0.1396
     28 O         -19.2637   -9.7326   19.7970 O.3     1  UNL1       -0.3819
     29 H         -19.5843  -10.1900   19.0040 H       1  UNL1        0.2104
     30 C         -17.6515  -10.4550   18.8458 C.3     1  UNL1        0.1396
     31 O         -16.9681  -11.6711   19.3972 O.3     1  UNL1       -0.3819
     32 H         -16.2198  -11.9078   18.8272 H       1  UNL1        0.2104
@<TRIPOS>BOND
     1    17    18    2
     2    18    19    2
     3    18    20    1
     4    20    21   ar
     5    21    22   ar
     6    22    23   ar
     7    23    24    1
     8    23    25   ar
     9    25    26   ar
    10     1    18    1
    11     1     2    1
    12     2     3    1
    13     3     4    1
    14     4     5    1
    15     5    27    1
    16    27    28    1
    17     5    30    1
    18    30    31    1
    19     5     6    1
    20     6     7    1
    21     7     8    1
    22     8     9    1
    23     9    10   ar
    24    10    11    1
    25    10    12   ar
    26    12    13   ar
    27    13    14   ar
    28    14    15    1
    29    14    16   ar
    30    26    20   ar
    31     6     1    1
    32    16     9   ar
    33    16     1    1
    34    28    29    1
    35    31    32    1
@<TRIPOS>MOLECULE
*****
 32 35 0 0 0
SMALL
GASTEIGER

@<TRIPOS>ATOM
      1 C          -8.5490  -17.9104   22.2305 C.3     1  UNL1        0.1420
      2 C          -8.3762  -18.9416   21.1551 C.3     1  UNL1        0.0268
      3 C          -9.5791  -19.5206   20.4710 C.3     1  UNL1        0.0022
      4 C         -10.9547  -19.0684   20.8625 C.3     1  UNL1        0.0051
      5 C         -11.1274  -18.0371   21.9379 C.3     1  UNL1        0.0595
      6 C          -9.9246  -17.4582   22.6220 C.3     1  UNL1        0.0731
      7 C         -10.0973  -16.4269   23.6975 C.3     1  UNL1        0.2075
      8 O          -8.8945  -15.8479   24.3815 O.3     1  UNL1       -0.4733
      9 C          -7.5189  -16.3001   23.9901 C.ar    1  UNL1        0.1654
     10 C          -6.3161  -15.7211   24.6742 C.ar    1  UNL1        0.1737
     11 F          -6.4888  -14.6898   25.7497 F       1  UNL1       -0.2010
     12 C          -4.9405  -16.1733   24.2828 C.ar    1  UNL1        0.0351
     13 C          -4.7677  -17.2046   23.2072 C.ar    1  UNL1        0.0319
     14 C          -5.9706  -17.7836   22.5232 C.ar    1  UNL1        0.1407
     15 F          -5.4428  -18.7665   21.5205 F       1  UNL1       -0.2043
     16 C          -7.3462  -17.3313   22.9146 C.ar    1  UNL1        0.0616
     17 O          -6.7118  -17.8521   21.4370 O.2     1  UNL1       -0.1684
     18 S          -7.1734  -18.3626   21.8391 S.O2    1  UNL1        0.0093
     19 O          -7.0852  -19.7612   22.3740 O.2     1  UNL1       -0.1684
     20 C          -5.7978  -18.8149   21.4477 C.ar    1  UNL1        0.1059
     21 C          -5.2533  -18.4732   20.0923 C.ar    1  UNL1        0.0192
     22 C          -3.8777  -18.9254   19.7009 C.ar    1  UNL1        0.0127
     23 C          -3.0466  -19.7193   20.6648 C.ar    1  UNL1        0.0578
     24 CL         -1.6710  -20.1716   20.2734 Cl      1  UNL1       -0.0822
     25 C          -3.5911  -20.0610   22.0200 C.ar    1  UNL1        0.0127
     26 C          -4.9667  -19.6087   22.4115 C.ar    1  UNL1        0.0192
     27 C         -11.7989  -17.0931   22.8908 C.3     1  UNL1        0.1396
     28 O         -13.1324  -17.4452   23.4806 O.3     1  UNL1       -0.3819
     29 H         -13.8006  -17.4691   22.7779 H       1  UNL1        0.2104
     30 C         -12.5635  -18.2883   21.5848 C.3     1  UNL1        0.1396
     31 O         -13.3292  -17.2722   20.7903 O.3     1  UNL1       -0.3819
     32 H         -13.4301  -16.4617   21.3136 H       1  UNL1        0.2104
@<TRIPOS>BOND
     1    17    18    2
     2    18    19    2
     3    18    20    1
     4    20    21   ar
     5    21    22   ar
     6    22    23   ar
     7    23    24    1
     8    23    25   ar
     9    25    26   ar
    10     1    18    1
    11     1     2    1
    12     2     3    1
    13     3     4    1
    14     4     5    1
    15     5    27    1
    16    27    28    1
    17     5    30    1
    18    30    31    1
    19     5     6    1
    20     6     7    1
    21     7     8    1
    22     8     9    1
    23     9    10   ar
    24    10    11    1
    25    10    12   ar
    26    12    13   ar
    27    13    14   ar
    28    14    15    1
    29    14    16   ar
    30    26    20   ar
    31     6     1    1
    32    16     9   ar
    33    16     1    1
    34    28    29    1
    35    31    32    1
