@<TRIPOS>MOLECULE
*****
 32 34 0 0 0
SMALL
GASTEIGER

@<TRIPOS>ATOM
      1 C          -3.6570  -18.3086   21.7382 C.ar    1  UNL1        0.1518
      2 C          -3.9934  -19.3806   20.7445 C.ar    1  UNL1        0.0396
      3 C          -5.4248  -19.7616   20.5080 C.ar    1  UNL1        0.0234
      4 C          -6.5198  -19.0706   21.2652 C.ar    1  UNL1        0.1266
      5 C          -6.1834  -17.9986   22.2590 C.ar    1  UNL1        0.0376
      6 C          -4.7520  -17.6176   22.4955 C.ar    1  UNL1        0.0804
      7 S          -7.9512  -19.4517   21.0288 S.O2    1  UNL1        0.0737
      8 O          -8.0895  -19.8291   22.4739 O.2     1  UNL1       -0.1499
      9 O          -7.8129  -19.0743   19.5836 O.2     1  UNL1       -0.1499
     10 N          -9.3826  -19.8327   20.7923 N.pl3   1  UNL1       -0.2120
     11 H          -9.6084  -20.7499   20.5148 H       1  UNL1        0.1738
     12 C         -10.4699  -18.8164   20.9786 C.ar    1  UNL1        0.1003
     13 C         -10.6494  -17.7173   19.9737 C.ar    1  UNL1        0.0304
     14 C         -11.7367  -16.7009   20.1601 C.ar    1  UNL1        0.0600
     15 CL        -11.9162  -15.6018   19.1553 Cl      1  UNL1       -0.0822
     16 C         -12.6445  -16.7836   21.3513 C.ar    1  UNL1        0.0259
     17 C         -12.4650  -17.8827   22.3562 C.ar    1  UNL1        0.0936
     18 CL        -13.3729  -17.9654   23.5475 Cl      1  UNL1       -0.0790
     19 C         -11.3777  -18.8991   22.1699 C.ar    1  UNL1        0.1636
     20 O         -11.1982  -19.9982   23.1748 O.3     1  UNL1       -0.4693
     21 C         -10.6261  -19.6919   24.5271 C.3     1  UNL1        0.2526
     22 C          -1.5982  -16.8306   21.1667 C.3     1  UNL1        0.2525
     23 O          -2.2256  -17.9275   21.9747 O.3     1  UNL1       -0.4702
     24 N          -4.4156  -16.5455   23.4893 N.pl3   1  UNL1       -0.3316
     25 H          -3.5302  -16.1155   23.4688 H       1  UNL1        0.1469
     26 C          -5.4283  -16.1285   24.5142 C.3     1  UNL1        0.0719
     27 C          -6.7893  -15.6701   24.0807 C.3     1  UNL1        0.0368
     28 C          -7.8020  -15.2531   25.1056 C.3     1  UNL1        0.0738
     29 N          -7.4538  -15.2945   26.5641 N.3     1  UNL1       -0.2714
     30 C          -8.4665  -14.8775   27.5891 C.3     1  UNL1        0.0896
     31 C          -6.0929  -15.7529   26.9976 C.3     1  UNL1        0.0738
     32 C          -5.0802  -16.1699   25.9726 C.3     1  UNL1        0.0368
@<TRIPOS>BOND
     1    22    23    1
     2    23     1    1
     3     1     2   ar
     4     2     3   ar
     5     3     4   ar
     6     4     7    1
     7     7     8    2
     8     7     9    2
     9     7    10    1
    10    10    12    1
    11    12    13   ar
    12    13    14   ar
    13    14    15    1
    14    14    16   ar
    15    16    17   ar
    16    17    18    1
    17    17    19   ar
    18    19    20    1
    19    20    21    1
    20     4     5   ar
    21     5     6   ar
    22     6    24    1
    23    24    26    1
    24    26    27    1
    25    27    28    1
    26    28    29    1
    27    29    30    1
    28    29    31    1
    29    31    32    1
    30     6     1   ar
    31    32    26    1
    32    19    12   ar
    33    10    11    1
    34    24    25    1
@<TRIPOS>MOLECULE
*****
 32 34 0 0 0
SMALL
GASTEIGER

@<TRIPOS>ATOM
      1 C         -10.8008  -18.5377   21.0946 C.ar    1  UNL1        0.1518
      2 C         -10.2651  -19.0066   19.7743 C.ar    1  UNL1        0.0396
      3 C          -8.8342  -19.4411   19.6572 C.ar    1  UNL1        0.0234
      4 C          -7.9390  -19.4067   20.8603 C.ar    1  UNL1        0.1266
      5 C          -8.4748  -18.9378   22.1805 C.ar    1  UNL1        0.0376
      6 C          -9.9057  -18.5033   22.2977 C.ar    1  UNL1        0.0804
      7 S          -6.5081  -19.8412   20.7431 S.O2    1  UNL1        0.0737
      8 O          -6.3506  -18.9916   19.5170 O.2     1  UNL1       -0.1499
      9 O          -6.6657  -20.6908   21.9692 O.2     1  UNL1       -0.1499
     10 N          -5.0772  -20.2757   20.6259 N.pl3   1  UNL1       -0.2120
     11 H          -4.8491  -21.2328   20.6600 H       1  UNL1        0.1738
     12 C          -3.9940  -19.2520   20.4569 C.ar    1  UNL1        0.1003
     13 C          -3.2930  -19.1125   19.1381 C.ar    1  UNL1        0.0304
     14 C          -2.2097  -18.0888   18.9692 C.ar    1  UNL1        0.0600
     15 CL         -1.5088  -17.9493   17.6504 Cl      1  UNL1       -0.0822
     16 C          -1.8275  -17.2046   20.1190 C.ar    1  UNL1        0.0259
     17 C          -2.5285  -17.3441   21.4377 C.ar    1  UNL1        0.0936
     18 CL         -2.1462  -16.4598   22.5875 Cl      1  UNL1       -0.0790
     19 C          -3.6117  -18.3677   21.6067 C.ar    1  UNL1        0.1636
     20 O          -4.3127  -18.5072   22.9255 O.3     1  UNL1       -0.4693
     21 C          -5.2642  -17.4428   23.3854 C.3     1  UNL1        0.2526
     22 C         -12.5881  -16.6521   21.0805 C.3     1  UNL1        0.2525
     23 O         -12.2317  -18.1032   21.2117 O.3     1  UNL1       -0.4702
     24 N         -10.4414  -18.0343   23.6180 N.pl3   1  UNL1       -0.3316
     25 H         -11.3794  -18.2106   23.8592 H       1  UNL1        0.1469
     26 C          -9.5478  -17.2968   24.5707 C.3     1  UNL1        0.0719
     27 C          -9.3832  -17.7889   25.9781 C.3     1  UNL1        0.0368
     28 C          -8.4896  -17.0514   26.9308 C.3     1  UNL1        0.0738
     29 N          -7.7606  -15.8218   26.4760 N.3     1  UNL1       -0.2714
     30 C          -6.8671  -15.0843   27.4287 C.3     1  UNL1        0.0896
     31 C          -7.9253  -15.3298   25.0686 C.3     1  UNL1        0.0738
     32 C          -8.8189  -16.0673   24.1160 C.3     1  UNL1        0.0368
@<TRIPOS>BOND
     1    22    23    1
     2    23     1    1
     3     1     2   ar
     4     2     3   ar
     5     3     4   ar
     6     4     7    1
     7     7     8    2
     8     7     9    2
     9     7    10    1
    10    10    12    1
    11    12    13   ar
    12    13    14   ar
    13    14    15    1
    14    14    16   ar
    15    16    17   ar
    16    17    18    1
    17    17    19   ar
    18    19    20    1
    19    20    21    1
    20     4     5   ar
    21     5     6   ar
    22     6    24    1
    23    24    26    1
    24    26    27    1
    25    27    28    1
    26    28    29    1
    27    29    30    1
    28    29    31    1
    29    31    32    1
    30     6     1   ar
    31    32    26    1
    32    19    12   ar
    33    10    11    1
    34    24    25    1
@<TRIPOS>MOLECULE
*****
 32 34 0 0 0
SMALL
GASTEIGER

@<TRIPOS>ATOM
      1 C         -10.8076  -19.0379   20.9463 C.ar    1  UNL1        0.1518
      2 C         -10.2341  -19.3170   19.5887 C.ar    1  UNL1        0.0396
      3 C          -8.7584  -19.5321   19.4277 C.ar    1  UNL1        0.0234
      4 C          -7.8561  -19.4680   20.6242 C.ar    1  UNL1        0.1266
      5 C          -8.4296  -19.1890   21.9819 C.ar    1  UNL1        0.0376
      6 C          -9.9054  -18.9739   22.1429 C.ar    1  UNL1        0.0804
      7 S          -6.3804  -19.6831   20.4632 S.O2    1  UNL1        0.0737
      8 O          -6.2240  -18.2645   20.0016 O.2     1  UNL1       -0.1499
      9 O          -6.5367  -21.1017   20.9248 O.2     1  UNL1       -0.1499
     10 N          -4.9046  -19.8982   20.3022 N.pl3   1  UNL1       -0.2120
     11 H          -4.5725  -20.5927   19.6885 H       1  UNL1        0.1738
     12 C          -3.9350  -19.0551   21.0761 C.ar    1  UNL1        0.1003
     13 C          -4.1538  -18.8130   22.5402 C.ar    1  UNL1        0.0304
     14 C          -3.1841  -17.9699   23.3141 C.ar    1  UNL1        0.0600
     15 CL         -3.4029  -17.7279   24.7782 Cl      1  UNL1       -0.0822
     16 C          -1.9956  -17.3689   22.6239 C.ar    1  UNL1        0.0259
     17 C          -1.7769  -17.6110   21.1598 C.ar    1  UNL1        0.0936
     18 CL         -0.5883  -17.0099   20.4697 Cl      1  UNL1       -0.0790
     19 C          -2.7465  -18.4540   20.3859 C.ar    1  UNL1        0.1636
     20 O          -2.5277  -18.6961   18.9218 O.3     1  UNL1       -0.4693
     21 C          -2.4152  -17.5354   17.9783 C.3     1  UNL1        0.2526
     22 C         -12.8191  -17.4411   21.3388 C.3     1  UNL1        0.2525
     23 O         -12.2834  -18.8229   21.1074 O.3     1  UNL1       -0.4702
     24 N         -10.4789  -18.6948   23.5006 N.pl3   1  UNL1       -0.3316
     25 H         -11.3249  -19.1175   23.7740 H       1  UNL1        0.1469
     26 C          -9.7633  -17.7716   24.4417 C.3     1  UNL1        0.0719
     27 C          -9.2888  -16.4318   23.9620 C.3     1  UNL1        0.0368
     28 C          -8.5733  -15.5086   24.9031 C.3     1  UNL1        0.0738
     29 N          -8.3321  -15.9252   26.3239 N.3     1  UNL1       -0.2714
     30 C          -7.6165  -15.0020   27.2650 C.3     1  UNL1        0.0896
     31 C          -8.8066  -17.2649   26.8034 C.3     1  UNL1        0.0738
     32 C          -9.5222  -18.1881   25.8623 C.3     1  UNL1        0.0368
@<TRIPOS>BOND
     1    22    23    1
     2    23     1    1
     3     1     2   ar
     4     2     3   ar
     5     3     4   ar
     6     4     7    1
     7     7     8    2
     8     7     9    2
     9     7    10    1
    10    10    12    1
    11    12    13   ar
    12    13    14   ar
    13    14    15    1
    14    14    16   ar
    15    16    17   ar
    16    17    18    1
    17    17    19   ar
    18    19    20    1
    19    20    21    1
    20     4     5   ar
    21     5     6   ar
    22     6    24    1
    23    24    26    1
    24    26    27    1
    25    27    28    1
    26    28    29    1
    27    29    30    1
    28    29    31    1
    29    31    32    1
    30     6     1   ar
    31    32    26    1
    32    19    12   ar
    33    10    11    1
    34    24    25    1
@<TRIPOS>MOLECULE
*****
 32 34 0 0 0
SMALL
GASTEIGER

@<TRIPOS>ATOM
      1 C          -7.6082  -15.3860   26.3121 C.ar    1  UNL1        0.1518
      2 C          -6.2522  -15.5096   26.9414 C.ar    1  UNL1        0.0396
      3 C          -5.0808  -15.9554   26.1174 C.ar    1  UNL1        0.0234
      4 C          -5.2653  -16.2776   24.6641 C.ar    1  UNL1        0.1266
      5 C          -6.6213  -16.1540   24.0348 C.ar    1  UNL1        0.0376
      6 C          -7.7927  -15.7081   24.8588 C.ar    1  UNL1        0.0804
      7 S          -4.0939  -16.7234   23.8401 S.O2    1  UNL1        0.0737
      8 O          -4.2959  -15.5554   22.9209 O.2     1  UNL1       -0.1499
      9 O          -3.8918  -17.8914   24.7593 O.2     1  UNL1       -0.1499
     10 N          -2.9224  -17.1692   23.0161 N.pl3   1  UNL1       -0.2120
     11 H          -2.0064  -16.9566   23.3073 H       1  UNL1        0.1738
     12 C          -3.1467  -17.9390   21.7484 C.ar    1  UNL1        0.1003
     13 C          -4.1998  -19.0059   21.6952 C.ar    1  UNL1        0.0304
     14 C          -4.4241  -19.7757   20.4274 C.ar    1  UNL1        0.0600
     15 CL         -5.4772  -20.8425   20.3741 Cl      1  UNL1       -0.0822
     16 C          -3.5953  -19.4786   19.2130 C.ar    1  UNL1        0.0259
     17 C          -2.5422  -18.4118   19.2663 C.ar    1  UNL1        0.0936
     18 CL         -1.7134  -18.1147   18.0518 Cl      1  UNL1       -0.0790
     19 C          -2.3179  -17.6420   20.5340 C.ar    1  UNL1        0.1636
     20 O          -1.2648  -16.5751   20.5872 O.3     1  UNL1       -0.4693
     21 C           0.1702  -16.9241   20.3253 C.3     1  UNL1        0.2526
     22 C          -8.5549  -14.1823   28.4109 C.3     1  UNL1        0.2525
     23 O          -8.7796  -14.9402   27.1361 O.3     1  UNL1       -0.4702
     24 N          -9.1487  -15.5845   24.2295 N.pl3   1  UNL1       -0.3316
     25 H          -9.7079  -14.7960   24.4159 H       1  UNL1        0.1469
     26 C          -9.6527  -16.6623   23.3161 C.3     1  UNL1        0.0719
     27 C          -9.9559  -16.3482   21.8810 C.3     1  UNL1        0.0368
     28 C         -10.4599  -17.4260   20.9676 C.3     1  UNL1        0.0738
     29 N         -10.6606  -18.8180   21.4893 N.3     1  UNL1       -0.2714
     30 C         -11.1646  -19.8958   20.5759 C.3     1  UNL1        0.0896
     31 C         -10.3574  -19.1321   22.9243 C.3     1  UNL1        0.0738
     32 C          -9.8534  -18.0543   23.8377 C.3     1  UNL1        0.0368
@<TRIPOS>BOND
     1    22    23    1
     2    23     1    1
     3     1     2   ar
     4     2     3   ar
     5     3     4   ar
     6     4     7    1
     7     7     8    2
     8     7     9    2
     9     7    10    1
    10    10    12    1
    11    12    13   ar
    12    13    14   ar
    13    14    15    1
    14    14    16   ar
    15    16    17   ar
    16    17    18    1
    17    17    19   ar
    18    19    20    1
    19    20    21    1
    20     4     5   ar
    21     5     6   ar
    22     6    24    1
    23    24    26    1
    24    26    27    1
    25    27    28    1
    26    28    29    1
    27    29    30    1
    28    29    31    1
    29    31    32    1
    30     6     1   ar
    31    32    26    1
    32    19    12   ar
    33    10    11    1
    34    24    25    1
@<TRIPOS>MOLECULE
*****
 32 34 0 0 0
SMALL
GASTEIGER

@<TRIPOS>ATOM
      1 C          -7.4553  -15.3587   25.9271 C.ar    1  UNL1        0.1518
      2 C          -6.1662  -15.5589   26.6675 C.ar    1  UNL1        0.0396
      3 C          -4.9571  -16.0718   25.9430 C.ar    1  UNL1        0.0234
      4 C          -5.0370  -16.3846   24.4782 C.ar    1  UNL1        0.1266
      5 C          -6.3261  -16.1844   23.7378 C.ar    1  UNL1        0.0376
      6 C          -7.5352  -15.6714   24.4623 C.ar    1  UNL1        0.0804
      7 S          -3.8278  -16.8975   23.7537 S.O2    1  UNL1        0.0737
      8 O          -3.9660  -15.7970   22.7439 O.2     1  UNL1       -0.1499
      9 O          -3.6896  -17.9980   24.7636 O.2     1  UNL1       -0.1499
     10 N          -2.6187  -17.4104   23.0293 N.pl3   1  UNL1       -0.2120
     11 H          -1.7294  -17.3423   23.4461 H       1  UNL1        0.1738
     12 C          -2.7644  -18.0271   21.6697 C.ar    1  UNL1        0.1003
     13 C          -1.9440  -17.5163   20.5226 C.ar    1  UNL1        0.0304
     14 C          -2.0898  -18.1330   19.1630 C.ar    1  UNL1        0.0600
     15 CL         -1.2693  -17.6222   18.0159 Cl      1  UNL1       -0.0822
     16 C          -3.0560  -19.2605   18.9506 C.ar    1  UNL1        0.0259
     17 C          -3.8765  -19.7713   20.0977 C.ar    1  UNL1        0.0936
     18 CL         -4.8428  -20.8988   19.8852 Cl      1  UNL1       -0.0790
     19 C          -3.7307  -19.1546   21.4573 C.ar    1  UNL1        0.1636
     20 O          -4.5512  -19.6654   22.6044 O.3     1  UNL1       -0.4693
     21 C          -6.0479  -19.6819   22.5072 C.3     1  UNL1        0.2526
     22 C          -8.6218  -14.6519   28.1384 C.3     1  UNL1        0.2525
     23 O          -8.6645  -14.8458   26.6516 O.3     1  UNL1       -0.4702
     24 N          -8.8243  -15.4712   23.7218 N.pl3   1  UNL1       -0.3316
     25 H          -9.2942  -14.6078   23.7760 H       1  UNL1        0.1469
     26 C          -9.3975  -16.5867   22.8989 C.3     1  UNL1        0.0719
     27 C         -10.0639  -16.2863   21.5889 C.3     1  UNL1        0.0368
     28 C         -10.6371  -17.4017   20.7660 C.3     1  UNL1        0.0738
     29 N         -10.5439  -18.8175   21.2529 N.3     1  UNL1       -0.2714
     30 C         -11.1171  -19.9329   20.4299 C.3     1  UNL1        0.0896
     31 C          -9.8776  -19.1178   22.5628 C.3     1  UNL1        0.0738
     32 C          -9.3044  -18.0023   23.3857 C.3     1  UNL1        0.0368
@<TRIPOS>BOND
     1    22    23    1
     2    23     1    1
     3     1     2   ar
     4     2     3   ar
     5     3     4   ar
     6     4     7    1
     7     7     8    2
     8     7     9    2
     9     7    10    1
    10    10    12    1
    11    12    13   ar
    12    13    14   ar
    13    14    15    1
    14    14    16   ar
    15    16    17   ar
    16    17    18    1
    17    17    19   ar
    18    19    20    1
    19    20    21    1
    20     4     5   ar
    21     5     6   ar
    22     6    24    1
    23    24    26    1
    24    26    27    1
    25    27    28    1
    26    28    29    1
    27    29    30    1
    28    29    31    1
    29    31    32    1
    30     6     1   ar
    31    32    26    1
    32    19    12   ar
    33    10    11    1
    34    24    25    1
@<TRIPOS>MOLECULE
*****
 32 34 0 0 0
SMALL
GASTEIGER

@<TRIPOS>ATOM
      1 C           7.5756   -7.4994   25.8920 C.ar    1  UNL1        0.1518
      2 C           8.3706   -7.6430   24.6282 C.ar    1  UNL1        0.0396
      3 C           8.4518   -6.5008   23.6594 C.ar    1  UNL1        0.0234
      4 C           7.7380   -5.2149   23.9543 C.ar    1  UNL1        0.1266
      5 C           6.9430   -5.0713   25.2181 C.ar    1  UNL1        0.0376
      6 C           6.8617   -6.2135   26.1870 C.ar    1  UNL1        0.0804
      7 S           7.8192   -4.0727   22.9854 S.O2    1  UNL1        0.0737
      8 O           6.7012   -3.3808   23.7073 O.2     1  UNL1       -0.1499
      9 O           8.9373   -4.7647   22.2634 O.2     1  UNL1       -0.1499
     10 N           7.9004   -2.9305   22.0165 N.pl3   1  UNL1       -0.2120
     11 H           8.6585   -2.3037   22.0569 H       1  UNL1        0.1738
     12 C           6.8267   -2.7434   20.9860 C.ar    1  UNL1        0.1003
     13 C           6.2208   -3.9368   20.3088 C.ar    1  UNL1        0.0304
     14 C           5.1470   -3.7496   19.2783 C.ar    1  UNL1        0.0600
     15 CL          4.5411   -4.9431   18.6011 Cl      1  UNL1       -0.0822
     16 C           4.6791   -2.3690   18.9249 C.ar    1  UNL1        0.0259
     17 C           5.2850   -1.1755   19.6021 C.ar    1  UNL1        0.0936
     18 CL          4.8171    0.2052   19.2487 Cl      1  UNL1       -0.0790
     19 C           6.3588   -1.3627   20.6326 C.ar    1  UNL1        0.1636
     20 O           6.9646   -0.1692   21.3097 O.3     1  UNL1       -0.4693
     21 C           6.3772    0.3449   22.5906 C.3     1  UNL1        0.2526
     22 C           8.6915   -9.0127   27.6849 C.3     1  UNL1        0.2525
     23 O           7.4943   -8.6416   26.8609 O.3     1  UNL1       -0.4702
     24 N           6.0666   -6.0698   27.4508 N.pl3   1  UNL1       -0.3316
     25 H           5.1692   -6.4693   27.5159 H       1  UNL1        0.1469
     26 C           6.6390   -5.3175   28.6155 C.3     1  UNL1        0.0719
     27 C           6.4403   -3.8344   28.7211 C.3     1  UNL1        0.0368
     28 C           7.0126   -3.0821   29.8858 C.3     1  UNL1        0.0738
     29 N           7.7837   -3.8129   30.9448 N.3     1  UNL1       -0.2714
     30 C           8.3560   -3.0606   32.1095 C.3     1  UNL1        0.0896
     31 C           7.9824   -5.2959   30.8391 C.3     1  UNL1        0.0738
     32 C           7.4100   -6.0482   29.6745 C.3     1  UNL1        0.0368
@<TRIPOS>BOND
     1    22    23    1
     2    23     1    1
     3     1     2   ar
     4     2     3   ar
     5     3     4   ar
     6     4     7    1
     7     7     8    2
     8     7     9    2
     9     7    10    1
    10    10    12    1
    11    12    13   ar
    12    13    14   ar
    13    14    15    1
    14    14    16   ar
    15    16    17   ar
    16    17    18    1
    17    17    19   ar
    18    19    20    1
    19    20    21    1
    20     4     5   ar
    21     5     6   ar
    22     6    24    1
    23    24    26    1
    24    26    27    1
    25    27    28    1
    26    28    29    1
    27    29    30    1
    28    29    31    1
    29    31    32    1
    30     6     1   ar
    31    32    26    1
    32    19    12   ar
    33    10    11    1
    34    24    25    1
@<TRIPOS>MOLECULE
*****
 32 34 0 0 0
SMALL
GASTEIGER

@<TRIPOS>ATOM
      1 C           7.5818   -7.4782   25.9212 C.ar    1  UNL1        0.1518
      2 C           8.3052   -7.5575   24.6096 C.ar    1  UNL1        0.0396
      3 C           8.2830   -6.3892   23.6690 C.ar    1  UNL1        0.0234
      4 C           7.5375   -5.1416   24.0401 C.ar    1  UNL1        0.1266
      5 C           6.8141   -5.0624   25.3517 C.ar    1  UNL1        0.0376
      6 C           6.8362   -6.2307   26.2923 C.ar    1  UNL1        0.0804
      7 S           7.5153   -3.9733   23.0996 S.O2    1  UNL1        0.0737
      8 O           7.1569   -4.8908   21.9684 O.2     1  UNL1       -0.1499
      9 O           7.8738   -3.0558   24.2309 O.2     1  UNL1       -0.1499
     10 N           7.4932   -2.8050   22.1591 N.pl3   1  UNL1       -0.2120
     11 H           8.3364   -2.3748   21.8886 H       1  UNL1        0.1738
     12 C           6.1864   -2.2922   21.6307 C.ar    1  UNL1        0.1003
     13 C           5.1511   -1.7612   22.5773 C.ar    1  UNL1        0.0304
     14 C           3.8442   -1.2484   22.0488 C.ar    1  UNL1        0.0600
     15 CL          2.8090   -0.7173   22.9955 Cl      1  UNL1       -0.0822
     16 C           3.5727   -1.2667   20.5738 C.ar    1  UNL1        0.0259
     17 C           4.6080   -1.7977   19.6271 C.ar    1  UNL1        0.0936
     18 CL          4.3364   -1.8160   18.1519 Cl      1  UNL1       -0.0790
     19 C           5.9148   -2.3105   20.1555 C.ar    1  UNL1        0.1636
     20 O           6.9501   -2.8416   19.2089 O.3     1  UNL1       -0.4693
     21 C           8.1355   -1.9981   18.8437 C.3     1  UNL1        0.2526
     22 C           8.8201   -8.9129   27.6984 C.3     1  UNL1        0.2525
     23 O           7.6039   -8.6465   26.8617 O.3     1  UNL1       -0.4702
     24 N           6.1128   -6.1514   27.6039 N.pl3   1  UNL1       -0.3316
     25 H           5.2498   -6.6111   27.7187 H       1  UNL1        0.1469
     26 C           6.7042   -5.3716   28.7407 C.3     1  UNL1        0.0719
     27 C           6.4694   -3.8933   28.8384 C.3     1  UNL1        0.0368
     28 C           7.0608   -3.1136   29.9752 C.3     1  UNL1        0.0738
     29 N           7.8871   -3.8121   31.0142 N.3     1  UNL1       -0.2714
     30 C           8.4785   -3.0324   32.1509 C.3     1  UNL1        0.0896
     31 C           8.1218   -5.2904   30.9164 C.3     1  UNL1        0.0738
     32 C           7.5304   -6.0701   29.7796 C.3     1  UNL1        0.0368
@<TRIPOS>BOND
     1    22    23    1
     2    23     1    1
     3     1     2   ar
     4     2     3   ar
     5     3     4   ar
     6     4     7    1
     7     7     8    2
     8     7     9    2
     9     7    10    1
    10    10    12    1
    11    12    13   ar
    12    13    14   ar
    13    14    15    1
    14    14    16   ar
    15    16    17   ar
    16    17    18    1
    17    17    19   ar
    18    19    20    1
    19    20    21    1
    20     4     5   ar
    21     5     6   ar
    22     6    24    1
    23    24    26    1
    24    26    27    1
    25    27    28    1
    26    28    29    1
    27    29    30    1
    28    29    31    1
    29    31    32    1
    30     6     1   ar
    31    32    26    1
    32    19    12   ar
    33    10    11    1
    34    24    25    1
@<TRIPOS>MOLECULE
*****
 32 34 0 0 0
SMALL
GASTEIGER

@<TRIPOS>ATOM
      1 C           6.9881   -1.9696   18.3968 C.ar    1  UNL1        0.1518
      2 C           8.3066   -2.0453   19.1079 C.ar    1  UNL1        0.0396
      3 C           8.4207   -2.8025   20.3978 C.ar    1  UNL1        0.0234
      4 C           7.2163   -3.4840   20.9764 C.ar    1  UNL1        0.1266
      5 C           5.8978   -3.4083   20.2652 C.ar    1  UNL1        0.0376
      6 C           5.7837   -2.6511   18.9754 C.ar    1  UNL1        0.0804
      7 S           7.3304   -4.2412   22.2662 S.O2    1  UNL1        0.0737
      8 O           5.8571   -4.5210   22.2323 O.2     1  UNL1       -0.1499
      9 O           8.8036   -3.9614   22.3002 O.2     1  UNL1       -0.1499
     10 N           7.4444   -4.9984   23.5560 N.pl3   1  UNL1       -0.2120
     11 H           7.7729   -5.9265   23.5546 H       1  UNL1        0.1738
     12 C           7.0581   -4.3416   24.8480 C.ar    1  UNL1        0.1003
     13 C           6.8207   -2.8612   24.8952 C.ar    1  UNL1        0.0304
     14 C           6.4344   -2.2044   26.1873 C.ar    1  UNL1        0.0600
     15 CL          6.1969   -0.7241   26.2344 Cl      1  UNL1       -0.0822
     16 C           6.2855   -3.0279   27.4321 C.ar    1  UNL1        0.0259
     17 C           6.5229   -4.5083   27.3849 C.ar    1  UNL1        0.0936
     18 CL          6.3740   -5.3318   28.6298 Cl      1  UNL1       -0.0790
     19 C           6.9092   -5.1651   26.0929 C.ar    1  UNL1        0.1636
     20 O           7.1467   -6.6454   26.0458 O.3     1  UNL1       -0.4693
     21 C           8.5186   -7.1936   26.3049 C.3     1  UNL1        0.2526
     22 C           6.7818    0.2847   17.1218 C.3     1  UNL1        0.2525
     23 O           6.8741   -1.2124   17.1069 O.3     1  UNL1       -0.4702
     24 N           4.4651   -2.5755   18.2642 N.pl3   1  UNL1       -0.3316
     25 H           4.2710   -3.1906   17.5204 H       1  UNL1        0.1469
     26 C           3.4424   -1.5626   18.6863 C.3     1  UNL1        0.0719
     27 C           3.2047   -0.3422   17.8471 C.3     1  UNL1        0.0368
     28 C           2.1820    0.6707   18.2692 C.3     1  UNL1        0.0738
     29 N           1.3970    0.4631   19.5305 N.3     1  UNL1       -0.2714
     30 C           0.3742    1.4760   19.9526 C.3     1  UNL1        0.0896
     31 C           1.6347   -0.7572   20.3696 C.3     1  UNL1        0.0738
     32 C           2.6574   -1.7701   19.9475 C.3     1  UNL1        0.0368
@<TRIPOS>BOND
     1    22    23    1
     2    23     1    1
     3     1     2   ar
     4     2     3   ar
     5     3     4   ar
     6     4     7    1
     7     7     8    2
     8     7     9    2
     9     7    10    1
    10    10    12    1
    11    12    13   ar
    12    13    14   ar
    13    14    15    1
    14    14    16   ar
    15    16    17   ar
    16    17    18    1
    17    17    19   ar
    18    19    20    1
    19    20    21    1
    20     4     5   ar
    21     5     6   ar
    22     6    24    1
    23    24    26    1
    24    26    27    1
    25    27    28    1
    26    28    29    1
    27    29    30    1
    28    29    31    1
    29    31    32    1
    30     6     1   ar
    31    32    26    1
    32    19    12   ar
    33    10    11    1
    34    24    25    1
@<TRIPOS>MOLECULE
*****
 32 34 0 0 0
SMALL
GASTEIGER

@<TRIPOS>ATOM
      1 C           6.5642   -3.9548   23.5402 C.ar    1  UNL1        0.1518
      2 C           7.2119   -3.3539   24.7523 C.ar    1  UNL1        0.0396
      3 C           6.5370   -2.2325   25.4851 C.ar    1  UNL1        0.0234
      4 C           5.2145   -1.7120   25.0057 C.ar    1  UNL1        0.1266
      5 C           4.5668   -2.3129   23.7936 C.ar    1  UNL1        0.0376
      6 C           5.2416   -3.4343   23.0608 C.ar    1  UNL1        0.0804
      7 S           4.5396   -0.5905   25.7385 S.O2    1  UNL1        0.0737
      8 O           3.6642   -1.5808   26.4478 O.2     1  UNL1       -0.1499
      9 O           5.4150    0.3997   25.0292 O.2     1  UNL1       -0.1499
     10 N           3.8648    0.5309   26.4713 N.pl3   1  UNL1       -0.2120
     11 H           4.3437    1.0112   27.1849 H       1  UNL1        0.1738
     12 C           2.4603    0.9205   26.1169 C.ar    1  UNL1        0.1003
     13 C           2.0725    1.1022   24.6793 C.ar    1  UNL1        0.0304
     14 C           0.6679    1.4918   24.3249 C.ar    1  UNL1        0.0600
     15 CL          0.2801    1.6736   22.8873 Cl      1  UNL1       -0.0822
     16 C          -0.3487    1.6997   25.4080 C.ar    1  UNL1        0.0259
     17 C           0.0391    1.5180   26.8456 C.ar    1  UNL1        0.0936
     18 CL         -0.9776    1.7259   27.9287 Cl      1  UNL1       -0.0790
     19 C           1.4436    1.1284   27.2000 C.ar    1  UNL1        0.1636
     20 O           1.8314    0.9467   28.6376 O.3     1  UNL1       -0.4693
     21 C           1.7254   -0.4056   29.2778 C.3     1  UNL1        0.2526
     22 C           8.1997   -4.7749   21.6956 C.3     1  UNL1        0.2525
     23 O           7.2390   -5.0763   22.8074 O.3     1  UNL1       -0.4702
     24 N           4.5939   -4.0352   21.8486 N.pl3   1  UNL1       -0.3316
     25 H           4.2558   -4.9594   21.8782 H       1  UNL1        0.1469
     26 C           4.4613   -3.2280   20.5913 C.3     1  UNL1        0.0719
     27 C           5.3695   -3.4969   19.4281 C.3     1  UNL1        0.0368
     28 C           5.2369   -2.6897   18.1708 C.3     1  UNL1        0.0738
     29 N           4.1961   -1.6137   18.0766 N.3     1  UNL1       -0.2714
     30 C           4.0635   -0.8065   16.8193 C.3     1  UNL1        0.0896
     31 C           3.2879   -1.3448   19.2397 C.3     1  UNL1        0.0738
     32 C           3.4205   -2.1520   20.4971 C.3     1  UNL1        0.0368
@<TRIPOS>BOND
     1    22    23    1
     2    23     1    1
     3     1     2   ar
     4     2     3   ar
     5     3     4   ar
     6     4     7    1
     7     7     8    2
     8     7     9    2
     9     7    10    1
    10    10    12    1
    11    12    13   ar
    12    13    14   ar
    13    14    15    1
    14    14    16   ar
    15    16    17   ar
    16    17    18    1
    17    17    19   ar
    18    19    20    1
    19    20    21    1
    20     4     5   ar
    21     5     6   ar
    22     6    24    1
    23    24    26    1
    24    26    27    1
    25    27    28    1
    26    28    29    1
    27    29    30    1
    28    29    31    1
    29    31    32    1
    30     6     1   ar
    31    32    26    1
    32    19    12   ar
    33    10    11    1
    34    24    25    1
