@<TRIPOS>MOLECULE
*****
 23 26 0 0 0
SMALL
GASTEIGER

@<TRIPOS>ATOM
      1 S          -8.6699  -19.1514   20.9902 S.3     1  UNL1       -0.0709
      2 C          -2.2898  -18.8695   20.0858 C.2     1  UNL1        0.1223
      3 C          -2.2437  -19.3657   21.5006 C.2     1  UNL1        0.0343
      4 C          -3.5190  -19.6206   22.2479 C.2     1  UNL1        0.0232
      5 C          -4.8405  -19.3794   21.5805 C.2     1  UNL1        0.0975
      6 N          -6.2521  -19.5403   22.0616 N.2     1  UNL1       -0.2200
      7 C          -7.1707  -19.1435   20.9441 C.2     1  UNL1        0.1901
      8 N          -6.3268  -18.7374   19.7724 N.2     1  UNL1       -0.2236
      9 C          -4.8867  -18.8832   20.1657 C.2     1  UNL1        0.0863
     10 C          -3.6113  -18.6282   19.4183 C.3     1  UNL1        0.1112
     11 C           0.0615  -17.7720   19.9568 C.3     1  UNL1        0.2520
     12 O          -1.0145  -18.6145   19.3385 O.2     1  UNL1       -0.4753
     13 C          -9.4076  -17.9975   21.6022 C.3     1  UNL1        0.0913
     14 C          -9.0918  -17.5637   23.0030 C.ar    1  UNL1       -0.0109
     15 C          -9.9528  -18.0226   24.1423 C.ar    1  UNL1       -0.0034
     16 C          -9.6370  -17.5888   25.5431 C.ar    1  UNL1       -0.0003
     17 C          -8.4603  -16.6959   25.8045 C.ar    1  UNL1       -0.0000
     18 C          -8.1446  -16.2621   27.2052 C.ar    1  UNL1       -0.0000
     19 C          -6.9680  -15.3693   27.4665 C.ar    1  UNL1       -0.0000
     20 C          -6.1070  -14.9103   26.3272 C.ar    1  UNL1       -0.0000
     21 C          -6.4227  -15.3442   24.9265 C.ar    1  UNL1       -0.0000
     22 C          -7.5994  -16.2370   24.6651 C.ar    1  UNL1       -0.0003
     23 C          -7.9152  -16.6709   23.2643 C.ar    1  UNL1       -0.0034
@<TRIPOS>BOND
     1    11    12    1
     2    12     2    1
     3     2     3    2
     4     3     4    1
     5     4     5    2
     6     5     6    1
     7     6     7    2
     8     7     1    1
     9     1    13    1
    10    13    14    1
    11    14    15   ar
    12    15    16   ar
    13    16    17   ar
    14    17    18   ar
    15    18    19   ar
    16    19    20   ar
    17    20    21   ar
    18    21    22   ar
    19    22    23   ar
    20     7     8    1
    21     8     9    2
    22     9    10    1
    23    10     2    1
    24     9     5    1
    25    23    14   ar
    26    22    17   ar
@<TRIPOS>MOLECULE
*****
 23 26 0 0 0
SMALL
GASTEIGER

@<TRIPOS>ATOM
      1 S          -6.0570  -15.2421   24.5386 S.3     1  UNL1       -0.0709
      2 C          -1.7017  -18.4960   21.0677 C.2     1  UNL1        0.1223
      3 C          -2.5343  -19.6810   21.4581 C.2     1  UNL1        0.0343
      4 C          -3.7493  -19.4936   22.3176 C.2     1  UNL1        0.0232
      5 C          -4.1317  -18.1212   22.7866 C.2     1  UNL1        0.0975
      6 N          -5.2661  -17.6308   23.6367 N.2     1  UNL1       -0.2200
      7 C          -5.1347  -16.1427   23.7717 C.2     1  UNL1        0.1901
      8 N          -3.9190  -15.7133   23.0050 N.2     1  UNL1       -0.2236
      9 C          -3.2992  -16.9360   22.3962 C.2     1  UNL1        0.0863
     10 C          -2.0841  -17.1234   21.5368 C.3     1  UNL1        0.1112
     11 C           0.4512  -17.5363   19.9751 C.3     1  UNL1        0.2520
     12 O          -0.4867  -18.6834   20.2083 O.2     1  UNL1       -0.4753
     13 C          -7.4663  -15.0357   24.0684 C.3     1  UNL1        0.0913
     14 C          -8.3500  -16.2190   23.8051 C.ar    1  UNL1       -0.0109
     15 C          -9.0181  -16.9250   24.9475 C.ar    1  UNL1       -0.0034
     16 C          -9.9017  -18.1081   24.6843 C.ar    1  UNL1       -0.0003
     17 C         -10.1172  -18.5854   23.2787 C.ar    1  UNL1       -0.0000
     18 C         -11.0008  -19.7685   23.0154 C.ar    1  UNL1       -0.0000
     19 C         -11.2162  -20.2457   21.6098 C.ar    1  UNL1       -0.0000
     20 C         -10.5481  -19.5397   20.4674 C.ar    1  UNL1       -0.0000
     21 C          -9.6645  -18.3565   20.7306 C.ar    1  UNL1       -0.0000
     22 C          -9.4491  -17.8793   22.1362 C.ar    1  UNL1       -0.0003
     23 C          -8.5654  -16.6961   22.3995 C.ar    1  UNL1       -0.0034
@<TRIPOS>BOND
     1    11    12    1
     2    12     2    1
     3     2     3    2
     4     3     4    1
     5     4     5    2
     6     5     6    1
     7     6     7    2
     8     7     1    1
     9     1    13    1
    10    13    14    1
    11    14    15   ar
    12    15    16   ar
    13    16    17   ar
    14    17    18   ar
    15    18    19   ar
    16    19    20   ar
    17    20    21   ar
    18    21    22   ar
    19    22    23   ar
    20     7     8    1
    21     8     9    2
    22     9    10    1
    23    10     2    1
    24     9     5    1
    25    23    14   ar
    26    22    17   ar
@<TRIPOS>MOLECULE
*****
 23 26 0 0 0
SMALL
GASTEIGER

@<TRIPOS>ATOM
      1 S          -7.4224  -20.4208   20.1404 S.3     1  UNL1       -0.0709
      2 C          -1.7963  -17.3916   21.0207 C.2     1  UNL1        0.1223
      3 C          -2.2068  -17.4197   22.4631 C.2     1  UNL1        0.0343
      4 C          -3.5113  -18.0451   22.8596 C.2     1  UNL1        0.0232
      5 C          -4.4053  -18.6425   21.8137 C.2     1  UNL1        0.0975
      6 N          -5.7392  -19.3226   21.9028 N.2     1  UNL1       -0.2200
      7 C          -6.1532  -19.7148   20.5154 C.2     1  UNL1        0.1901
      8 N          -5.0750  -19.2771   19.5688 N.2     1  UNL1       -0.2236
      9 C          -3.9948  -18.6144   20.3712 C.2     1  UNL1        0.0863
     10 C          -2.6903  -17.9890   19.9746 C.3     1  UNL1        0.1112
     11 C           0.5713  -17.5988   19.9714 C.3     1  UNL1        0.2520
     12 O          -0.4919  -16.7662   20.6242 O.2     1  UNL1       -0.4753
     13 C          -8.5318  -19.6645   19.4717 C.3     1  UNL1        0.0913
     14 C          -9.6876  -19.1562   20.2816 C.ar    1  UNL1       -0.0109
     15 C         -10.7254  -18.2826   19.6414 C.ar    1  UNL1       -0.0034
     16 C         -11.8811  -17.7743   20.4513 C.ar    1  UNL1       -0.0003
     17 C         -11.9991  -18.1396   21.9014 C.ar    1  UNL1       -0.0000
     18 C         -13.1548  -17.6313   22.7112 C.ar    1  UNL1       -0.0000
     19 C         -13.2727  -17.9966   24.1613 C.ar    1  UNL1       -0.0000
     20 C         -12.2349  -18.8702   24.8014 C.ar    1  UNL1       -0.0000
     21 C         -11.0792  -19.3785   23.9916 C.ar    1  UNL1       -0.0000
     22 C         -10.9613  -19.0132   22.5416 C.ar    1  UNL1       -0.0003
     23 C          -9.8055  -19.5215   21.7316 C.ar    1  UNL1       -0.0034
@<TRIPOS>BOND
     1    11    12    1
     2    12     2    1
     3     2     3    2
     4     3     4    1
     5     4     5    2
     6     5     6    1
     7     6     7    2
     8     7     1    1
     9     1    13    1
    10    13    14    1
    11    14    15   ar
    12    15    16   ar
    13    16    17   ar
    14    17    18   ar
    15    18    19   ar
    16    19    20   ar
    17    20    21   ar
    18    21    22   ar
    19    22    23   ar
    20     7     8    1
    21     8     9    2
    22     9    10    1
    23    10     2    1
    24     9     5    1
    25    23    14   ar
    26    22    17   ar
@<TRIPOS>MOLECULE
*****
 23 26 0 0 0
SMALL
GASTEIGER

@<TRIPOS>ATOM
      1 S          -7.0805  -20.3625   22.2859 S.3     1  UNL1       -0.0709
      2 C         -13.0026  -18.1034   23.4813 C.2     1  UNL1        0.1223
      3 C         -12.9944  -17.8026   22.0118 C.2     1  UNL1        0.0343
      4 C         -11.7904  -18.1408   21.1836 C.2     1  UNL1        0.0232
      5 C         -10.5944  -18.7797   21.8249 C.2     1  UNL1        0.0975
      6 N          -9.2741  -19.2233   21.2683 N.2     1  UNL1       -0.2200
      7 C          -8.4661  -19.7983   22.3937 C.2     1  UNL1        0.1901
      8 N          -9.2871  -19.7101   23.6460 N.2     1  UNL1       -0.2236
      9 C         -10.6025  -19.0806   23.2945 C.2     1  UNL1        0.0863
     10 C         -11.8065  -18.7425   24.1227 C.3     1  UNL1        0.1112
     11 C         -14.4494  -18.4789   25.6063 C.3     1  UNL1        0.2520
     12 O         -14.2066  -17.7653   24.3094 O.2     1  UNL1       -0.4753
     13 C          -6.2750  -20.1402   21.0402 C.3     1  UNL1        0.0913
     14 C          -4.9805  -19.3854   21.1088 C.ar    1  UNL1       -0.0109
     15 C          -4.5374  -18.7725   22.4042 C.ar    1  UNL1       -0.0034
     16 C          -3.2430  -18.0178   22.4728 C.ar    1  UNL1       -0.0003
     17 C          -2.3915  -17.8760   21.2460 C.ar    1  UNL1       -0.0000
     18 C          -1.0971  -17.1213   21.3147 C.ar    1  UNL1       -0.0000
     19 C          -0.2457  -16.9794   20.0879 C.ar    1  UNL1       -0.0000
     20 C          -0.6887  -17.5923   18.7925 C.ar    1  UNL1       -0.0000
     21 C          -1.9832  -18.3470   18.7239 C.ar    1  UNL1       -0.0000
     22 C          -2.8346  -18.4888   19.9506 C.ar    1  UNL1       -0.0003
     23 C          -4.1291  -19.2436   19.8820 C.ar    1  UNL1       -0.0034
@<TRIPOS>BOND
     1    11    12    1
     2    12     2    1
     3     2     3    2
     4     3     4    1
     5     4     5    2
     6     5     6    1
     7     6     7    2
     8     7     1    1
     9     1    13    1
    10    13    14    1
    11    14    15   ar
    12    15    16   ar
    13    16    17   ar
    14    17    18   ar
    15    18    19   ar
    16    19    20   ar
    17    20    21   ar
    18    21    22   ar
    19    22    23   ar
    20     7     8    1
    21     8     9    2
    22     9    10    1
    23    10     2    1
    24     9     5    1
    25    23    14   ar
    26    22    17   ar
@<TRIPOS>MOLECULE
*****
 23 26 0 0 0
SMALL
GASTEIGER

@<TRIPOS>ATOM
      1 S          -7.0431  -20.6189   22.6821 S.3     1  UNL1       -0.0709
      2 C         -12.1844  -17.0673   21.0831 C.2     1  UNL1        0.1223
      3 C         -12.7340  -17.5987   22.3735 C.2     1  UNL1        0.0343
      4 C         -11.9107  -18.5307   23.2122 C.2     1  UNL1        0.0232
      5 C         -10.5376  -18.9313   22.7604 C.2     1  UNL1        0.0975
      6 N          -9.5014  -19.8273   23.3715 N.2     1  UNL1       -0.2200
      7 C          -8.3113  -19.8495   22.4588 C.2     1  UNL1        0.1901
      8 N          -8.6119  -18.9674   21.2835 N.2     1  UNL1       -0.2236
      9 C          -9.9878  -18.3999   21.4698 C.2     1  UNL1        0.0863
     10 C         -10.8112  -17.4678   20.6312 C.3     1  UNL1        0.1112
     11 C         -12.4013  -15.4741   19.0423 C.3     1  UNL1        0.2520
     12 O         -13.0078  -16.1352   20.2444 O.2     1  UNL1       -0.4753
     13 C          -6.0109  -20.6949   21.5964 C.3     1  UNL1        0.0913
     14 C          -4.8856  -19.7036   21.5607 C.ar    1  UNL1       -0.0109
     15 C          -4.6556  -18.7878   22.7262 C.ar    1  UNL1       -0.0034
     16 C          -3.5304  -17.7966   22.6906 C.ar    1  UNL1       -0.0003
     17 C          -2.6350  -17.7212   21.4894 C.ar    1  UNL1       -0.0000
     18 C          -1.5098  -16.7300   21.4538 C.ar    1  UNL1       -0.0000
     19 C          -0.6145  -16.6546   20.2526 C.ar    1  UNL1       -0.0000
     20 C          -0.8445  -17.5704   19.0871 C.ar    1  UNL1       -0.0000
     21 C          -1.9697  -18.5616   19.1228 C.ar    1  UNL1       -0.0000
     22 C          -2.8650  -18.6370   20.3239 C.ar    1  UNL1       -0.0003
     23 C          -3.9903  -19.6282   20.3596 C.ar    1  UNL1       -0.0034
@<TRIPOS>BOND
     1    11    12    1
     2    12     2    1
     3     2     3    2
     4     3     4    1
     5     4     5    2
     6     5     6    1
     7     6     7    2
     8     7     1    1
     9     1    13    1
    10    13    14    1
    11    14    15   ar
    12    15    16   ar
    13    16    17   ar
    14    17    18   ar
    15    18    19   ar
    16    19    20   ar
    17    20    21   ar
    18    21    22   ar
    19    22    23   ar
    20     7     8    1
    21     8     9    2
    22     9    10    1
    23    10     2    1
    24     9     5    1
    25    23    14   ar
    26    22    17   ar
@<TRIPOS>MOLECULE
*****
 23 26 0 0 0
SMALL
GASTEIGER

@<TRIPOS>ATOM
      1 S           6.9660   -3.3695   21.6857 S.3     1  UNL1       -0.0709
      2 C           7.9943   -6.9146   26.9751 C.2     1  UNL1        0.1223
      3 C           8.5357   -7.9087   25.9909 C.2     1  UNL1        0.0343
      4 C           8.5430   -7.5861   24.5261 C.2     1  UNL1        0.0232
      5 C           8.0089   -6.2695   24.0454 C.2     1  UNL1        0.0975
      6 N           7.8869   -5.6765   22.6730 N.2     1  UNL1       -0.2200
      7 C           7.2701   -4.3160   22.8089 C.2     1  UNL1        0.1901
      8 N           7.0109   -4.0680   24.2654 N.2     1  UNL1       -0.2236
      9 C           7.4675   -5.2753   25.0296 C.2     1  UNL1        0.0863
     10 C           7.4602   -5.5979   26.4945 C.3     1  UNL1        0.1112
     11 C           7.6970   -6.1608   29.4436 C.3     1  UNL1        0.2520
     12 O           7.9870   -7.2372   28.4400 O.2     1  UNL1       -0.4753
     13 C           6.0505   -3.7928   20.5754 C.3     1  UNL1        0.0913
     14 C           5.1703   -2.7816   19.9024 C.ar    1  UNL1       -0.0109
     15 C           5.5727   -2.1990   18.5800 C.ar    1  UNL1       -0.0034
     16 C           4.6926   -1.1878   17.9070 C.ar    1  UNL1       -0.0003
     17 C           3.4101   -0.7593   18.5563 C.ar    1  UNL1       -0.0000
     18 C           2.5300    0.2518   17.8833 C.ar    1  UNL1       -0.0000
     19 C           1.2475    0.6803   18.5327 C.ar    1  UNL1       -0.0000
     20 C           0.8452    0.0976   19.8550 C.ar    1  UNL1       -0.0000
     21 C           1.7253   -0.9135   20.5280 C.ar    1  UNL1       -0.0000
     22 C           3.0077   -1.3420   19.8787 C.ar    1  UNL1       -0.0003
     23 C           3.8879   -2.3532   20.5517 C.ar    1  UNL1       -0.0034
@<TRIPOS>BOND
     1    11    12    1
     2    12     2    1
     3     2     3    2
     4     3     4    1
     5     4     5    2
     6     5     6    1
     7     6     7    2
     8     7     1    1
     9     1    13    1
    10    13    14    1
    11    14    15   ar
    12    15    16   ar
    13    16    17   ar
    14    17    18   ar
    15    18    19   ar
    16    19    20   ar
    17    20    21   ar
    18    21    22   ar
    19    22    23   ar
    20     7     8    1
    21     8     9    2
    22     9    10    1
    23    10     2    1
    24     9     5    1
    25    23    14   ar
    26    22    17   ar
@<TRIPOS>MOLECULE
*****
 23 26 0 0 0
SMALL
GASTEIGER

@<TRIPOS>ATOM
      1 S         -11.3548   -5.5178   18.9976 S.3     1  UNL1       -0.0709
      2 C         -12.5489    0.7003   17.7678 C.2     1  UNL1        0.1223
      3 C         -11.3269    0.5836   16.9058 C.2     1  UNL1        0.0343
      4 C         -10.5976   -0.7238   16.8116 C.2     1  UNL1        0.0232
      5 C         -11.0904   -1.9145   17.5793 C.2     1  UNL1        0.0975
      6 N         -10.5829   -3.3223   17.6828 N.2     1  UNL1       -0.2200
      7 C         -11.4913   -4.0756   18.6087 C.2     1  UNL1        0.1901
      8 N         -12.5602   -3.1334   19.0775 N.2     1  UNL1       -0.2236
      9 C         -12.3125   -1.7978   18.4413 C.2     1  UNL1        0.0863
     10 C         -13.0417   -0.4904   18.5355 C.3     1  UNL1        0.1112
     11 C         -14.7642    2.0246   18.0651 C.3     1  UNL1        0.2520
     12 O         -13.2782    2.0077   17.8620 O.2     1  UNL1       -0.4753
     13 C         -12.0459   -6.5798   18.1947 C.3     1  UNL1        0.0913
     14 C         -13.4231   -7.0334   18.5788 C.ar    1  UNL1       -0.0109
     15 C         -14.3145   -6.1299   19.3784 C.ar    1  UNL1       -0.0034
     16 C         -15.6917   -6.5835   19.7626 C.ar    1  UNL1       -0.0003
     17 C         -16.1776   -7.9405   19.3471 C.ar    1  UNL1       -0.0000
     18 C         -17.5548   -8.3940   19.7313 C.ar    1  UNL1       -0.0000
     19 C         -18.0406   -9.7509   19.3158 C.ar    1  UNL1       -0.0000
     20 C         -17.1493  -10.6543   18.5162 C.ar    1  UNL1       -0.0000
     21 C         -15.7721  -10.2008   18.1321 C.ar    1  UNL1       -0.0000
     22 C         -15.2862   -8.8439   18.5475 C.ar    1  UNL1       -0.0003
     23 C         -13.9090   -8.3903   18.1634 C.ar    1  UNL1       -0.0034
@<TRIPOS>BOND
     1    11    12    1
     2    12     2    1
     3     2     3    2
     4     3     4    1
     5     4     5    2
     6     5     6    1
     7     6     7    2
     8     7     1    1
     9     1    13    1
    10    13    14    1
    11    14    15   ar
    12    15    16   ar
    13    16    17   ar
    14    17    18   ar
    15    18    19   ar
    16    19    20   ar
    17    20    21   ar
    18    21    22   ar
    19    22    23   ar
    20     7     8    1
    21     8     9    2
    22     9    10    1
    23    10     2    1
    24     9     5    1
    25    23    14   ar
    26    22    17   ar
@<TRIPOS>MOLECULE
*****
 23 26 0 0 0
SMALL
GASTEIGER

@<TRIPOS>ATOM
      1 S           0.1421    3.5463   19.5956 S.3     1  UNL1       -0.0709
      2 C          -4.4474    3.5089   24.1276 C.2     1  UNL1        0.1223
      3 C          -5.3615    3.3279   22.9522 C.2     1  UNL1        0.0343
      4 C          -4.7952    3.2634   21.5646 C.2     1  UNL1        0.0232
      5 C          -3.3149    3.3798   21.3526 C.2     1  UNL1        0.0975
      6 N          -2.4736    3.3524   20.1110 N.2     1  UNL1       -0.2200
      7 C          -1.0395    3.5164   20.5191 C.2     1  UNL1        0.1901
      8 N          -0.9945    3.6452   22.0129 N.2     1  UNL1       -0.2236
      9 C          -2.4007    3.5608   22.5280 C.2     1  UNL1        0.0863
     10 C          -2.9670    3.6253   23.9155 C.3     1  UNL1        0.1112
     11 C          -4.1270    3.9304   26.6711 C.3     1  UNL1        0.2520
     12 O          -5.0137    3.5734   25.5151 O.2     1  UNL1       -0.4753
     13 C           0.3203    2.4659   18.5705 C.3     1  UNL1        0.0913
     14 C           1.1008    1.2308   18.9104 C.ar    1  UNL1       -0.0109
     15 C           0.6410    0.3355   20.0226 C.ar    1  UNL1       -0.0034
     16 C           1.4214   -0.8995   20.3625 C.ar    1  UNL1       -0.0003
     17 C           2.6618   -1.2392   19.5903 C.ar    1  UNL1       -0.0000
     18 C           3.4422   -2.4743   19.9303 C.ar    1  UNL1       -0.0000
     19 C           4.6825   -2.8139   19.1581 C.ar    1  UNL1       -0.0000
     20 C           5.1423   -1.9186   18.0459 C.ar    1  UNL1       -0.0000
     21 C           4.3619   -0.6835   17.7060 C.ar    1  UNL1       -0.0000
     22 C           3.1216   -0.3439   18.4782 C.ar    1  UNL1       -0.0003
     23 C           2.3411    0.8912   18.1382 C.ar    1  UNL1       -0.0034
@<TRIPOS>BOND
     1    11    12    1
     2    12     2    1
     3     2     3    2
     4     3     4    1
     5     4     5    2
     6     5     6    1
     7     6     7    2
     8     7     1    1
     9     1    13    1
    10    13    14    1
    11    14    15   ar
    12    15    16   ar
    13    16    17   ar
    14    17    18   ar
    15    18    19   ar
    16    19    20   ar
    17    20    21   ar
    18    21    22   ar
    19    22    23   ar
    20     7     8    1
    21     8     9    2
    22     9    10    1
    23    10     2    1
    24     9     5    1
    25    23    14   ar
    26    22    17   ar
@<TRIPOS>MOLECULE
*****
 23 26 0 0 0
SMALL
GASTEIGER

@<TRIPOS>ATOM
      1 S         -15.8133   -2.4413   19.6312 S.3     1  UNL1       -0.0709
      2 C         -17.6178   -8.6338   19.6275 C.2     1  UNL1        0.1223
      3 C         -18.9988   -8.0497   19.5892 C.2     1  UNL1        0.0343
      4 C         -19.1835   -6.5611   19.5747 C.2     1  UNL1        0.0232
      5 C         -17.9870   -5.6567   19.5985 C.2     1  UNL1        0.0975
      6 N         -17.8582   -4.1623   19.5917 N.2     1  UNL1       -0.2200
      7 C         -16.3975   -3.8228   19.6259 C.2     1  UNL1        0.1901
      8 N         -15.6236   -5.1074   19.6537 N.2     1  UNL1       -0.2236
      9 C         -16.6059   -6.2409   19.6368 C.2     1  UNL1        0.0863
     10 C         -16.4213   -7.7294   19.6513 C.3     1  UNL1        0.1112
     11 C         -17.1218  -10.8519   18.3690 C.3     1  UNL1        0.2520
     12 O         -17.4332  -10.1223   19.6421 O.2     1  UNL1       -0.4753
     13 C         -14.4194   -2.2184   20.1385 C.3     1  UNL1        0.0913
     14 C         -13.2490   -2.3920   19.2164 C.ar    1  UNL1       -0.0109
     15 C         -12.8868   -1.3027   18.2509 C.ar    1  UNL1       -0.0034
     16 C         -11.7165   -1.4763   17.3289 C.ar    1  UNL1       -0.0003
     17 C         -10.9083   -2.7393   17.3723 C.ar    1  UNL1       -0.0000
     18 C          -9.7380   -2.9128   16.4503 C.ar    1  UNL1       -0.0000
     19 C          -8.9298   -4.1757   16.4938 C.ar    1  UNL1       -0.0000
     20 C          -9.2920   -5.2651   17.4593 C.ar    1  UNL1       -0.0000
     21 C         -10.4623   -5.0915   18.3813 C.ar    1  UNL1       -0.0000
     22 C         -11.2705   -3.8286   18.3378 C.ar    1  UNL1       -0.0003
     23 C         -12.4408   -3.6549   19.2599 C.ar    1  UNL1       -0.0034
@<TRIPOS>BOND
     1    11    12    1
     2    12     2    1
     3     2     3    2
     4     3     4    1
     5     4     5    2
     6     5     6    1
     7     6     7    2
     8     7     1    1
     9     1    13    1
    10    13    14    1
    11    14    15   ar
    12    15    16   ar
    13    16    17   ar
    14    17    18   ar
    15    18    19   ar
    16    19    20   ar
    17    20    21   ar
    18    21    22   ar
    19    22    23   ar
    20     7     8    1
    21     8     9    2
    22     9    10    1
    23    10     2    1
    24     9     5    1
    25    23    14   ar
    26    22    17   ar
