@<TRIPOS>MOLECULE
*****
 31 34 0 0 0
SMALL
GASTEIGER

@<TRIPOS>ATOM
      1 C           7.0319   -1.9556   18.3501 C.ar    1  UNL1        0.1518
      2 C           8.3670   -1.9913   19.0330 C.ar    1  UNL1        0.0396
      3 C           8.5312   -2.7442   20.3199 C.ar    1  UNL1        0.0236
      4 C           7.3604   -3.4613   20.9240 C.ar    1  UNL1        0.1291
      5 C           6.0254   -3.4256   20.2411 C.ar    1  UNL1        0.0378
      6 C           5.8611   -2.6728   18.9542 C.ar    1  UNL1        0.0804
      7 S           7.5247   -4.2141   22.2110 S.O2    1  UNL1        0.0872
      8 O           6.0459   -4.4608   22.2556 O.2     1  UNL1       -0.1475
      9 O           9.0036   -3.9675   22.1664 O.2     1  UNL1       -0.1475
     10 N           7.6891   -4.9669   23.4980 N.ar    1  UNL1       -0.1909
     11 C           8.2671   -6.3431   23.6468 C.ar    1  UNL1        0.0973
     12 C           8.2396   -6.7023   25.1029 C.ar    1  UNL1        0.0001
     13 C           8.7223   -7.9897   25.7026 C.3     1  UNL1        0.0328
     14 C           7.6446   -5.5482   25.8540 C.ar    1  UNL1        0.0341
     15 C           7.3687   -5.3354   27.3129 C.ar    1  UNL1        0.0157
     16 C           6.7526   -4.0501   27.7799 C.ar    1  UNL1        0.0769
     17 CL          6.4766   -3.8372   29.2389 Cl      1  UNL1       -0.0806
     18 C           6.4123   -2.9775   26.7880 C.ar    1  UNL1        0.1119
     19 N           6.6883   -3.1903   25.3291 N.ar    1  UNL1       -0.2243
     20 C           7.3044   -4.4757   24.8621 C.ar    1  UNL1        0.1635
     21 C           6.7260    0.2904   17.0806 C.3     1  UNL1        0.2525
     22 O           6.8676   -1.2029   17.0632 O.3     1  UNL1       -0.4702
     23 N           4.5261   -2.6371   18.2713 N.pl3   1  UNL1       -0.3316
     24 H           4.3201   -3.2846   17.5589 H       1  UNL1        0.1469
     25 C           3.5048   -1.6149   18.6739 C.3     1  UNL1        0.0719
     26 C           3.2902   -0.3953   17.8273 C.3     1  UNL1        0.0368
     27 C           2.2689    0.6270   18.2300 C.3     1  UNL1        0.0738
     28 N           1.4624    0.4296   19.4791 N.3     1  UNL1       -0.2714
     29 C           0.4411    1.4519   19.8818 C.3     1  UNL1        0.0896
     30 C           1.6770   -0.7899   20.3257 C.3     1  UNL1        0.0738
     31 C           2.6982   -1.8121   19.9231 C.3     1  UNL1        0.0368
@<TRIPOS>BOND
     1    21    22    1
     2    22     1    1
     3     1     2   ar
     4     2     3   ar
     5     3     4   ar
     6     4     7    1
     7     7     8    2
     8     7     9    2
     9     7    10    1
    10    10    11   ar
    11    11    12   ar
    12    12    13    1
    13    12    14   ar
    14    14    15   ar
    15    15    16   ar
    16    16    17    1
    17    16    18   ar
    18    18    19   ar
    19    19    20   ar
    20     4     5   ar
    21     5     6   ar
    22     6    23    1
    23    23    25    1
    24    25    26    1
    25    26    27    1
    26    27    28    1
    27    28    29    1
    28    28    30    1
    29    30    31    1
    30     6     1   ar
    31    31    25    1
    32    20    10   ar
    33    20    14   ar
    34    23    24    1
@<TRIPOS>MOLECULE
*****
 31 34 0 0 0
SMALL
GASTEIGER

@<TRIPOS>ATOM
      1 C           7.6543   -7.5681   25.9033 C.ar    1  UNL1        0.1518
      2 C           8.4623   -7.7798   24.6573 C.ar    1  UNL1        0.0396
      3 C           8.5254   -6.7052   23.6127 C.ar    1  UNL1        0.0236
      4 C           7.7804   -5.4189   23.8139 C.ar    1  UNL1        0.1291
      5 C           6.9725   -5.2072   25.0599 C.ar    1  UNL1        0.0378
      6 C           6.9094   -6.2817   26.1045 C.ar    1  UNL1        0.0804
      7 S           7.8436   -4.3444   22.7692 S.O2    1  UNL1        0.0872
      8 O           7.5077   -3.3152   23.8074 O.2     1  UNL1       -0.1475
      9 O           8.1795   -5.3736   21.7310 O.2     1  UNL1       -0.1475
     10 N           7.9067   -3.2699   21.7244 N.ar    1  UNL1       -0.1909
     11 C           9.0452   -2.3179   21.5065 C.ar    1  UNL1        0.0973
     12 C           8.6845   -1.4185   20.3615 C.ar    1  UNL1        0.0001
     13 C           9.5357   -0.3164   19.8040 C.3     1  UNL1        0.0328
     14 C           7.3231   -1.8146   19.8719 C.ar    1  UNL1        0.0341
     15 C           6.4591   -1.2812   18.7679 C.ar    1  UNL1        0.0157
     16 C           5.1144   -1.8920   18.5062 C.ar    1  UNL1        0.0769
     17 CL          4.2503   -1.3586   17.4021 Cl      1  UNL1       -0.0806
     18 C           4.6336   -3.0363   19.3485 C.ar    1  UNL1        0.1119
     19 N           5.4977   -3.5697   20.4526 N.ar    1  UNL1       -0.2243
     20 C           6.8424   -2.9589   20.7142 C.ar    1  UNL1        0.1635
     21 C           8.8377   -9.0603   27.6705 C.3     1  UNL1        0.2525
     22 O           7.5912   -8.6426   26.9479 O.3     1  UNL1       -0.4702
     23 N           6.1014   -6.0700   27.3504 N.pl3   1  UNL1       -0.3316
     24 H           5.1807   -6.4143   27.4044 H       1  UNL1        0.1469
     25 C           6.6963   -5.3338   28.5140 C.3     1  UNL1        0.0719
     26 C           7.5204   -6.0723   29.5268 C.3     1  UNL1        0.0368
     27 C           8.1153   -5.3360   30.6905 C.3     1  UNL1        0.0738
     28 N           7.8862   -3.8613   30.8412 N.3     1  UNL1       -0.2714
     29 C           8.4811   -3.1250   32.0049 C.3     1  UNL1        0.0896
     30 C           7.0622   -3.1228   29.8285 C.3     1  UNL1        0.0738
     31 C           6.4673   -3.8591   28.6649 C.3     1  UNL1        0.0368
@<TRIPOS>BOND
     1    21    22    1
     2    22     1    1
     3     1     2   ar
     4     2     3   ar
     5     3     4   ar
     6     4     7    1
     7     7     8    2
     8     7     9    2
     9     7    10    1
    10    10    11   ar
    11    11    12   ar
    12    12    13    1
    13    12    14   ar
    14    14    15   ar
    15    15    16   ar
    16    16    17    1
    17    16    18   ar
    18    18    19   ar
    19    19    20   ar
    20     4     5   ar
    21     5     6   ar
    22     6    23    1
    23    23    25    1
    24    25    26    1
    25    26    27    1
    26    27    28    1
    27    28    29    1
    28    28    30    1
    29    30    31    1
    30     6     1   ar
    31    31    25    1
    32    20    10   ar
    33    20    14   ar
    34    23    24    1
@<TRIPOS>MOLECULE
*****
 31 34 0 0 0
SMALL
GASTEIGER

@<TRIPOS>ATOM
      1 C           6.5966   -1.7155   18.5304 C.ar    1  UNL1        0.1518
      2 C           7.9100   -1.8096   19.2487 C.ar    1  UNL1        0.0396
      3 C           7.9593   -2.3213   20.6578 C.ar    1  UNL1        0.0236
      4 C           6.6951   -2.7390   21.3487 C.ar    1  UNL1        0.1291
      5 C           5.3817   -2.6450   20.6304 C.ar    1  UNL1        0.0378
      6 C           5.3323   -2.1332   19.2214 C.ar    1  UNL1        0.0804
      7 S           6.7445   -3.2508   22.7579 S.O2    1  UNL1        0.0872
      8 O           5.4911   -4.0383   22.5159 O.2     1  UNL1       -0.1475
      9 O           7.9980   -2.4632   22.9999 O.2     1  UNL1       -0.1475
     10 N           6.7940   -3.7624   24.1671 N.ar    1  UNL1       -0.1909
     11 C           6.3410   -3.0219   25.3903 C.ar    1  UNL1        0.0973
     12 C           6.5722   -3.9063   26.5796 C.ar    1  UNL1        0.0001
     13 C           6.2620   -3.5638   28.0067 C.3     1  UNL1        0.0328
     14 C           7.1680   -5.1934   26.0913 C.ar    1  UNL1        0.0341
     15 C           7.6034   -6.4349   26.8118 C.ar    1  UNL1        0.0157
     16 C           8.1759   -7.5874   26.0412 C.ar    1  UNL1        0.0769
     17 CL          8.6114   -8.8290   26.7617 Cl      1  UNL1       -0.0806
     18 C           8.3130   -7.4985   24.5501 C.ar    1  UNL1        0.1119
     19 N           7.8776   -6.2570   23.8297 N.ar    1  UNL1       -0.2243
     20 C           7.3051   -5.1045   24.6003 C.ar    1  UNL1        0.1635
     21 C           6.4709    0.2716   16.8614 C.3     1  UNL1        0.2525
     22 O           6.5472   -1.2038   17.1213 O.3     1  UNL1       -0.4702
     23 N           4.0189   -2.0392   18.5031 N.pl3   1  UNL1       -0.3316
     24 H           3.8114   -2.6656   17.7724 H       1  UNL1        0.1469
     25 C           3.0215   -0.9908   18.8981 C.3     1  UNL1        0.0719
     26 C           2.0618   -1.2536   20.0207 C.3     1  UNL1        0.0368
     27 C           1.0644   -0.2052   20.4157 C.3     1  UNL1        0.0738
     28 N           1.0267    1.1060   19.6881 N.3     1  UNL1       -0.2714
     29 C           0.0292    2.1545   20.0831 C.3     1  UNL1        0.0896
     30 C           1.9863    1.3688   18.5656 C.3     1  UNL1        0.0738
     31 C           2.9837    0.3204   18.1706 C.3     1  UNL1        0.0368
@<TRIPOS>BOND
     1    21    22    1
     2    22     1    1
     3     1     2   ar
     4     2     3   ar
     5     3     4   ar
     6     4     7    1
     7     7     8    2
     8     7     9    2
     9     7    10    1
    10    10    11   ar
    11    11    12   ar
    12    12    13    1
    13    12    14   ar
    14    14    15   ar
    15    15    16   ar
    16    16    17    1
    17    16    18   ar
    18    18    19   ar
    19    19    20   ar
    20     4     5   ar
    21     5     6   ar
    22     6    23    1
    23    23    25    1
    24    25    26    1
    25    26    27    1
    26    27    28    1
    27    28    29    1
    28    28    30    1
    29    30    31    1
    30     6     1   ar
    31    31    25    1
    32    20    10   ar
    33    20    14   ar
    34    23    24    1
@<TRIPOS>MOLECULE
*****
 31 34 0 0 0
SMALL
GASTEIGER

@<TRIPOS>ATOM
      1 C           3.9906   -1.0593   18.3097 C.ar    1  UNL1        0.1518
      2 C           3.7315    0.3780   17.9679 C.ar    1  UNL1        0.0396
      3 C           2.7452    1.1737   18.7705 C.ar    1  UNL1        0.0236
      4 C           2.0181    0.5320   19.9149 C.ar    1  UNL1        0.1291
      5 C           2.2773   -0.9053   20.2567 C.ar    1  UNL1        0.0378
      6 C           3.2635   -1.7010   19.4541 C.ar    1  UNL1        0.0804
      7 S           1.0318    1.3278   20.7174 S.O2    1  UNL1        0.0872
      8 O           2.0526    2.4121   20.8969 O.2     1  UNL1       -0.1475
      9 O           0.0110    0.2435   20.5379 O.2     1  UNL1       -0.1475
     10 N           0.0455    2.1235   21.5200 N.ar    1  UNL1       -0.1909
     11 C          -0.9308    3.1240   20.9760 C.ar    1  UNL1        0.0973
     12 C          -1.7173    3.6772   22.1273 C.ar    1  UNL1        0.0001
     13 C          -2.8034    4.7080   22.0387 C.3     1  UNL1        0.0328
     14 C          -1.2271    3.0187   23.3827 C.ar    1  UNL1        0.0341
     15 C          -1.6321    3.1694   24.8191 C.ar    1  UNL1        0.0157
     16 C          -0.9475    2.3598   25.8801 C.ar    1  UNL1        0.0769
     17 CL         -1.3524    2.5104   27.3166 Cl      1  UNL1       -0.0806
     18 C           0.1420    1.3996   25.5048 C.ar    1  UNL1        0.1119
     19 N           0.5470    1.2489   24.0684 N.ar    1  UNL1       -0.2243
     20 C          -0.1376    2.0585   23.0073 C.ar    1  UNL1        0.1635
     21 C           6.4444   -1.5671   17.6233 C.3     1  UNL1        0.2525
     22 O           4.9768   -1.8551   17.5072 O.3     1  UNL1       -0.4702
     23 N           3.5226   -3.1383   19.7959 N.pl3   1  UNL1       -0.3316
     24 H           2.9620   -3.8463   19.4040 H       1  UNL1        0.1469
     25 C           4.6360   -3.4969   20.7349 C.3     1  UNL1        0.0719
     26 C           4.4111   -3.4510   22.2173 C.3     1  UNL1        0.0368
     27 C           5.5246   -3.8096   23.1563 C.3     1  UNL1        0.0738
     28 N           6.8628   -4.2142   22.6129 N.3     1  UNL1       -0.2714
     29 C           7.9763   -4.5728   23.5519 C.3     1  UNL1        0.0896
     30 C           7.0878   -4.2601   21.1306 C.3     1  UNL1        0.0738
     31 C           5.9744   -3.9015   20.1916 C.3     1  UNL1        0.0368
@<TRIPOS>BOND
     1    21    22    1
     2    22     1    1
     3     1     2   ar
     4     2     3   ar
     5     3     4   ar
     6     4     7    1
     7     7     8    2
     8     7     9    2
     9     7    10    1
    10    10    11   ar
    11    11    12   ar
    12    12    13    1
    13    12    14   ar
    14    14    15   ar
    15    15    16   ar
    16    16    17    1
    17    16    18   ar
    18    18    19   ar
    19    19    20   ar
    20     4     5   ar
    21     5     6   ar
    22     6    23    1
    23    23    25    1
    24    25    26    1
    25    26    27    1
    26    27    28    1
    27    28    29    1
    28    28    30    1
    29    30    31    1
    30     6     1   ar
    31    31    25    1
    32    20    10   ar
    33    20    14   ar
    34    23    24    1
@<TRIPOS>MOLECULE
*****
 31 34 0 0 0
SMALL
GASTEIGER

@<TRIPOS>ATOM
      1 C          -1.8894    4.1194   18.3101 C.ar    1  UNL1        0.1518
      2 C          -0.6405    3.5855   17.6738 C.ar    1  UNL1        0.0396
      3 C           0.2672    2.6774   18.4493 C.ar    1  UNL1        0.0236
      4 C          -0.0740    2.3033   19.8612 C.ar    1  UNL1        0.1291
      5 C          -1.3230    2.8372   20.4976 C.ar    1  UNL1        0.0378
      6 C          -2.2306    3.7452   19.7221 C.ar    1  UNL1        0.0804
      7 S           0.8338    1.3952   20.6367 S.O2    1  UNL1        0.0872
      8 O           1.8813    2.4683   20.6672 O.2     1  UNL1       -0.1475
      9 O          -0.2138    0.3221   20.6063 O.2     1  UNL1       -0.1475
     10 N           1.7415    0.4871   21.4122 N.ar    1  UNL1       -0.1909
     11 C           2.0198    0.5658   22.8841 C.ar    1  UNL1        0.0973
     12 C           2.9806   -0.5319   23.2334 C.ar    1  UNL1        0.0001
     13 C           3.5295   -0.8216   24.5990 C.3     1  UNL1        0.0328
     14 C           3.2960   -1.2890   21.9776 C.ar    1  UNL1        0.0341
     15 C           4.1816   -2.4705   21.7135 C.ar    1  UNL1        0.0157
     16 C           4.3014   -3.0222   20.3238 C.ar    1  UNL1        0.0769
     17 CL          5.1870   -4.2038   20.0597 Cl      1  UNL1       -0.0806
     18 C           3.5356   -2.3925   19.1982 C.ar    1  UNL1        0.1119
     19 N           2.6500   -1.2110   19.4623 N.ar    1  UNL1       -0.2243
     20 C           2.5302   -0.6593   20.8520 C.ar    1  UNL1        0.1635
     21 C          -3.7170    4.4590   16.4950 C.3     1  UNL1        0.2525
     22 O          -2.7972    5.0275   17.5347 O.3     1  UNL1       -0.4702
     23 N          -3.4796    4.2792   20.3585 N.pl3   1  UNL1       -0.3316
     24 H          -4.1840    4.6803   19.7998 H       1  UNL1        0.1469
     25 C          -3.6554    4.2019   21.8462 C.3     1  UNL1        0.0719
     26 C          -4.6135    3.2109   22.4378 C.3     1  UNL1        0.0368
     27 C          -4.7892    3.1337   23.9255 C.3     1  UNL1        0.0738
     28 N          -4.0069    4.0474   24.8215 N.3     1  UNL1       -0.2714
     29 C          -4.1826    3.9702   26.3092 C.3     1  UNL1        0.0896
     30 C          -3.0487    5.0384   24.2299 C.3     1  UNL1        0.0738
     31 C          -2.8730    5.1157   22.7423 C.3     1  UNL1        0.0368
@<TRIPOS>BOND
     1    21    22    1
     2    22     1    1
     3     1     2   ar
     4     2     3   ar
     5     3     4   ar
     6     4     7    1
     7     7     8    2
     8     7     9    2
     9     7    10    1
    10    10    11   ar
    11    11    12   ar
    12    12    13    1
    13    12    14   ar
    14    14    15   ar
    15    15    16   ar
    16    16    17    1
    17    16    18   ar
    18    18    19   ar
    19    19    20   ar
    20     4     5   ar
    21     5     6   ar
    22     6    23    1
    23    23    25    1
    24    25    26    1
    25    26    27    1
    26    27    28    1
    27    28    29    1
    28    28    30    1
    29    30    31    1
    30     6     1   ar
    31    31    25    1
    32    20    10   ar
    33    20    14   ar
    34    23    24    1
@<TRIPOS>MOLECULE
*****
 31 34 0 0 0
SMALL
GASTEIGER

@<TRIPOS>ATOM
      1 C         -13.6526    2.1244   17.4193 C.ar    1  UNL1        0.1518
      2 C         -12.2739    1.6882   17.0209 C.ar    1  UNL1        0.0396
      3 C         -11.8317    0.2771   17.2725 C.ar    1  UNL1        0.0236
      4 C         -12.7682   -0.6978   17.9226 C.ar    1  UNL1        0.1291
      5 C         -14.1470   -0.2615   18.3210 C.ar    1  UNL1        0.0378
      6 C         -14.5892    1.1495   18.0695 C.ar    1  UNL1        0.0804
      7 S         -12.3260   -2.1089   18.1741 S.O2    1  UNL1        0.0872
      8 O         -11.5767   -2.1057   16.8747 O.2     1  UNL1       -0.1475
      9 O         -13.0753   -2.1119   19.4736 O.2     1  UNL1       -0.1475
     10 N         -11.8837   -3.5199   18.4258 N.ar    1  UNL1       -0.1909
     11 C         -10.4886   -3.9610   18.7559 C.ar    1  UNL1        0.0973
     12 C         -10.5017   -5.4514   18.9256 C.ar    1  UNL1        0.0001
     13 C          -9.3192   -6.3109   19.2616 C.3     1  UNL1        0.0328
     14 C         -11.9049   -5.9313   18.7003 C.ar    1  UNL1        0.0341
     15 C         -12.5151   -7.3010   18.7366 C.ar    1  UNL1        0.0157
     16 C         -13.9796   -7.4770   18.4639 C.ar    1  UNL1        0.0769
     17 CL        -14.5899   -8.8468   18.5002 Cl      1  UNL1       -0.0806
     18 C         -14.8337   -6.2833   18.1550 C.ar    1  UNL1        0.1119
     19 N         -14.2235   -4.9136   18.1187 N.ar    1  UNL1       -0.2243
     20 C         -12.7590   -4.7376   18.3914 C.ar    1  UNL1        0.1635
     21 C         -13.2884    4.4253   16.2690 C.3     1  UNL1        0.2525
     22 O         -14.0949    3.5354   17.1678 O.3     1  UNL1       -0.4702
     23 N         -15.9679    1.5858   18.4680 N.pl3   1  UNL1       -0.3316
     24 H         -16.7140    1.5018   17.8312 H       1  UNL1        0.1469
     25 C         -16.2097    2.1500   19.8366 C.3     1  UNL1        0.0719
     26 C         -17.0525    1.3946   20.8211 C.3     1  UNL1        0.0368
     27 C         -17.2943    1.9589   22.1898 C.3     1  UNL1        0.0738
     28 N         -16.6933    3.2784   22.5739 N.3     1  UNL1       -0.2714
     29 C         -16.9352    3.8427   23.9425 C.3     1  UNL1        0.0896
     30 C         -15.8506    4.0338   21.5894 C.3     1  UNL1        0.0738
     31 C         -15.6088    3.4696   20.2208 C.3     1  UNL1        0.0368
@<TRIPOS>BOND
     1    21    22    1
     2    22     1    1
     3     1     2   ar
     4     2     3   ar
     5     3     4   ar
     6     4     7    1
     7     7     8    2
     8     7     9    2
     9     7    10    1
    10    10    11   ar
    11    11    12   ar
    12    12    13    1
    13    12    14   ar
    14    14    15   ar
    15    15    16   ar
    16    16    17    1
    17    16    18   ar
    18    18    19   ar
    19    19    20   ar
    20     4     5   ar
    21     5     6   ar
    22     6    23    1
    23    23    25    1
    24    25    26    1
    25    26    27    1
    26    27    28    1
    27    28    29    1
    28    28    30    1
    29    30    31    1
    30     6     1   ar
    31    31    25    1
    32    20    10   ar
    33    20    14   ar
    34    23    24    1
@<TRIPOS>MOLECULE
*****
 31 34 0 0 0
SMALL
GASTEIGER

@<TRIPOS>ATOM
      1 C         -14.0245    2.2127   17.8349 C.ar    1  UNL1        0.1518
      2 C         -12.8404    1.4429   17.3298 C.ar    1  UNL1        0.0396
      3 C         -12.7682   -0.0414   17.5340 C.ar    1  UNL1        0.0236
      4 C         -13.8802   -0.7559   18.2432 C.ar    1  UNL1        0.1291
      5 C         -15.0643    0.0139   18.7483 C.ar    1  UNL1        0.0378
      6 C         -15.1365    1.4981   18.5442 C.ar    1  UNL1        0.0804
      7 S         -13.8079   -2.2403   18.4473 S.O2    1  UNL1        0.0872
      8 O         -14.1651   -2.0590   19.8927 O.2     1  UNL1       -0.1475
      9 O         -13.4506   -2.4215   17.0018 O.2     1  UNL1       -0.1475
     10 N         -13.7356   -3.7246   18.6513 N.ar    1  UNL1       -0.1909
     11 C         -14.9038   -4.6469   18.8371 C.ar    1  UNL1        0.0973
     12 C         -14.3726   -6.0395   19.0059 C.ar    1  UNL1        0.0001
     13 C         -15.1937   -7.2766   19.2188 C.3     1  UNL1        0.0328
     14 C         -12.8760   -5.9778   18.9245 C.ar    1  UNL1        0.0341
     15 C         -11.8210   -7.0395   19.0216 C.ar    1  UNL1        0.0157
     16 C         -10.3722   -6.6706   18.8995 C.ar    1  UNL1        0.0769
     17 CL         -9.3171   -7.7323   18.9967 Cl      1  UNL1       -0.0806
     18 C          -9.9785   -5.2398   18.6804 C.ar    1  UNL1        0.1119
     19 N         -11.0336   -4.1781   18.5833 N.ar    1  UNL1       -0.2243
     20 C         -12.4824   -4.5471   18.7053 C.ar    1  UNL1        0.1635
     21 C         -13.0939    4.3827   16.7510 C.3     1  UNL1        0.2525
     22 O         -14.0968    3.6969   17.6309 O.3     1  UNL1       -0.4702
     23 N         -16.3207    2.2679   19.0493 N.pl3   1  UNL1       -0.3316
     24 H         -17.0990    2.4136   18.4643 H       1  UNL1        0.1469
     25 C         -16.3189    2.8157   20.4457 C.3     1  UNL1        0.0719
     26 C         -17.1446    2.1570   21.5108 C.3     1  UNL1        0.0368
     27 C         -17.1428    2.7049   22.9073 C.3     1  UNL1        0.0738
     28 N         -16.3154    3.9113   23.2385 N.3     1  UNL1       -0.2714
     29 C         -16.3136    4.4592   24.6349 C.3     1  UNL1        0.0896
     30 C         -15.4897    4.5700   22.1734 C.3     1  UNL1        0.0738
     31 C         -15.4915    4.0222   20.7770 C.3     1  UNL1        0.0368
@<TRIPOS>BOND
     1    21    22    1
     2    22     1    1
     3     1     2   ar
     4     2     3   ar
     5     3     4   ar
     6     4     7    1
     7     7     8    2
     8     7     9    2
     9     7    10    1
    10    10    11   ar
    11    11    12   ar
    12    12    13    1
    13    12    14   ar
    14    14    15   ar
    15    15    16   ar
    16    16    17    1
    17    16    18   ar
    18    18    19   ar
    19    19    20   ar
    20     4     5   ar
    21     5     6   ar
    22     6    23    1
    23    23    25    1
    24    25    26    1
    25    26    27    1
    26    27    28    1
    27    28    29    1
    28    28    30    1
    29    30    31    1
    30     6     1   ar
    31    31    25    1
    32    20    10   ar
    33    20    14   ar
    34    23    24    1
@<TRIPOS>MOLECULE
*****
 31 34 0 0 0
SMALL
GASTEIGER

@<TRIPOS>ATOM
      1 C           3.3414    2.5280   18.6325 C.ar    1  UNL1        0.1518
      2 C           3.0119    3.8074   19.3429 C.ar    1  UNL1        0.0396
      3 C           1.6367    4.0221   19.9019 C.ar    1  UNL1        0.0236
      4 C           0.5909    2.9575   19.7506 C.ar    1  UNL1        0.1291
      5 C           0.9204    1.6782   19.0402 C.ar    1  UNL1        0.0378
      6 C           2.2955    1.4634   18.4812 C.ar    1  UNL1        0.0804
      7 S          -0.7844    3.1724   20.3097 S.O2    1  UNL1        0.0872
      8 O          -0.7483    4.5997   19.8501 O.2     1  UNL1       -0.1475
      9 O          -0.8204    1.7450   20.7693 O.2     1  UNL1       -0.1475
     10 N          -2.1596    3.3871   20.8688 N.ar    1  UNL1       -0.1909
     11 C          -3.4239    3.5215   20.0728 C.ar    1  UNL1        0.0973
     12 C          -4.5576    3.7226   21.0342 C.ar    1  UNL1        0.0001
     13 C          -6.0015    3.9023   20.6695 C.3     1  UNL1        0.0328
     14 C          -3.9941    3.7126   22.4243 C.ar    1  UNL1        0.0341
     15 C          -4.6389    3.8655   23.7699 C.ar    1  UNL1        0.0157
     16 C          -3.8017    3.8110   25.0133 C.ar    1  UNL1        0.0769
     17 CL         -4.4466    3.9638   26.3590 Cl      1  UNL1       -0.0806
     18 C          -2.3197    3.6036   24.9110 C.ar    1  UNL1        0.1119
     19 N          -1.6748    3.4507   23.5654 N.ar    1  UNL1       -0.2243
     20 C          -2.5120    3.5052   22.3220 C.ar    1  UNL1        0.1635
     21 C           5.8443    1.9263   18.9838 C.3     1  UNL1        0.2525
     22 O           4.7166    2.3131   18.0734 O.3     1  UNL1       -0.4702
     23 N           2.6250    0.1840   17.7709 N.pl3   1  UNL1       -0.3316
     24 H           2.2699    0.0167   16.8680 H       1  UNL1        0.1469
     25 C           3.4955   -0.8405   18.4362 C.3     1  UNL1        0.0719
     26 C           3.2730   -1.1917   19.8775 C.3     1  UNL1        0.0368
     27 C           4.1436   -2.2163   20.5427 C.3     1  UNL1        0.0738
     28 N           5.2365   -2.8895   19.7667 N.3     1  UNL1       -0.2714
     29 C           6.1070   -3.9141   20.4320 C.3     1  UNL1        0.0896
     30 C           5.4589   -2.5384   18.3255 C.3     1  UNL1        0.0738
     31 C           4.5885   -1.5138   17.6602 C.3     1  UNL1        0.0368
@<TRIPOS>BOND
     1    21    22    1
     2    22     1    1
     3     1     2   ar
     4     2     3   ar
     5     3     4   ar
     6     4     7    1
     7     7     8    2
     8     7     9    2
     9     7    10    1
    10    10    11   ar
    11    11    12   ar
    12    12    13    1
    13    12    14   ar
    14    14    15   ar
    15    15    16   ar
    16    16    17    1
    17    16    18   ar
    18    18    19   ar
    19    19    20   ar
    20     4     5   ar
    21     5     6   ar
    22     6    23    1
    23    23    25    1
    24    25    26    1
    25    26    27    1
    26    27    28    1
    27    28    29    1
    28    28    30    1
    29    30    31    1
    30     6     1   ar
    31    31    25    1
    32    20    10   ar
    33    20    14   ar
    34    23    24    1
@<TRIPOS>MOLECULE
*****
 31 34 0 0 0
SMALL
GASTEIGER

@<TRIPOS>ATOM
      1 C           3.9003    0.0575   18.2598 C.ar    1  UNL1        0.1518
      2 C           3.6526    1.5368   18.2394 C.ar    1  UNL1        0.0396
      3 C           2.6666    2.1453   19.1920 C.ar    1  UNL1        0.0236
      4 C           1.9282    1.2746   20.1650 C.ar    1  UNL1        0.1291
      5 C           2.1759   -0.2046   20.1854 C.ar    1  UNL1        0.0378
      6 C           3.1619   -0.8132   19.2329 C.ar    1  UNL1        0.0804
      7 S           0.9422    1.8833   21.1175 S.O2    1  UNL1        0.0872
      8 O           0.1681    0.5988   21.1371 O.2     1  UNL1       -0.1475
      9 O           1.7164    3.1679   21.0980 O.2     1  UNL1       -0.1475
     10 N          -0.0437    2.4920   22.0701 N.ar    1  UNL1       -0.1909
     11 C           0.1896    2.7629   23.5268 C.ar    1  UNL1        0.0973
     12 C          -1.0586    3.3751   24.0901 C.ar    1  UNL1        0.0001
     13 C          -1.2658    3.8044   25.5124 C.3     1  UNL1        0.0328
     14 C          -2.0634    3.4824   22.9815 C.ar    1  UNL1        0.0341
     15 C          -3.4683    4.0067   22.9476 C.ar    1  UNL1        0.0157
     16 C          -4.2461    3.9851   21.6652 C.ar    1  UNL1        0.0769
     17 CL         -5.6511    4.5094   21.6312 Cl      1  UNL1       -0.0806
     18 C          -3.6188    3.4394   20.4167 C.ar    1  UNL1        0.1119
     19 N          -2.2138    2.9152   20.4506 N.ar    1  UNL1       -0.2243
     20 C          -1.4361    2.9367   21.7330 C.ar    1  UNL1        0.1635
     21 C           6.3580   -0.3704   17.5342 C.3     1  UNL1        0.2525
     22 O           4.8863   -0.5511   17.3073 O.3     1  UNL1       -0.4702
     23 N           3.4096   -2.2924   19.2533 N.pl3   1  UNL1       -0.3316
     24 H           2.9193   -2.8822   18.6360 H       1  UNL1        0.1469
     25 C           4.4043   -2.8731   20.2142 C.3     1  UNL1        0.0719
     26 C           5.7331   -3.3590   19.7158 C.3     1  UNL1        0.0368
     27 C           6.7279   -3.9397   20.6768 C.3     1  UNL1        0.0738
     28 N           6.3938   -4.0344   22.1360 N.3     1  UNL1       -0.2714
     29 C           7.3885   -4.6151   23.0970 C.3     1  UNL1        0.0896
     30 C           5.0650   -3.5485   22.6343 C.3     1  UNL1        0.0738
     31 C           4.0703   -2.9679   21.6734 C.3     1  UNL1        0.0368
@<TRIPOS>BOND
     1    21    22    1
     2    22     1    1
     3     1     2   ar
     4     2     3   ar
     5     3     4   ar
     6     4     7    1
     7     7     8    2
     8     7     9    2
     9     7    10    1
    10    10    11   ar
    11    11    12   ar
    12    12    13    1
    13    12    14   ar
    14    14    15   ar
    15    15    16   ar
    16    16    17    1
    17    16    18   ar
    18    18    19   ar
    19    19    20   ar
    20     4     5   ar
    21     5     6   ar
    22     6    23    1
    23    23    25    1
    24    25    26    1
    25    26    27    1
    26    27    28    1
    27    28    29    1
    28    28    30    1
    29    30    31    1
    30     6     1   ar
    31    31    25    1
    32    20    10   ar
    33    20    14   ar
    34    23    24    1
