@<TRIPOS>MOLECULE
*****
 27 29 0 0 0
SMALL
GASTEIGER

@<TRIPOS>ATOM
      1 C         -10.9348  -18.4755   22.0348 C.ar    1  UNL1        0.0304
      2 C         -11.0543  -19.1991   20.7263 C.ar    1  UNL1        0.0972
      3 N          -9.8213  -19.5444   19.9450 N.ar    1  UNL1       -0.2410
      4 C          -8.4689  -19.1661   20.4721 C.ar    1  UNL1        0.1179
      5 C          -8.3494  -18.4425   21.7805 C.ar    1  UNL1        0.1017
      6 C          -9.5824  -18.0972   22.5619 C.ar    1  UNL1        0.0205
      7 N          -6.9970  -18.0642   22.3076 N.ar    1  UNL1       -0.2282
      8 N          -5.6852  -18.6423   21.8659 N.ar    1  UNL1       -0.1611
      9 C          -4.5964  -17.9767   22.6543 C.ar    1  UNL1        0.1739
     10 C          -5.2353  -16.9872   23.5832 C.ar    1  UNL1        0.0411
     11 C          -4.6577  -16.0440   24.5965 C.ar    1  UNL1        0.0030
     12 C          -5.5638  -15.1548   25.3954 C.ar    1  UNL1        0.0001
     13 C          -7.0474  -15.2089   25.1811 C.ar    1  UNL1        0.0015
     14 C          -7.6250  -16.1521   24.1679 C.ar    1  UNL1        0.0192
     15 C          -6.7189  -17.0413   23.3689 C.ar    1  UNL1        0.0843
     16 C          -3.1268  -18.2522   22.5348 C.3     1  UNL1        0.4365
     17 F          -1.6571  -18.5275   22.4153 F       1  UNL1       -0.1643
     18 F          -2.8688  -16.7883   22.3333 F       1  UNL1       -0.1643
     19 F          -3.3848  -19.7159   22.7363 F       1  UNL1       -0.1643
     20 C         -13.4007  -17.7848   23.5976 C.3     1  UNL1        0.0428
     21 C         -12.1677  -18.1302   22.8162 C.3     1  UNL1        0.1960
     22 O         -11.7728  -19.1163   23.8752 O.3     1  UNL1       -0.3751
     23 H         -10.9360  -19.5395   23.6271 H       1  UNL1        0.2110
     24 C         -12.5627  -17.1440   21.7571 C.3     1  UNL1        0.4231
     25 F         -12.9577  -16.1580   20.6981 F       1  UNL1       -0.1673
     26 F         -11.5289  -16.0626   21.8645 F       1  UNL1       -0.1673
     27 F         -13.7267  -18.0128   21.3823 F       1  UNL1       -0.1673
@<TRIPOS>BOND
     1    21    20    1
     2    21    22    1
     3    21     1    1
     4     1     2   ar
     5     2     3   ar
     6     3     4   ar
     7     4     5   ar
     8     5     7    1
     9     7     8   ar
    10     8     9   ar
    11     9    16    1
    12    16    17    1
    13    16    18    1
    14    16    19    1
    15     9    10   ar
    16    10    11   ar
    17    11    12   ar
    18    12    13   ar
    19    13    14   ar
    20    14    15   ar
    21     5     6   ar
    22    21    24    1
    23    24    25    1
    24    24    26    1
    25    24    27    1
    26     6     1   ar
    27    15     7   ar
    28    15    10   ar
    29    22    23    1
@<TRIPOS>MOLECULE
*****
 27 29 0 0 0
SMALL
GASTEIGER

@<TRIPOS>ATOM
      1 C         -10.7559  -18.6027   21.3992 C.ar    1  UNL1        0.0304
      2 C         -10.7610  -19.3226   20.0833 C.ar    1  UNL1        0.0972
      3 N          -9.4649  -19.6565   19.4061 N.ar    1  UNL1       -0.2410
      4 C          -8.1637  -19.2705   20.0449 C.ar    1  UNL1        0.1179
      5 C          -8.1586  -18.5507   21.3607 C.ar    1  UNL1        0.1017
      6 C          -9.4548  -18.2167   22.0380 C.ar    1  UNL1        0.0205
      7 N          -6.8574  -18.1647   21.9995 N.ar    1  UNL1       -0.2282
      8 N          -5.5069  -18.7178   21.6531 N.ar    1  UNL1       -0.1611
      9 C          -4.4932  -18.0527   22.5363 C.ar    1  UNL1        0.1739
     10 C          -5.2173  -17.0886   23.4287 C.ar    1  UNL1        0.0411
     11 C          -4.7348  -16.1567   24.5004 C.ar    1  UNL1        0.0030
     12 C          -5.7136  -15.2940   25.2404 C.ar    1  UNL1        0.0001
     13 C          -7.1748  -15.3631   24.9086 C.ar    1  UNL1        0.0015
     14 C          -7.6572  -16.2951   23.8369 C.ar    1  UNL1        0.0192
     15 C          -6.6785  -17.1578   23.0969 C.ar    1  UNL1        0.0843
     16 C          -3.0149  -18.3071   22.5286 C.3     1  UNL1        0.4365
     17 F          -1.5367  -18.5616   22.5210 F       1  UNL1       -0.1643
     18 F          -3.2673  -19.7780   22.6798 F       1  UNL1       -0.1643
     19 F          -2.7626  -16.8363   22.3775 F       1  UNL1       -0.1643
     20 C         -13.3480  -17.9349   22.7538 C.3     1  UNL1        0.0428
     21 C         -12.0520  -18.2688   22.0764 C.3     1  UNL1        0.1960
     22 O         -12.5341  -17.5990   20.8238 O.3     1  UNL1       -0.3751
     23 H         -11.8478  -17.6583   20.1409 H       1  UNL1        0.2110
     24 C         -11.5699  -18.9385   23.3291 C.3     1  UNL1        0.4231
     25 F         -11.0878  -19.6082   24.5818 F       1  UNL1       -0.1673
     26 F         -11.3173  -20.3560   22.9087 F       1  UNL1       -0.1673
     27 F         -11.7100  -17.6445   24.0748 F       1  UNL1       -0.1673
@<TRIPOS>BOND
     1    21    20    1
     2    21    22    1
     3    21     1    1
     4     1     2   ar
     5     2     3   ar
     6     3     4   ar
     7     4     5   ar
     8     5     7    1
     9     7     8   ar
    10     8     9   ar
    11     9    16    1
    12    16    17    1
    13    16    18    1
    14    16    19    1
    15     9    10   ar
    16    10    11   ar
    17    11    12   ar
    18    12    13   ar
    19    13    14   ar
    20    14    15   ar
    21     5     6   ar
    22    21    24    1
    23    24    25    1
    24    24    26    1
    25    24    27    1
    26     6     1   ar
    27    15     7   ar
    28    15    10   ar
    29    22    23    1
@<TRIPOS>MOLECULE
*****
 27 29 0 0 0
SMALL
GASTEIGER

@<TRIPOS>ATOM
      1 C          -8.9864  -16.8230   23.8797 C.ar    1  UNL1        0.0304
      2 C          -8.6960  -15.7205   24.8544 C.ar    1  UNL1        0.0972
      3 N          -7.2857  -15.2521   25.0587 N.ar    1  UNL1       -0.2410
      4 C          -6.1658  -15.8863   24.2882 C.ar    1  UNL1        0.1179
      5 C          -6.4561  -16.9888   23.3136 C.ar    1  UNL1        0.1017
      6 C          -7.8664  -17.4572   23.1093 C.ar    1  UNL1        0.0205
      7 N          -5.3361  -17.6230   22.5431 N.ar    1  UNL1       -0.2282
      8 N          -3.9279  -17.1141   22.4548 N.ar    1  UNL1       -0.1611
      9 C          -3.1493  -18.0541   21.5828 C.ar    1  UNL1        0.1739
     10 C          -4.0764  -19.1438   21.1322 C.ar    1  UNL1        0.0411
     11 C          -3.8645  -20.3442   20.2582 C.ar    1  UNL1        0.0030
     12 C          -5.0041  -21.2782   19.9776 C.ar    1  UNL1        0.0001
     13 C          -6.3557  -21.0118   20.5711 C.ar    1  UNL1        0.0015
     14 C          -6.5676  -19.8114   21.4452 C.ar    1  UNL1        0.0192
     15 C          -5.4280  -18.8774   21.7257 C.ar    1  UNL1        0.0843
     16 C          -1.6983  -17.9267   21.2244 C.3     1  UNL1        0.4365
     17 F          -0.2473  -17.7993   20.8660 F       1  UNL1       -0.1643
     18 F          -1.3383  -18.8431   22.3559 F       1  UNL1       -0.1643
     19 F          -2.0583  -17.0103   20.0928 F       1  UNL1       -0.1643
     20 C         -11.8068  -17.7600   23.4711 C.3     1  UNL1        0.0428
     21 C         -10.3966  -17.2915   23.6754 C.3     1  UNL1        0.1960
     22 O         -10.7778  -15.9280   23.1799 O.3     1  UNL1       -0.3751
     23 H         -10.0002  -15.3484   23.1976 H       1  UNL1        0.2110
     24 C         -10.0154  -18.6550   24.1710 C.3     1  UNL1        0.4231
     25 F          -9.6342  -20.0185   24.6665 F       1  UNL1       -0.1673
     26 F          -9.6751  -18.4343   25.6151 F       1  UNL1       -0.1673
     27 F         -10.2711  -19.2225   22.8062 F       1  UNL1       -0.1673
@<TRIPOS>BOND
     1    21    20    1
     2    21    22    1
     3    21     1    1
     4     1     2   ar
     5     2     3   ar
     6     3     4   ar
     7     4     5   ar
     8     5     7    1
     9     7     8   ar
    10     8     9   ar
    11     9    16    1
    12    16    17    1
    13    16    18    1
    14    16    19    1
    15     9    10   ar
    16    10    11   ar
    17    11    12   ar
    18    12    13   ar
    19    13    14   ar
    20    14    15   ar
    21     5     6   ar
    22    21    24    1
    23    24    25    1
    24    24    26    1
    25    24    27    1
    26     6     1   ar
    27    15     7   ar
    28    15    10   ar
    29    22    23    1
@<TRIPOS>MOLECULE
*****
 27 29 0 0 0
SMALL
GASTEIGER

@<TRIPOS>ATOM
      1 C         -11.4064  -16.9359   22.4958 C.ar    1  UNL1        0.0304
      2 C         -11.5654  -16.2711   21.1606 C.ar    1  UNL1        0.0972
      3 N         -10.3767  -15.6573   20.4822 N.ar    1  UNL1       -0.2410
      4 C          -9.0291  -15.7083   21.1388 C.ar    1  UNL1        0.1179
      5 C          -8.8700  -16.3731   22.4740 C.ar    1  UNL1        0.1017
      6 C         -10.0587  -16.9870   23.1525 C.ar    1  UNL1        0.0205
      7 N          -7.5223  -16.4241   23.1306 N.ar    1  UNL1       -0.2282
      8 N          -6.2471  -16.8881   22.4915 N.ar    1  UNL1       -0.1611
      9 C          -5.1500  -16.7708   23.5076 C.ar    1  UNL1        0.1739
     10 C          -5.7472  -16.2345   24.7748 C.ar    1  UNL1        0.0411
     11 C          -5.1453  -15.9135   26.1107 C.ar    1  UNL1        0.0030
     12 C          -6.0096  -15.3782   27.2136 C.ar    1  UNL1        0.0001
     13 C          -7.4758  -15.1640   26.9806 C.ar    1  UNL1        0.0015
     14 C          -8.0777  -15.4849   25.6447 C.ar    1  UNL1        0.0192
     15 C          -7.2134  -16.0202   24.5418 C.ar    1  UNL1        0.0843
     16 C          -3.7087  -17.1274   23.2941 C.3     1  UNL1        0.4365
     17 F          -2.2674  -17.4840   23.0807 F       1  UNL1       -0.1643
     18 F          -3.9636  -18.4945   23.8563 F       1  UNL1       -0.1643
     19 F          -3.4538  -15.7604   22.7320 F       1  UNL1       -0.1643
     20 C         -13.7835  -18.1637   23.8529 C.3     1  UNL1        0.0428
     21 C         -12.5949  -17.5497   23.1743 C.3     1  UNL1        0.1960
     22 O         -13.3561  -16.2691   22.9998 O.3     1  UNL1       -0.3751
     23 H         -12.7955  -15.6187   22.5485 H       1  UNL1        0.2110
     24 C         -11.8337  -18.8305   23.3489 C.3     1  UNL1        0.4231
     25 F         -11.0726  -20.1112   23.5234 F       1  UNL1       -0.1673
     26 F         -11.6335  -18.9345   24.8318 F       1  UNL1       -0.1673
     27 F         -11.8503  -19.0426   21.8640 F       1  UNL1       -0.1673
@<TRIPOS>BOND
     1    21    20    1
     2    21    22    1
     3    21     1    1
     4     1     2   ar
     5     2     3   ar
     6     3     4   ar
     7     4     5   ar
     8     5     7    1
     9     7     8   ar
    10     8     9   ar
    11     9    16    1
    12    16    17    1
    13    16    18    1
    14    16    19    1
    15     9    10   ar
    16    10    11   ar
    17    11    12   ar
    18    12    13   ar
    19    13    14   ar
    20    14    15   ar
    21     5     6   ar
    22    21    24    1
    23    24    25    1
    24    24    26    1
    25    24    27    1
    26     6     1   ar
    27    15     7   ar
    28    15    10   ar
    29    22    23    1
@<TRIPOS>MOLECULE
*****
 27 29 0 0 0
SMALL
GASTEIGER

@<TRIPOS>ATOM
      1 C          -6.4122  -15.5409   25.4489 C.ar    1  UNL1        0.0304
      2 C          -5.0664  -15.9544   24.9314 C.ar    1  UNL1        0.0972
      3 N          -4.9525  -16.6431   23.6038 N.ar    1  UNL1       -0.2410
      4 C          -6.1846  -16.9185   22.7936 C.ar    1  UNL1        0.1179
      5 C          -7.5304  -16.5051   23.3110 C.ar    1  UNL1        0.1017
      6 C          -7.6442  -15.8163   24.6387 C.ar    1  UNL1        0.0205
      7 N          -8.7624  -16.7805   22.5009 N.ar    1  UNL1       -0.2282
      8 N          -9.4524  -15.8105   21.5882 N.ar    1  UNL1       -0.1611
      9 C         -10.6371  -16.5048   20.9844 C.ar    1  UNL1        0.1739
     10 C         -10.6793  -17.9037   21.5240 C.ar    1  UNL1        0.0411
     11 C         -11.6230  -19.0444   21.2830 C.ar    1  UNL1        0.0030
     12 C         -11.4080  -20.3555   21.9792 C.ar    1  UNL1        0.0001
     13 C         -10.2493  -20.5259   22.9164 C.ar    1  UNL1        0.0015
     14 C          -9.3056  -19.3852   23.1574 C.ar    1  UNL1        0.0192
     15 C          -9.5206  -18.0741   22.4612 C.ar    1  UNL1        0.0843
     16 C         -11.6091  -15.9053   20.0119 C.3     1  UNL1        0.4365
     17 F         -12.5812  -15.3058   19.0394 F       1  UNL1       -0.1643
     18 F         -12.7146  -16.0763   21.0112 F       1  UNL1       -0.1643
     19 F         -10.5038  -15.7342   19.0126 F       1  UNL1       -0.1643
     20 C          -6.6401  -14.1634   28.1041 C.3     1  UNL1        0.0428
     21 C          -6.5261  -14.8522   26.7765 C.3     1  UNL1        0.1960
     22 O          -5.4149  -13.9220   26.3893 O.3     1  UNL1       -0.3751
     23 H          -5.1058  -14.1414   25.4964 H       1  UNL1        0.2110
     24 C          -7.6374  -15.7824   27.1636 C.3     1  UNL1        0.4231
     25 F          -8.7486  -16.7126   27.5508 F       1  UNL1       -0.1673
     26 F          -8.8833  -14.9944   26.8868 F       1  UNL1       -0.1673
     27 F          -6.6303  -16.8265   27.5455 F       1  UNL1       -0.1673
@<TRIPOS>BOND
     1    21    20    1
     2    21    22    1
     3    21     1    1
     4     1     2   ar
     5     2     3   ar
     6     3     4   ar
     7     4     5   ar
     8     5     7    1
     9     7     8   ar
    10     8     9   ar
    11     9    16    1
    12    16    17    1
    13    16    18    1
    14    16    19    1
    15     9    10   ar
    16    10    11   ar
    17    11    12   ar
    18    12    13   ar
    19    13    14   ar
    20    14    15   ar
    21     5     6   ar
    22    21    24    1
    23    24    25    1
    24    24    26    1
    25    24    27    1
    26     6     1   ar
    27    15     7   ar
    28    15    10   ar
    29    22    23    1
@<TRIPOS>MOLECULE
*****
 27 29 0 0 0
SMALL
GASTEIGER

@<TRIPOS>ATOM
      1 C         -10.4791  -18.4291   20.8734 C.ar    1  UNL1        0.0304
      2 C         -10.4422  -19.3692   19.7052 C.ar    1  UNL1        0.0972
      3 N          -9.1334  -19.9331   19.2373 N.ar    1  UNL1       -0.2410
      4 C          -7.8614  -19.5569   19.9377 C.ar    1  UNL1        0.1179
      5 C          -7.8982  -18.6169   21.1060 C.ar    1  UNL1        0.1017
      6 C          -9.2071  -18.0529   21.5739 C.ar    1  UNL1        0.0205
      7 N          -6.6262  -18.2407   21.8064 N.ar    1  UNL1       -0.2282
      8 N          -5.2588  -18.7746   21.4980 N.ar    1  UNL1       -0.1611
      9 C          -4.2859  -18.1285   22.4393 C.ar    1  UNL1        0.1739
     10 C          -5.0520  -17.1952   23.3293 C.ar    1  UNL1        0.0411
     11 C          -4.6194  -16.2913   24.4453 C.ar    1  UNL1        0.0030
     12 C          -5.6332  -15.4567   25.1703 C.ar    1  UNL1        0.0001
     13 C          -7.0796  -15.5260   24.7791 C.ar    1  UNL1        0.0015
     14 C          -7.5123  -16.4300   23.6631 C.ar    1  UNL1        0.0192
     15 C          -6.4984  -17.2646   22.9382 C.ar    1  UNL1        0.0843
     16 C          -2.8065  -18.3727   22.4828 C.3     1  UNL1        0.4365
     17 F          -1.3272  -18.6169   22.5264 F       1  UNL1       -0.1643
     18 F          -3.0507  -19.8526   22.4773 F       1  UNL1       -0.1643
     19 F          -2.5624  -16.8928   22.4883 F       1  UNL1       -0.1643
     20 C         -13.0967  -17.3011   21.8092 C.3     1  UNL1        0.0428
     21 C         -11.7879  -17.8651   21.3413 C.3     1  UNL1        0.1960
     22 O         -12.0434  -19.1139   22.1320 O.3     1  UNL1       -0.3751
     23 H         -11.3006  -19.7270   22.0172 H       1  UNL1        0.2110
     24 C         -11.5324  -16.6163   20.5506 C.3     1  UNL1        0.4231
     25 F         -11.2768  -15.3674   19.7600 F       1  UNL1       -0.1673
     26 F         -11.6547  -17.0593   19.1228 F       1  UNL1       -0.1673
     27 F         -11.3425  -15.8483   21.8251 F       1  UNL1       -0.1673
@<TRIPOS>BOND
     1    21    20    1
     2    21    22    1
     3    21     1    1
     4     1     2   ar
     5     2     3   ar
     6     3     4   ar
     7     4     5   ar
     8     5     7    1
     9     7     8   ar
    10     8     9   ar
    11     9    16    1
    12    16    17    1
    13    16    18    1
    14    16    19    1
    15     9    10   ar
    16    10    11   ar
    17    11    12   ar
    18    12    13   ar
    19    13    14   ar
    20    14    15   ar
    21     5     6   ar
    22    21    24    1
    23    24    25    1
    24    24    26    1
    25    24    27    1
    26     6     1   ar
    27    15     7   ar
    28    15    10   ar
    29    22    23    1
@<TRIPOS>MOLECULE
*****
 27 29 0 0 0
SMALL
GASTEIGER

@<TRIPOS>ATOM
      1 C          -6.3150  -15.9054   25.2290 C.ar    1  UNL1        0.0304
      2 C          -4.8641  -16.1326   24.9235 C.ar    1  UNL1        0.0972
      3 N          -4.4662  -16.8710   23.6800 N.ar    1  UNL1       -0.2410
      4 C          -5.5191  -17.3821   22.7419 C.ar    1  UNL1        0.1179
      5 C          -6.9700  -17.1550   23.0472 C.ar    1  UNL1        0.1017
      6 C          -7.3679  -16.4166   24.2909 C.ar    1  UNL1        0.0205
      7 N          -8.0229  -17.6662   22.1091 N.ar    1  UNL1       -0.2282
      8 N          -7.8154  -18.6684   21.0125 N.ar    1  UNL1       -0.1611
      9 C          -9.1324  -18.8865   20.3286 C.ar    1  UNL1        0.1739
     10 C         -10.1540  -18.0190   21.0025 C.ar    1  UNL1        0.0411
     11 C         -11.6199  -17.8185   20.7563 C.ar    1  UNL1        0.0030
     12 C         -12.4001  -16.8638   21.6105 C.ar    1  UNL1        0.0001
     13 C         -11.7144  -16.1096   22.7109 C.ar    1  UNL1        0.0015
     14 C         -10.2484  -16.3101   22.9572 C.ar    1  UNL1        0.0192
     15 C          -9.4682  -17.2648   22.1029 C.ar    1  UNL1        0.0843
     16 C          -9.3839  -19.8098   19.1736 C.3     1  UNL1        0.4365
     17 F          -9.6353  -20.7332   18.0185 F       1  UNL1       -0.1643
     18 F          -8.2100  -19.2220   18.4481 F       1  UNL1       -0.1643
     19 F         -10.5577  -20.3977   19.8991 F       1  UNL1       -0.1643
     20 C          -7.1112  -14.4288   27.7160 C.3     1  UNL1        0.0428
     21 C          -6.7131  -15.1671   26.4725 C.3     1  UNL1        0.1960
     22 O          -5.6462  -14.1463   26.2080 O.3     1  UNL1       -0.3751
     23 H          -5.1736  -14.3764   25.3928 H       1  UNL1        0.2110
     24 C          -7.7799  -16.1879   26.7370 C.3     1  UNL1        0.4231
     25 F          -8.8467  -17.2086   27.0015 F       1  UNL1       -0.1673
     26 F          -8.9930  -15.6306   26.0531 F       1  UNL1       -0.1673
     27 F          -6.7956  -17.0167   27.5079 F       1  UNL1       -0.1673
@<TRIPOS>BOND
     1    21    20    1
     2    21    22    1
     3    21     1    1
     4     1     2   ar
     5     2     3   ar
     6     3     4   ar
     7     4     5   ar
     8     5     7    1
     9     7     8   ar
    10     8     9   ar
    11     9    16    1
    12    16    17    1
    13    16    18    1
    14    16    19    1
    15     9    10   ar
    16    10    11   ar
    17    11    12   ar
    18    12    13   ar
    19    13    14   ar
    20    14    15   ar
    21     5     6   ar
    22    21    24    1
    23    24    25    1
    24    24    26    1
    25    24    27    1
    26     6     1   ar
    27    15     7   ar
    28    15    10   ar
    29    22    23    1
@<TRIPOS>MOLECULE
*****
 27 29 0 0 0
SMALL
GASTEIGER

@<TRIPOS>ATOM
      1 C         -16.9202   -7.6082   18.5764 C.ar    1  UNL1        0.0304
      2 C         -16.9738   -8.3080   17.2507 C.ar    1  UNL1        0.0972
      3 N         -15.9009   -8.0657   16.2309 N.ar    1  UNL1       -0.2410
      4 C         -14.7744   -7.1236   16.5367 C.ar    1  UNL1        0.1179
      5 C         -14.7208   -6.4238   17.8623 C.ar    1  UNL1        0.1017
      6 C         -15.7938   -6.6661   18.8822 C.ar    1  UNL1        0.0205
      7 N         -13.5943   -5.4816   18.1681 N.ar    1  UNL1       -0.2282
      8 N         -13.6878   -3.9858   18.2285 N.ar    1  UNL1       -0.1611
      9 C         -12.3278   -3.4497   18.5649 C.ar    1  UNL1        0.1739
     10 C         -11.3939   -4.6142   18.7124 C.ar    1  UNL1        0.0411
     11 C          -9.9319   -4.6933   19.0383 C.ar    1  UNL1        0.0030
     12 C          -9.2527   -6.0282   19.1190 C.ar    1  UNL1        0.0001
     13 C         -10.0355   -7.2841   18.8737 C.ar    1  UNL1        0.0015
     14 C         -11.4974   -7.2050   18.5478 C.ar    1  UNL1        0.0192
     15 C         -12.1767   -5.8700   18.4671 C.ar    1  UNL1        0.0843
     16 C         -11.9654   -2.0030   18.7256 C.3     1  UNL1        0.4365
     17 F         -11.6029   -0.5563   18.8862 F       1  UNL1       -0.1643
     18 F         -11.0767   -2.0918   17.5205 F       1  UNL1       -0.1643
     19 F         -12.8540   -1.9142   19.9307 F       1  UNL1       -0.1643
     20 C         -19.0659   -8.0927   20.6162 C.3     1  UNL1        0.0428
     21 C         -17.9931   -7.8504   19.5963 C.3     1  UNL1        0.1960
     22 O         -18.4223   -6.4175   19.4852 O.3     1  UNL1       -0.3751
     23 H         -17.8608   -5.9608   18.8394 H       1  UNL1        0.2110
     24 C         -17.5638   -9.2835   19.7074 C.3     1  UNL1        0.4231
     25 F         -17.1346  -10.7164   19.8184 F       1  UNL1       -0.1673
     26 F         -16.2114   -9.2083   20.3516 F       1  UNL1       -0.1673
     27 F         -18.8508   -9.7182   19.0711 F       1  UNL1       -0.1673
@<TRIPOS>BOND
     1    21    20    1
     2    21    22    1
     3    21     1    1
     4     1     2   ar
     5     2     3   ar
     6     3     4   ar
     7     4     5   ar
     8     5     7    1
     9     7     8   ar
    10     8     9   ar
    11     9    16    1
    12    16    17    1
    13    16    18    1
    14    16    19    1
    15     9    10   ar
    16    10    11   ar
    17    11    12   ar
    18    12    13   ar
    19    13    14   ar
    20    14    15   ar
    21     5     6   ar
    22    21    24    1
    23    24    25    1
    24    24    26    1
    25    24    27    1
    26     6     1   ar
    27    15     7   ar
    28    15    10   ar
    29    22    23    1
@<TRIPOS>MOLECULE
*****
 27 29 0 0 0
SMALL
GASTEIGER

@<TRIPOS>ATOM
      1 C          -6.7466  -15.7748   24.9928 C.ar    1  UNL1        0.0304
      2 C          -5.9516  -15.6608   26.2596 C.ar    1  UNL1        0.0972
      3 N          -4.5423  -16.1720   26.3093 N.ar    1  UNL1       -0.2410
      4 C          -3.9279  -16.7973   25.0921 C.ar    1  UNL1        0.1179
      5 C          -4.7228  -16.9114   23.8252 C.ar    1  UNL1        0.1017
      6 C          -6.1322  -16.4001   23.7755 C.ar    1  UNL1        0.0205
      7 N          -4.1084  -17.5366   22.6080 N.ar    1  UNL1       -0.2282
      8 N          -2.8597  -17.0770   21.9156 N.ar    1  UNL1       -0.1611
      9 C          -2.6145  -17.9876   20.7492 C.ar    1  UNL1        0.1739
     10 C          -3.7117  -19.0101   20.7207 C.ar    1  UNL1        0.0411
     11 C          -3.9893  -20.1590   19.7971 C.ar    1  UNL1        0.0030
     12 C          -5.1901  -21.0291   20.0223 C.ar    1  UNL1        0.0001
     13 C          -6.1134  -20.7503   21.1712 C.ar    1  UNL1        0.0015
     14 C          -5.8359  -19.6015   22.0948 C.ar    1  UNL1        0.0192
     15 C          -4.6350  -18.7314   21.8695 C.ar    1  UNL1        0.0843
     16 C          -1.4727  -17.8926   19.7812 C.3     1  UNL1        0.4365
     17 F          -0.3307  -17.7975   18.8132 F       1  UNL1       -0.1643
     18 F          -0.5281  -18.3571   20.8498 F       1  UNL1       -0.1643
     19 F          -2.4172  -17.4281   18.7126 F       1  UNL1       -0.1643
     20 C          -9.5652  -14.7526   24.8933 C.3     1  UNL1        0.0428
     21 C          -8.1559  -15.2637   24.9430 C.3     1  UNL1        0.1960
     22 O          -7.7985  -14.3919   23.7758 O.3     1  UNL1       -0.3751
     23 H          -6.8623  -14.5156   23.5545 H       1  UNL1        0.2110
     24 C          -8.5132  -16.1355   26.1102 C.3     1  UNL1        0.4231
     25 F          -8.8706  -17.0073   27.2773 F       1  UNL1       -0.1673
     26 F          -8.4217  -15.2159   27.2916 F       1  UNL1       -0.1673
     27 F          -8.6967  -17.3008   25.1836 F       1  UNL1       -0.1673
@<TRIPOS>BOND
     1    21    20    1
     2    21    22    1
     3    21     1    1
     4     1     2   ar
     5     2     3   ar
     6     3     4   ar
     7     4     5   ar
     8     5     7    1
     9     7     8   ar
    10     8     9   ar
    11     9    16    1
    12    16    17    1
    13    16    18    1
    14    16    19    1
    15     9    10   ar
    16    10    11   ar
    17    11    12   ar
    18    12    13   ar
    19    13    14   ar
    20    14    15   ar
    21     5     6   ar
    22    21    24    1
    23    24    25    1
    24    24    26    1
    25    24    27    1
    26     6     1   ar
    27    15     7   ar
    28    15    10   ar
    29    22    23    1
