@<TRIPOS>MOLECULE
*****
 16 17 0 0 0
SMALL
GASTEIGER

@<TRIPOS>ATOM
      1 F         -13.6119  -18.1100   21.5561 F       1  UNL1       -0.2033
      2 C         -12.3248  -17.6800   22.1952 C.ar    1  UNL1        0.1506
      3 C         -11.9057  -18.2705   23.5088 C.ar    1  UNL1        0.0302
      4 C         -10.6185  -17.8404   24.1478 C.ar    1  UNL1       -0.0019
      5 C          -9.7506  -16.8198   23.4733 C.ar    1  UNL1       -0.0199
      6 C         -10.1698  -16.2292   22.1597 C.ar    1  UNL1        0.0094
      7 C         -11.4569  -16.6593   21.5206 C.ar    1  UNL1        0.0847
      8 CL        -11.8761  -16.0688   20.2070 Cl      1  UNL1       -0.0799
      9 C          -8.4635  -16.3897   24.1123 C.3     1  UNL1        0.0424
     10 C          -8.5348  -16.0873   25.5799 C.3     1  UNL1        0.0315
     11 C          -7.4354  -15.6394   26.4969 C.2     1  UNL1       -0.0289
     12 C          -5.9935  -15.3832   26.1729 C.2     1  UNL1       -0.0136
     13 C          -5.2946  -15.5116   24.8518 C.3     1  UNL1        0.0950
     14 N          -5.8651  -15.9279   23.5285 N.3     1  UNL1       -0.2935
     15 C          -7.2755  -16.3187   23.1995 C.3     1  UNL1        0.0735
     16 H          -5.3053  -16.7342   23.2512 H       1  UNL1        0.1236
@<TRIPOS>BOND
     1     1     2    1
     2     2     3   ar
     3     3     4   ar
     4     4     5   ar
     5     5     9    1
     6     9    10    1
     7    10    11    1
     8    11    12    2
     9    12    13    1
    10    13    14    1
    11    14    15    1
    12     5     6   ar
    13     6     7   ar
    14     7     8    1
    15     7     2   ar
    16    15     9    1
    17    14    16    1
@<TRIPOS>MOLECULE
*****
 16 17 0 0 0
SMALL
GASTEIGER

@<TRIPOS>ATOM
      1 F          -5.0920  -15.1613   26.3173 F       1  UNL1       -0.2033
      2 C          -6.2762  -15.5142   25.4669 C.ar    1  UNL1        0.1506
      3 C          -6.0931  -15.7918   24.0043 C.ar    1  UNL1        0.0302
      4 C          -7.2774  -16.1448   23.1539 C.ar    1  UNL1       -0.0019
      5 C          -8.6446  -16.2200   23.7662 C.ar    1  UNL1       -0.0199
      6 C          -8.8276  -15.9423   25.2288 C.ar    1  UNL1        0.0094
      7 C          -7.6435  -15.5894   26.0793 C.ar    1  UNL1        0.0847
      8 CL         -7.8265  -15.3118   27.5419 Cl      1  UNL1       -0.0799
      9 C          -9.8288  -16.5729   22.9159 C.3     1  UNL1        0.0424
     10 C         -10.8820  -17.4083   23.5815 C.3     1  UNL1        0.0315
     11 C         -12.1699  -17.9209   23.0079 C.2     1  UNL1       -0.0289
     12 C         -12.7225  -17.7247   21.6274 C.2     1  UNL1       -0.0136
     13 C         -12.1239  -16.9675   20.4792 C.3     1  UNL1        0.0950
     14 N         -10.8247  -16.2194   20.4281 N.3     1  UNL1       -0.2935
     15 C          -9.8034  -16.0439   21.5126 C.3     1  UNL1        0.0735
     16 H         -11.0873  -15.2687   20.1681 H       1  UNL1        0.1236
@<TRIPOS>BOND
     1     1     2    1
     2     2     3   ar
     3     3     4   ar
     4     4     5   ar
     5     5     9    1
     6     9    10    1
     7    10    11    1
     8    11    12    2
     9    12    13    1
    10    13    14    1
    11    14    15    1
    12     5     6   ar
    13     6     7   ar
    14     7     8    1
    15     7     2   ar
    16    15     9    1
    17    14    16    1
@<TRIPOS>MOLECULE
*****
 16 17 0 0 0
SMALL
GASTEIGER

@<TRIPOS>ATOM
      1 F         -11.8409  -19.6146   20.9141 F       1  UNL1       -0.2033
      2 C         -10.3452  -19.5716   21.0182 C.ar    1  UNL1        0.1506
      3 C          -9.5096  -19.4706   19.7766 C.ar    1  UNL1        0.0302
      4 C          -8.0137  -19.4276   19.8807 C.ar    1  UNL1       -0.0019
      5 C          -7.3537  -19.4855   21.2264 C.ar    1  UNL1       -0.0199
      6 C          -8.1893  -19.5866   22.4680 C.ar    1  UNL1        0.0094
      7 C          -9.6851  -19.6296   22.3639 C.ar    1  UNL1        0.0847
      8 CL        -10.5207  -19.7306   23.6055 Cl      1  UNL1       -0.0799
      9 C          -5.8579  -19.4425   21.3306 C.3     1  UNL1        0.0424
     10 C          -5.1108  -20.2412   20.3038 C.3     1  UNL1        0.0315
     11 C          -3.6283  -20.4011   20.1406 C.2     1  UNL1       -0.0289
     12 C          -2.5268  -19.8020   20.9637 C.2     1  UNL1       -0.0136
     13 C          -2.6356  -18.8949   22.1534 C.3     1  UNL1        0.0950
     14 N          -3.8729  -18.3629   22.8138 N.3     1  UNL1       -0.2935
     15 C          -5.3070  -18.6067   22.4475 C.3     1  UNL1        0.0735
     16 H          -3.7679  -17.3491   22.7743 H       1  UNL1        0.1236
@<TRIPOS>BOND
     1     1     2    1
     2     2     3   ar
     3     3     4   ar
     4     4     5   ar
     5     5     9    1
     6     9    10    1
     7    10    11    1
     8    11    12    2
     9    12    13    1
    10    13    14    1
    11    14    15    1
    12     5     6   ar
    13     6     7   ar
    14     7     8    1
    15     7     2   ar
    16    15     9    1
    17    14    16    1
@<TRIPOS>MOLECULE
*****
 16 17 0 0 0
SMALL
GASTEIGER

@<TRIPOS>ATOM
      1 F          -5.3281  -15.1355   26.5330 F       1  UNL1       -0.2033
      2 C          -6.4282  -15.5652   25.6082 C.ar    1  UNL1        0.1506
      3 C          -7.8573  -15.4918   26.0577 C.ar    1  UNL1        0.0302
      4 C          -8.9574  -15.9215   25.1328 C.ar    1  UNL1       -0.0019
      5 C          -8.6283  -16.4246   23.7586 C.ar    1  UNL1       -0.0199
      6 C          -7.1991  -16.4979   23.3091 C.ar    1  UNL1        0.0094
      7 C          -6.0990  -16.0683   24.2339 C.ar    1  UNL1        0.0847
      8 CL         -4.6698  -16.1417   23.7844 Cl      1  UNL1       -0.0799
      9 C          -9.7283  -16.8542   22.8338 C.3     1  UNL1        0.0424
     10 C         -11.0931  -16.9547   23.4482 C.3     1  UNL1        0.0315
     11 C         -12.3848  -17.3524   22.7974 C.2     1  UNL1       -0.0289
     12 C         -12.6306  -17.7478   21.3716 C.2     1  UNL1       -0.0136
     13 C         -11.6457  -17.8433   20.2443 C.3     1  UNL1        0.0950
     14 N         -10.1715  -17.5668   20.2645 N.3     1  UNL1       -0.2935
     15 C          -9.3183  -17.1267   21.4170 C.3     1  UNL1        0.0735
     16 H         -10.0373  -16.8448   19.5567 H       1  UNL1        0.1236
@<TRIPOS>BOND
     1     1     2    1
     2     2     3   ar
     3     3     4   ar
     4     4     5   ar
     5     5     9    1
     6     9    10    1
     7    10    11    1
     8    11    12    2
     9    12    13    1
    10    13    14    1
    11    14    15    1
    12     5     6   ar
    13     6     7   ar
    14     7     8    1
    15     7     2   ar
    16    15     9    1
    17    14    16    1
@<TRIPOS>MOLECULE
*****
 16 17 0 0 0
SMALL
GASTEIGER

@<TRIPOS>ATOM
      1 F         -12.6959  -18.4448   23.9771 F       1  UNL1       -0.2033
      2 C         -11.2938  -18.6267   23.4763 C.ar    1  UNL1        0.1506
      3 C         -10.5265  -19.8665   23.8287 C.ar    1  UNL1        0.0302
      4 C          -9.1242  -20.0485   23.3279 C.ar    1  UNL1       -0.0019
      5 C          -8.4894  -18.9906   22.4748 C.ar    1  UNL1       -0.0199
      6 C          -9.2566  -17.7508   22.1224 C.ar    1  UNL1        0.0094
      7 C         -10.6588  -17.5688   22.6232 C.ar    1  UNL1        0.0847
      8 CL        -11.4261  -16.3290   22.2708 Cl      1  UNL1       -0.0799
      9 C          -7.0872  -19.1725   21.9740 C.3     1  UNL1        0.0424
     10 C          -6.8897  -20.2779   20.9794 C.3     1  UNL1        0.0315
     11 C          -5.6240  -20.7088   20.2991 C.2     1  UNL1       -0.0289
     12 C          -4.2436  -20.1408   20.4455 C.2     1  UNL1       -0.0136
     13 C          -3.7876  -19.0016   21.3082 C.3     1  UNL1        0.0950
     14 N          -4.5995  -18.1490   22.2376 N.3     1  UNL1       -0.2935
     15 C          -6.0680  -18.2252   22.5339 C.3     1  UNL1        0.0735
     16 H          -4.4556  -17.1966   21.9021 H       1  UNL1        0.1236
@<TRIPOS>BOND
     1     1     2    1
     2     2     3   ar
     3     3     4   ar
     4     4     5   ar
     5     5     9    1
     6     9    10    1
     7    10    11    1
     8    11    12    2
     9    12    13    1
    10    13    14    1
    11    14    15    1
    12     5     6   ar
    13     6     7   ar
    14     7     8    1
    15     7     2   ar
    16    15     9    1
    17    14    16    1
@<TRIPOS>MOLECULE
*****
 16 17 0 0 0
SMALL
GASTEIGER

@<TRIPOS>ATOM
      1 F          -5.3944  -14.8256   26.4708 F       1  UNL1       -0.2033
      2 C          -6.4590  -15.3697   25.5650 C.ar    1  UNL1        0.1506
      3 C          -7.8621  -15.5323   26.0698 C.ar    1  UNL1        0.0302
      4 C          -8.9268  -16.0764   25.1639 C.ar    1  UNL1       -0.0019
      5 C          -8.5883  -16.4578   23.7533 C.ar    1  UNL1       -0.0199
      6 C          -7.1852  -16.2952   23.2485 C.ar    1  UNL1        0.0094
      7 C          -6.1205  -15.7511   24.1543 C.ar    1  UNL1        0.0847
      8 CL         -4.7174  -15.5885   23.6495 Cl      1  UNL1       -0.0799
      9 C          -9.6529  -17.0018   22.8474 C.3     1  UNL1        0.0424
     10 C          -9.1822  -17.9558   21.7897 C.3     1  UNL1        0.0315
     11 C          -9.9898  -18.6636   20.7423 C.2     1  UNL1       -0.0289
     12 C         -11.4673  -18.5922   20.4940 C.2     1  UNL1       -0.0136
     13 C         -12.5023  -17.7955   21.2316 C.3     1  UNL1        0.0950
     14 N         -12.3153  -16.8733   22.3998 N.3     1  UNL1       -0.2935
     15 C         -11.0471  -16.5202   23.1188 C.3     1  UNL1        0.0735
     16 H         -12.9231  -17.2536   23.1253 H       1  UNL1        0.1236
@<TRIPOS>BOND
     1     1     2    1
     2     2     3   ar
     3     3     4   ar
     4     4     5   ar
     5     5     9    1
     6     9    10    1
     7    10    11    1
     8    11    12    2
     9    12    13    1
    10    13    14    1
    11    14    15    1
    12     5     6   ar
    13     6     7   ar
    14     7     8    1
    15     7     2   ar
    16    15     9    1
    17    14    16    1
@<TRIPOS>MOLECULE
*****
 16 17 0 0 0
SMALL
GASTEIGER

@<TRIPOS>ATOM
      1 F          -8.6959  -14.9878   27.0522 F       1  UNL1       -0.2033
      2 C          -7.6187  -15.4395   26.1112 C.ar    1  UNL1        0.1506
      3 C          -6.1807  -15.3810   26.5338 C.ar    1  UNL1        0.0302
      4 C          -5.1034  -15.8327   25.5926 C.ar    1  UNL1       -0.0019
      5 C          -5.4643  -16.3428   24.2290 C.ar    1  UNL1       -0.0199
      6 C          -6.9023  -16.4013   23.8064 C.ar    1  UNL1        0.0094
      7 C          -7.9796  -15.9496   24.7475 C.ar    1  UNL1        0.0847
      8 CL         -9.4176  -16.0081   24.3249 Cl      1  UNL1       -0.0799
      9 C          -4.3871  -16.7945   23.2879 C.3     1  UNL1        0.0424
     10 C          -4.2805  -18.2769   23.0841 C.3     1  UNL1        0.0315
     11 C          -3.3194  -19.0350   22.2171 C.2     1  UNL1       -0.0289
     12 C          -2.2278  -18.4980   21.3398 C.2     1  UNL1       -0.0136
     13 C          -1.8273  -17.0704   21.1127 C.3     1  UNL1        0.0950
     14 N          -2.4198  -15.8271   21.7070 N.3     1  UNL1       -0.2935
     15 C          -3.5590  -15.7044   22.6750 C.3     1  UNL1        0.0735
     16 H          -2.7077  -15.2712   20.9017 H       1  UNL1        0.1236
@<TRIPOS>BOND
     1     1     2    1
     2     2     3   ar
     3     3     4   ar
     4     4     5   ar
     5     5     9    1
     6     9    10    1
     7    10    11    1
     8    11    12    2
     9    12    13    1
    10    13    14    1
    11    14    15    1
    12     5     6   ar
    13     6     7   ar
    14     7     8    1
    15     7     2   ar
    16    15     9    1
    17    14    16    1
@<TRIPOS>MOLECULE
*****
 16 17 0 0 0
SMALL
GASTEIGER

@<TRIPOS>ATOM
      1 F         -11.0814  -18.7524   19.3440 F       1  UNL1       -0.2033
      2 C         -10.3075  -18.1957   20.5020 C.ar    1  UNL1        0.1506
      3 C          -9.0749  -18.8990   20.9878 C.ar    1  UNL1        0.0302
      4 C          -8.3009  -18.3422   22.1459 C.ar    1  UNL1       -0.0019
      5 C          -8.7596  -17.0821   22.8180 C.ar    1  UNL1       -0.0199
      6 C          -9.9921  -16.3788   22.3322 C.ar    1  UNL1        0.0094
      7 C         -10.7662  -16.9355   21.1742 C.ar    1  UNL1        0.0847
      8 CL        -11.9987  -16.2322   20.6883 Cl      1  UNL1       -0.0799
      9 C          -7.9857  -16.5253   23.9760 C.3     1  UNL1        0.0424
     10 C          -6.5750  -16.1117   23.6774 C.3     1  UNL1        0.0315
     11 C          -5.5550  -15.5263   24.6085 C.2     1  UNL1       -0.0289
     12 C          -5.6937  -15.2100   26.0681 C.2     1  UNL1       -0.0136
     13 C          -6.8866  -15.4009   26.9573 C.3     1  UNL1        0.0950
     14 N          -8.2355  -15.9552   26.6063 N.3     1  UNL1       -0.2935
     15 C          -8.7245  -16.4556   25.2795 C.3     1  UNL1        0.0735
     16 H          -8.8895  -15.2136   26.8566 H       1  UNL1        0.1236
@<TRIPOS>BOND
     1     1     2    1
     2     2     3   ar
     3     3     4   ar
     4     4     5   ar
     5     5     9    1
     6     9    10    1
     7    10    11    1
     8    11    12    2
     9    12    13    1
    10    13    14    1
    11    14    15    1
    12     5     6   ar
    13     6     7   ar
    14     7     8    1
    15     7     2   ar
    16    15     9    1
    17    14    16    1
@<TRIPOS>MOLECULE
*****
 16 17 0 0 0
SMALL
GASTEIGER

@<TRIPOS>ATOM
      1 F         -12.3364  -18.7243   22.0563 F       1  UNL1       -0.2033
      2 C         -10.8527  -18.7875   21.8454 C.ar    1  UNL1        0.1506
      3 C         -10.3013  -19.1313   20.4935 C.ar    1  UNL1        0.0302
      4 C          -8.8174  -19.1945   20.2827 C.ar    1  UNL1       -0.0019
      5 C          -7.8852  -18.9139   21.4238 C.ar    1  UNL1       -0.0199
      6 C          -8.4366  -18.5702   22.7757 C.ar    1  UNL1        0.0094
      7 C          -9.9204  -18.5069   22.9866 C.ar    1  UNL1        0.0847
      8 CL        -10.4719  -18.1632   24.3385 Cl      1  UNL1       -0.0799
      9 C          -6.4014  -18.9771   21.2130 C.3     1  UNL1        0.0424
     10 C          -5.5797  -19.2304   22.4422 C.3     1  UNL1        0.0315
     11 C          -4.0891  -19.3478   22.5629 C.2     1  UNL1       -0.0289
     12 C          -3.0523  -19.2409   21.4844 C.2     1  UNL1       -0.0136
     13 C          -3.2497  -18.9903   20.0187 C.3     1  UNL1        0.0950
     14 N          -4.5328  -18.7846   19.2696 N.3     1  UNL1       -0.2935
     15 C          -5.9355  -18.7788   19.8012 C.3     1  UNL1        0.0735
     16 H          -4.5326  -19.5146   18.5572 H       1  UNL1        0.1236
@<TRIPOS>BOND
     1     1     2    1
     2     2     3   ar
     3     3     4   ar
     4     4     5   ar
     5     5     9    1
     6     9    10    1
     7    10    11    1
     8    11    12    2
     9    12    13    1
    10    13    14    1
    11    14    15    1
    12     5     6   ar
    13     6     7   ar
    14     7     8    1
    15     7     2   ar
    16    15     9    1
    17    14    16    1
