@<TRIPOS>MOLECULE
*****
 41 44 0 0 0
SMALL
GASTEIGER

@<TRIPOS>ATOM
      1 C           6.5260   -3.1946   25.6108 C.2     1  UNL1        0.2485
      2 O           7.2639   -1.9729   25.1494 O.2     1  UNL1       -0.2726
      3 N           5.5713   -3.8884   24.6850 N.am    1  UNL1       -0.2823
      4 H           5.0869   -4.6903   24.9877 H       1  UNL1        0.1549
      5 C           6.1186   -2.0388   31.1003 C.ar    1  UNL1        0.1054
      6 C           5.7580   -1.1369   29.9573 C.ar    1  UNL1        0.0181
      7 C           5.9315   -1.6104   28.5446 C.ar    1  UNL1       -0.0011
      8 C           6.4656   -2.9859   28.2750 C.ar    1  UNL1        0.0022
      9 C           6.8262   -3.8878   29.4180 C.ar    1  UNL1       -0.0030
     10 C           6.6527   -3.4142   30.8306 C.ar    1  UNL1        0.0155
     11 C           7.3262   -5.1819   28.8474 C.3     1  UNL1        0.1207
     12 N           7.2746   -5.0797   27.3518 N.am    1  UNL1       -0.2635
     13 C           7.6831   -6.1473   26.3805 C.2     1  UNL1        0.2537
     14 O           7.5751   -5.9000   24.9050 O.2     1  UNL1       -0.2722
     15 C           6.7427   -3.7225   26.9980 C.3     1  UNL1        0.1751
     16 C           8.1997   -7.4622   26.8847 C.3     1  UNL1        0.1935
     17 C           9.4565   -7.9173   27.5653 C.3     1  UNL1        0.0711
     18 C           8.9302   -9.3217   27.5978 C.3     1  UNL1        0.1457
     19 O           7.6735   -8.8664   26.9172 O.3     1  UNL1       -0.3469
     20 S           5.9451   -1.5652   32.5130 S.O2    1  UNL1        0.0086
     21 O           5.4855   -2.9351   32.9158 O.2     1  UNL1       -0.1686
     22 O           6.4047   -0.1953   32.1102 O.2     1  UNL1       -0.1686
     23 C           4.3946   -0.9048   34.4903 C.3     1  UNL1        0.0276
     24 C           5.7716   -1.0916   33.9256 C.3     1  UNL1        0.1560
     25 C           5.3546   -3.3605   23.2978 C.ar    1  UNL1        0.0503
     26 C           6.3148   -3.7157   22.2016 C.ar    1  UNL1        0.0144
     27 C           6.0981   -3.1878   20.8144 C.ar    1  UNL1       -0.0002
     28 C           4.9211   -2.3047   20.5233 C.ar    1  UNL1        0.0182
     29 C           3.9608   -1.9495   21.6195 C.ar    1  UNL1       -0.0002
     30 C           4.1776   -2.4774   23.0067 C.ar    1  UNL1        0.0144
     31 C           4.7044   -1.7768   19.1361 C.3     1  UNL1        0.2827
     32 O           4.7395   -0.3735   19.6646 O.3     1  UNL1       -0.3692
     33 H           4.8793   -0.3928   20.6243 H       1  UNL1        0.2112
     34 C           4.4877   -1.2489   17.7489 C.3     1  UNL1        0.4311
     35 F           4.2710   -0.7210   16.3617 F       1  UNL1       -0.1669
     36 F           5.9009   -0.7469   17.7191 F       1  UNL1       -0.1669
     37 F           3.6438   -1.5051   17.6665 F       1  UNL1       -0.1669
     38 C           4.6693   -3.1801   18.6075 C.3     1  UNL1        0.4311
     39 F           4.6341   -4.5835   18.0790 F       1  UNL1       -0.1669
     40 F           5.4507   -3.1583   18.1911 F       1  UNL1       -0.1669
     41 F           3.3629   -3.7231   19.1060 F       1  UNL1       -0.1669
@<TRIPOS>BOND
     1    23    24    1
     2    24    20    1
     3    20    21    2
     4    20    22    2
     5    20     5    1
     6     5     6   ar
     7     6     7   ar
     8     7     8   ar
     9     8     9   ar
    10     9    10   ar
    11     9    11    1
    12    11    12    1
    13    12    13   am
    14    13    14    2
    15    13    16    1
    16    16    17    1
    17    17    18    1
    18    18    19    1
    19    12    15    1
    20    15     1    1
    21     1     2    2
    22     1     3   am
    23     3    25    1
    24    25    26   ar
    25    26    27   ar
    26    27    28   ar
    27    28    31    1
    28    31    32    1
    29    31    34    1
    30    34    35    1
    31    34    36    1
    32    34    37    1
    33    31    38    1
    34    38    39    1
    35    38    40    1
    36    38    41    1
    37    28    29   ar
    38    29    30   ar
    39    10     5   ar
    40    19    16    1
    41    30    25   ar
    42    15     8    1
    43     3     4    1
    44    32    33    1
@<TRIPOS>MOLECULE
*****
 41 44 0 0 0
SMALL
GASTEIGER

@<TRIPOS>ATOM
      1 C           1.6116    1.3619   24.6340 C.2     1  UNL1        0.2485
      2 O           2.8117    2.1393   25.0870 O.2     1  UNL1       -0.2726
      3 N           0.5483    0.9812   25.6212 N.am    1  UNL1       -0.2823
      4 H          -0.2394    0.4710   25.3239 H       1  UNL1        0.1549
      5 C           3.5532   -2.0148   20.5764 C.ar    1  UNL1        0.1054
      6 C           4.0235   -1.9481   21.9992 C.ar    1  UNL1        0.0181
      7 C           3.3890   -0.9811   22.9543 C.ar    1  UNL1       -0.0011
      8 C           2.2843   -0.0806   22.4866 C.ar    1  UNL1        0.0022
      9 C           1.8140   -0.1473   21.0638 C.ar    1  UNL1       -0.0030
     10 C           2.4485   -1.1144   20.1087 C.ar    1  UNL1        0.0155
     11 C           0.7136    0.8576   20.8917 C.3     1  UNL1        0.1207
     12 N           0.5039    1.5452   22.2082 N.am    1  UNL1       -0.2635
     13 C          -0.5003    2.6235   22.4896 C.2     1  UNL1        0.2537
     14 O          -0.5951    3.2202   23.8625 O.2     1  UNL1       -0.2722
     15 C           1.4746    0.9654   23.1939 C.3     1  UNL1        0.1751
     16 C          -1.4096    3.1048   21.3981 C.3     1  UNL1        0.1935
     17 C          -1.2601    4.0216   20.2203 C.3     1  UNL1        0.0711
     18 C          -2.6956    3.7856   19.8545 C.3     1  UNL1        0.1457
     19 O          -2.8450    2.8689   21.0324 O.3     1  UNL1       -0.3469
     20 S           4.1877   -2.9819   19.6213 S.O2    1  UNL1        0.0086
     21 O           4.6154   -3.8403   20.7746 O.2     1  UNL1       -0.1686
     22 O           3.7600   -2.1234   18.4680 O.2     1  UNL1       -0.1686
     23 C           4.5430   -5.4175   18.7899 C.3     1  UNL1        0.0276
     24 C           4.8221   -3.9489   18.6662 C.3     1  UNL1        0.1560
     25 C           0.6853    1.3777   27.0613 C.ar    1  UNL1        0.0503
     26 C           1.1008    0.3610   28.0829 C.ar    1  UNL1        0.0144
     27 C           1.2377    0.7576   29.5231 C.ar    1  UNL1       -0.0002
     28 C           0.9593    2.1708   29.9416 C.ar    1  UNL1        0.0182
     29 C           0.5438    3.1875   28.9200 C.ar    1  UNL1       -0.0002
     30 C           0.4068    2.7909   27.4799 C.ar    1  UNL1        0.0144
     31 C           1.0963    2.5673   31.3817 C.3     1  UNL1        0.2827
     32 O          -0.1450    1.7931   31.7130 O.3     1  UNL1       -0.3692
     33 H          -0.4961    1.3844   30.9064 H       1  UNL1        0.2112
     34 C           1.2332    2.9639   32.8219 C.3     1  UNL1        0.4311
     35 F           1.3702    3.3604   34.2620 F       1  UNL1       -0.1669
     36 F           0.0496    3.8749   32.6836 F       1  UNL1       -0.1669
     37 F           1.9368    2.4585   33.0066 F       1  UNL1       -0.1669
     38 C           2.3375    3.3416   31.0505 C.3     1  UNL1        0.4311
     39 F           3.5788    4.1158   30.7192 F       1  UNL1       -0.1669
     40 F           2.8584    2.6447   30.8845 F       1  UNL1       -0.1669
     41 F           1.9235    4.7749   31.2056 F       1  UNL1       -0.1669
@<TRIPOS>BOND
     1    23    24    1
     2    24    20    1
     3    20    21    2
     4    20    22    2
     5    20     5    1
     6     5     6   ar
     7     6     7   ar
     8     7     8   ar
     9     8     9   ar
    10     9    10   ar
    11     9    11    1
    12    11    12    1
    13    12    13   am
    14    13    14    2
    15    13    16    1
    16    16    17    1
    17    17    18    1
    18    18    19    1
    19    12    15    1
    20    15     1    1
    21     1     2    2
    22     1     3   am
    23     3    25    1
    24    25    26   ar
    25    26    27   ar
    26    27    28   ar
    27    28    31    1
    28    31    32    1
    29    31    34    1
    30    34    35    1
    31    34    36    1
    32    34    37    1
    33    31    38    1
    34    38    39    1
    35    38    40    1
    36    38    41    1
    37    28    29   ar
    38    29    30   ar
    39    10     5   ar
    40    19    16    1
    41    30    25   ar
    42    15     8    1
    43     3     4    1
    44    32    33    1
@<TRIPOS>MOLECULE
*****
 41 44 0 0 0
SMALL
GASTEIGER

@<TRIPOS>ATOM
      1 C           4.9352   -1.0534   26.2435 C.2     1  UNL1        0.2485
      2 O           5.6771    0.0689   25.5802 O.2     1  UNL1       -0.2726
      3 N           4.1508   -2.0271   25.4147 N.am    1  UNL1       -0.2823
      4 H           3.6639   -2.7637   25.8500 H       1  UNL1        0.1549
      5 C           3.1225    1.0397   31.1393 C.ar    1  UNL1        0.1054
      6 C           2.8026    1.5481   29.7649 C.ar    1  UNL1        0.0181
      7 C           3.3766    0.8639   28.5597 C.ar    1  UNL1       -0.0011
      8 C           4.2705   -0.3287   28.7290 C.ar    1  UNL1        0.0022
      9 C           4.5904   -0.8370   30.1034 C.ar    1  UNL1       -0.0030
     10 C           4.0164   -0.1528   31.3086 C.ar    1  UNL1        0.0155
     11 C           5.4953   -2.0247   29.9594 C.3     1  UNL1        0.1207
     12 N           5.7346   -2.2503   28.4959 N.am    1  UNL1       -0.2635
     13 C           6.5821   -3.3339   27.8978 C.2     1  UNL1        0.2537
     14 O           6.7287   -3.4354   26.4085 O.2     1  UNL1       -0.2722
     15 C           4.9776   -1.2021   27.7355 C.3     1  UNL1        0.1751
     16 C           7.2829   -4.3160   28.7891 C.3     1  UNL1        0.1935
     17 C           6.8535   -5.4903   29.6177 C.3     1  UNL1        0.0711
     18 C           8.2740   -5.7048   30.0496 C.3     1  UNL1        0.1457
     19 O           8.7032   -4.5304   29.2210 O.3     1  UNL1       -0.3469
     20 S           2.5486    1.7239   32.3445 S.O2    1  UNL1        0.0086
     21 O           3.9341    1.9784   32.8599 O.2     1  UNL1       -0.1686
     22 O           1.1631    1.4695   31.8291 O.2     1  UNL1       -0.1686
     23 C           2.6243    2.2355   34.8906 C.3     1  UNL1        0.0276
     24 C           1.9746    2.4081   33.5497 C.3     1  UNL1        0.1560
     25 C           4.1084   -1.8784   23.9227 C.ar    1  UNL1        0.0503
     26 C           3.1604   -0.9013   23.2930 C.ar    1  UNL1        0.0144
     27 C           3.1180   -0.7526   21.8010 C.ar    1  UNL1       -0.0002
     28 C           4.0236   -1.5810   20.9387 C.ar    1  UNL1        0.0182
     29 C           4.9716   -2.5581   21.5684 C.ar    1  UNL1       -0.0002
     30 C           5.0140   -2.7067   23.0604 C.ar    1  UNL1        0.0144
     31 C           3.9811   -1.4323   19.4467 C.3     1  UNL1        0.2827
     32 O           4.5272   -0.0406   19.5698 O.3     1  UNL1       -0.3692
     33 H           4.6707    0.1687   20.5060 H       1  UNL1        0.2112
     34 C           3.9387   -1.2836   17.9547 C.3     1  UNL1        0.4311
     35 F           3.8963   -1.1349   16.4627 F       1  UNL1       -0.1669
     36 F           2.7156   -0.4237   18.0751 F       1  UNL1       -0.1669
     37 F           4.6525   -1.7769   17.7767 F       1  UNL1       -0.1669
     38 C           3.4351   -2.8239   19.3235 C.3     1  UNL1        0.4311
     39 F           2.8891   -4.2156   19.2003 F       1  UNL1       -0.1669
     40 F           2.6023   -2.6343   19.5582 F       1  UNL1       -0.1669
     41 F           4.6166   -3.6404   18.8905 F       1  UNL1       -0.1669
@<TRIPOS>BOND
     1    23    24    1
     2    24    20    1
     3    20    21    2
     4    20    22    2
     5    20     5    1
     6     5     6   ar
     7     6     7   ar
     8     7     8   ar
     9     8     9   ar
    10     9    10   ar
    11     9    11    1
    12    11    12    1
    13    12    13   am
    14    13    14    2
    15    13    16    1
    16    16    17    1
    17    17    18    1
    18    18    19    1
    19    12    15    1
    20    15     1    1
    21     1     2    2
    22     1     3   am
    23     3    25    1
    24    25    26   ar
    25    26    27   ar
    26    27    28   ar
    27    28    31    1
    28    31    32    1
    29    31    34    1
    30    34    35    1
    31    34    36    1
    32    34    37    1
    33    31    38    1
    34    38    39    1
    35    38    40    1
    36    38    41    1
    37    28    29   ar
    38    29    30   ar
    39    10     5   ar
    40    19    16    1
    41    30    25   ar
    42    15     8    1
    43     3     4    1
    44    32    33    1
@<TRIPOS>MOLECULE
*****
 41 44 0 0 0
SMALL
GASTEIGER

@<TRIPOS>ATOM
      1 C           1.4373    1.3740   24.5153 C.2     1  UNL1        0.2485
      2 O           2.1715    2.3866   23.6874 O.2     1  UNL1       -0.2726
      3 N           1.5899   -0.0887   24.2204 N.am    1  UNL1       -0.2823
      4 H           1.1081   -0.7534   24.7637 H       1  UNL1        0.1549
      5 C          -3.3801    3.9610   25.8332 C.ar    1  UNL1        0.1054
      6 C          -2.8376    3.7061   24.4582 C.ar    1  UNL1        0.0181
      7 C          -1.5269    2.9966   24.2887 C.ar    1  UNL1       -0.0011
      8 C          -0.7587    2.5420   25.4942 C.ar    1  UNL1        0.0022
      9 C          -1.3012    2.7969   26.8692 C.ar    1  UNL1       -0.0030
     10 C          -2.6119    3.5064   27.0387 C.ar    1  UNL1        0.0155
     11 C          -0.3274    2.2366   27.8631 C.3     1  UNL1        0.1207
     12 N           0.8170    1.6353   27.1022 N.am    1  UNL1       -0.2635
     13 C           2.0173    0.9632   27.7004 C.2     1  UNL1        0.2537
     14 O           3.0872    0.4065   26.8087 O.2     1  UNL1       -0.2722
     15 C           0.5504    1.8241   25.6382 C.3     1  UNL1        0.1751
     16 C           2.1476    0.8480   29.1903 C.3     1  UNL1        0.1935
     17 C           2.8351    1.6441   30.2596 C.3     1  UNL1        0.0711
     18 C           2.3318    0.6850   31.2973 C.3     1  UNL1        0.1457
     19 O           1.6443   -0.1111   30.2279 O.3     1  UNL1       -0.3469
     20 S          -4.6908    4.6704   26.0027 S.O2    1  UNL1        0.0086
     21 O          -4.4752    4.7143   27.4865 O.2     1  UNL1       -0.1686
     22 O          -4.9064    4.6266   24.5189 O.2     1  UNL1       -0.1686
     23 C          -6.8598    5.6659   24.9758 C.3     1  UNL1        0.0276
     24 C          -6.0015    5.3799   26.1722 C.3     1  UNL1        0.1560
     25 C           2.4768   -0.5388   23.0975 C.ar    1  UNL1        0.0503
     26 C           3.8132   -1.1510   23.3964 C.ar    1  UNL1        0.0144
     27 C           4.7000   -1.6011   22.2735 C.ar    1  UNL1       -0.0002
     28 C           4.2506   -1.4391   20.8517 C.ar    1  UNL1        0.0182
     29 C           2.9142   -0.8269   20.5527 C.ar    1  UNL1       -0.0002
     30 C           2.0274   -0.3768   21.6756 C.ar    1  UNL1        0.0144
     31 C           5.1374   -1.8892   19.7288 C.3     1  UNL1        0.2827
     32 O           6.1412   -0.8382   20.1003 O.3     1  UNL1       -0.3692
     33 H           5.8168   -0.3373   20.8650 H       1  UNL1        0.2112
     34 C           6.0243   -2.3393   18.6059 C.3     1  UNL1        0.4311
     35 F           6.9111   -2.7894   17.4830 F       1  UNL1       -0.1669
     36 F           5.7349   -1.0663   17.8671 F       1  UNL1       -0.1669
     37 F           6.2577   -3.1177   18.9581 F       1  UNL1       -0.1669
     38 C           4.1337   -2.9401   19.3573 C.3     1  UNL1        0.4311
     39 F           3.1300   -3.9911   18.9858 F       1  UNL1       -0.1669
     40 F           3.8584   -2.5649   18.6037 F       1  UNL1       -0.1669
     41 F           4.2270   -3.9408   20.4708 F       1  UNL1       -0.1669
@<TRIPOS>BOND
     1    23    24    1
     2    24    20    1
     3    20    21    2
     4    20    22    2
     5    20     5    1
     6     5     6   ar
     7     6     7   ar
     8     7     8   ar
     9     8     9   ar
    10     9    10   ar
    11     9    11    1
    12    11    12    1
    13    12    13   am
    14    13    14    2
    15    13    16    1
    16    16    17    1
    17    17    18    1
    18    18    19    1
    19    12    15    1
    20    15     1    1
    21     1     2    2
    22     1     3   am
    23     3    25    1
    24    25    26   ar
    25    26    27   ar
    26    27    28   ar
    27    28    31    1
    28    31    32    1
    29    31    34    1
    30    34    35    1
    31    34    36    1
    32    34    37    1
    33    31    38    1
    34    38    39    1
    35    38    40    1
    36    38    41    1
    37    28    29   ar
    38    29    30   ar
    39    10     5   ar
    40    19    16    1
    41    30    25   ar
    42    15     8    1
    43     3     4    1
    44    32    33    1
@<TRIPOS>MOLECULE
*****
 41 44 0 0 0
SMALL
GASTEIGER

@<TRIPOS>ATOM
      1 C           3.4894    0.0612   26.5456 C.2     1  UNL1        0.2485
      2 O           4.6216    0.9561   26.9548 O.2     1  UNL1       -0.2726
      3 N           2.8124   -0.8056   27.5655 N.am    1  UNL1       -0.2823
      4 H           2.0693   -1.3929   27.2969 H       1  UNL1        0.1549
      5 C           4.2682   -2.3076   21.5039 C.ar    1  UNL1        0.1054
      6 C           5.0144   -2.6094   22.7696 C.ar    1  UNL1        0.0181
      7 C           4.6740   -1.8773   24.0338 C.ar    1  UNL1       -0.0011
      8 C           3.5874   -0.8433   24.0322 C.ar    1  UNL1        0.0022
      9 C           2.8412   -0.5414   22.7665 C.ar    1  UNL1       -0.0030
     10 C           3.1816   -1.2736   21.5024 C.ar    1  UNL1        0.0155
     11 C           1.8269    0.5217   23.0686 C.3     1  UNL1        0.1207
     12 N           1.9463    0.8768   24.5211 N.am    1  UNL1       -0.2635
     13 C           1.1224    1.8966   25.2501 C.2     1  UNL1        0.2537
     14 O           1.3567    2.1450   26.7107 O.2     1  UNL1       -0.2722
     15 C           3.0343    0.0333   25.1166 C.3     1  UNL1        0.1751
     16 C           0.0642    2.6678   24.5184 C.3     1  UNL1        0.1935
     17 C          -1.3592    3.0468   24.8021 C.3     1  UNL1        0.0711
     18 C          -1.4323    3.7586   23.4837 C.3     1  UNL1        0.1457
     19 O          -0.0090    3.3796   23.2002 O.3     1  UNL1       -0.3469
     20 S           4.6086   -3.0397   20.2398 S.O2    1  UNL1        0.0086
     21 O           4.8633   -4.2881   21.0314 O.2     1  UNL1       -0.1686
     22 O           4.3540   -1.7913   19.4482 O.2     1  UNL1       -0.1686
     23 C           4.3936   -5.1434   18.7305 C.3     1  UNL1        0.0276
     24 C           4.9491   -3.7718   18.9756 C.3     1  UNL1        0.1560
     25 C           3.2675   -0.7776   28.9945 C.ar    1  UNL1        0.0503
     26 C           4.6446   -1.2523   29.3525 C.ar    1  UNL1        0.0144
     27 C           5.0997   -1.2243   30.7815 C.ar    1  UNL1       -0.0002
     28 C           4.1777   -0.7216   31.8526 C.ar    1  UNL1        0.0182
     29 C           2.8006   -0.2470   31.4946 C.ar    1  UNL1       -0.0002
     30 C           2.3455   -0.2750   30.0656 C.ar    1  UNL1        0.0144
     31 C           4.6328   -0.6937   33.2816 C.3     1  UNL1        0.2827
     32 O           4.2689    0.7589   33.3690 O.3     1  UNL1       -0.3692
     33 H           3.9130    1.0549   32.5166 H       1  UNL1        0.2112
     34 C           5.0879   -0.6657   34.7106 C.3     1  UNL1        0.4311
     35 F           5.5430   -0.6377   36.1396 F       1  UNL1       -0.1669
     36 F           6.1912    0.2808   34.3407 F       1  UNL1       -0.1669
     37 F           4.4740   -1.2184   35.0303 F       1  UNL1       -0.1669
     38 C           4.9968   -2.1462   33.1941 C.3     1  UNL1        0.4311
     39 F           5.3607   -3.5987   33.1067 F       1  UNL1       -0.1669
     40 F           4.1701   -2.4638   33.1764 F       1  UNL1       -0.1669
     41 F           6.4967   -2.1451   33.1920 F       1  UNL1       -0.1669
@<TRIPOS>BOND
     1    23    24    1
     2    24    20    1
     3    20    21    2
     4    20    22    2
     5    20     5    1
     6     5     6   ar
     7     6     7   ar
     8     7     8   ar
     9     8     9   ar
    10     9    10   ar
    11     9    11    1
    12    11    12    1
    13    12    13   am
    14    13    14    2
    15    13    16    1
    16    16    17    1
    17    17    18    1
    18    18    19    1
    19    12    15    1
    20    15     1    1
    21     1     2    2
    22     1     3   am
    23     3    25    1
    24    25    26   ar
    25    26    27   ar
    26    27    28   ar
    27    28    31    1
    28    31    32    1
    29    31    34    1
    30    34    35    1
    31    34    36    1
    32    34    37    1
    33    31    38    1
    34    38    39    1
    35    38    40    1
    36    38    41    1
    37    28    29   ar
    38    29    30   ar
    39    10     5   ar
    40    19    16    1
    41    30    25   ar
    42    15     8    1
    43     3     4    1
    44    32    33    1
@<TRIPOS>MOLECULE
*****
 41 44 0 0 0
SMALL
GASTEIGER

@<TRIPOS>ATOM
      1 C           5.6584   -1.6158   26.2401 C.2     1  UNL1        0.2485
      2 O           6.5262   -0.5907   25.5723 O.2     1  UNL1       -0.2726
      3 N           4.6167   -2.3478   25.4471 N.am    1  UNL1       -0.2823
      4 H           4.0470   -3.0207   25.8854 H       1  UNL1        0.1549
      5 C           4.4412    0.0855   31.4612 C.ar    1  UNL1        0.1054
      6 C           4.0238    0.7388   30.1771 C.ar    1  UNL1        0.0181
      7 C           4.4404    0.1456   28.8639 C.ar    1  UNL1       -0.0011
      8 C           5.2745   -1.1007   28.8348 C.ar    1  UNL1        0.0022
      9 C           5.6920   -1.7539   30.1189 C.ar    1  UNL1       -0.0030
     10 C           5.2753   -1.1608   31.4321 C.ar    1  UNL1        0.0155
     11 C           6.5078   -2.9659   29.7786 C.3     1  UNL1        0.1207
     12 N           6.5945   -3.0616   28.2842 N.am    1  UNL1       -0.2635
     13 C           7.3166   -4.1237   27.5092 C.2     1  UNL1        0.2537
     14 O           7.3162   -4.0890   26.0096 O.2     1  UNL1       -0.2722
     15 C           5.8323   -1.9089   27.7009 C.3     1  UNL1        0.1751
     16 C           8.0392   -5.2204   28.2338 C.3     1  UNL1        0.1935
     17 C           9.4528   -5.4422   28.6841 C.3     1  UNL1        0.0711
     18 C           9.0611   -6.7714   29.2585 C.3     1  UNL1        0.1457
     19 O           7.6477   -6.5495   28.8081 O.3     1  UNL1       -0.3469
     20 S           4.0246    0.6787   32.7745 S.O2    1  UNL1        0.0086
     21 O           4.5676    2.0095   32.3457 O.2     1  UNL1       -0.1686
     22 O           3.4815   -0.6522   33.2033 O.2     1  UNL1       -0.1686
     23 C           2.4151    2.1786   34.1564 C.3     1  UNL1        0.0276
     24 C           3.6079    1.2718   34.0877 C.3     1  UNL1        0.1560
     25 C           4.4428   -2.0547   23.9863 C.ar    1  UNL1        0.0503
     26 C           3.7790   -0.7821   23.5505 C.ar    1  UNL1        0.0144
     27 C           3.6051   -0.4890   22.0898 C.ar    1  UNL1       -0.0002
     28 C           4.0949   -1.4685   21.0648 C.ar    1  UNL1        0.0182
     29 C           4.7587   -2.7411   21.5006 C.ar    1  UNL1       -0.0002
     30 C           4.9326   -3.0342   22.9613 C.ar    1  UNL1        0.0144
     31 C           3.9210   -1.1754   19.6040 C.3     1  UNL1        0.2827
     32 O           5.4102   -1.1861   19.4246 O.3     1  UNL1       -0.3692
     33 H           5.8372   -1.3671   20.2765 H       1  UNL1        0.2112
     34 C           3.7472   -0.8823   18.1432 C.3     1  UNL1        0.4311
     35 F           3.5733   -0.5892   16.6825 F       1  UNL1       -0.1669
     36 F           4.2835    0.5021   18.3571 F       1  UNL1       -0.1669
     37 F           3.4203   -1.6726   17.9127 F       1  UNL1       -0.1669
     38 C           2.4319   -1.1647   19.7834 C.3     1  UNL1        0.4311
     39 F           0.9427   -1.1540   19.9628 F       1  UNL1       -0.1669
     40 F           2.3366   -2.0300   19.9472 F       1  UNL1       -0.1669
     41 F           2.0517    0.2716   19.5771 F       1  UNL1       -0.1669
@<TRIPOS>BOND
     1    23    24    1
     2    24    20    1
     3    20    21    2
     4    20    22    2
     5    20     5    1
     6     5     6   ar
     7     6     7   ar
     8     7     8   ar
     9     8     9   ar
    10     9    10   ar
    11     9    11    1
    12    11    12    1
    13    12    13   am
    14    13    14    2
    15    13    16    1
    16    16    17    1
    17    17    18    1
    18    18    19    1
    19    12    15    1
    20    15     1    1
    21     1     2    2
    22     1     3   am
    23     3    25    1
    24    25    26   ar
    25    26    27   ar
    26    27    28   ar
    27    28    31    1
    28    31    32    1
    29    31    34    1
    30    34    35    1
    31    34    36    1
    32    34    37    1
    33    31    38    1
    34    38    39    1
    35    38    40    1
    36    38    41    1
    37    28    29   ar
    38    29    30   ar
    39    10     5   ar
    40    19    16    1
    41    30    25   ar
    42    15     8    1
    43     3     4    1
    44    32    33    1
@<TRIPOS>MOLECULE
*****
 41 44 0 0 0
SMALL
GASTEIGER

@<TRIPOS>ATOM
      1 C           3.4384    0.0661   26.1059 C.2     1  UNL1        0.2485
      2 O           4.0735    1.3022   26.6704 O.2     1  UNL1       -0.2726
      3 N           3.1500   -1.1038   26.9993 N.am    1  UNL1       -0.2823
      4 H           2.7331   -1.9151   26.6288 H       1  UNL1        0.1549
      5 C           0.0903    2.0919   22.0658 C.ar    1  UNL1        0.1054
      6 C           0.0916    2.4757   23.5158 C.ar    1  UNL1        0.0181
      7 C           1.0605    1.8302   24.4616 C.ar    1  UNL1       -0.0011
      8 C           2.0280    0.8009   23.9575 C.ar    1  UNL1        0.0022
      9 C           2.0268    0.4171   22.5074 C.ar    1  UNL1       -0.0030
     10 C           1.0579    1.0626   21.5616 C.ar    1  UNL1        0.0155
     11 C           3.0897   -0.6212   22.3018 C.3     1  UNL1        0.1207
     12 N           3.7479   -0.8791   23.6248 N.am    1  UNL1       -0.2635
     13 C           4.8659   -1.8461   23.8798 C.2     1  UNL1        0.2537
     14 O           5.4260   -1.9971   25.2630 O.2     1  UNL1       -0.2722
     15 C           3.0917   -0.0002   24.6480 C.3     1  UNL1        0.1751
     16 C           5.4238   -2.6620   22.7515 C.3     1  UNL1        0.1935
     17 C           6.3033   -2.3770   21.5703 C.3     1  UNL1        0.0711
     18 C           6.2128   -3.8158   21.1558 C.3     1  UNL1        0.1457
     19 O           5.3333   -4.1006   22.3371 O.3     1  UNL1       -0.3469
     20 S          -0.8785    2.7374   21.1199 S.O2    1  UNL1        0.0086
     21 O          -1.6397    3.3000   22.2836 O.2     1  UNL1       -0.1686
     22 O          -0.1173    2.1749   19.9562 O.2     1  UNL1       -0.1686
     23 C          -3.3221    3.2890   20.4312 C.3     1  UNL1        0.0276
     24 C          -1.8474    3.3830   20.1741 C.3     1  UNL1        0.1560
     25 C           3.4967   -1.0376   28.4572 C.ar    1  UNL1        0.0503
     26 C           2.4415   -0.6866   29.4638 C.ar    1  UNL1        0.0144
     27 C           2.7881   -0.6203   30.9217 C.ar    1  UNL1       -0.0002
     28 C           4.1900   -0.9051   31.3730 C.ar    1  UNL1        0.0182
     29 C           5.2452   -1.2561   30.3664 C.ar    1  UNL1       -0.0002
     30 C           4.8985   -1.3223   28.9085 C.ar    1  UNL1        0.0144
     31 C           4.5366   -0.8388   32.8309 C.3     1  UNL1        0.2827
     32 O           4.0318    0.5725   32.8868 O.3     1  UNL1       -0.3692
     33 H           3.7116    0.8364   32.0100 H       1  UNL1        0.2112
     34 C           4.8833   -0.7726   34.2888 C.3     1  UNL1        0.4311
     35 F           5.2300   -0.7064   35.7466 F       1  UNL1       -0.1669
     36 F           5.9146    0.2765   33.9959 F       1  UNL1       -0.1669
     37 F           4.3038   -1.3827   34.5654 F       1  UNL1       -0.1669
     38 C           5.0414   -2.2502   32.7750 C.3     1  UNL1        0.4311
     39 F           5.5463   -3.6616   32.7191 F       1  UNL1       -0.1669
     40 F           4.2595   -2.6388   32.6262 F       1  UNL1       -0.1669
     41 F           6.5183   -2.1167   33.0011 F       1  UNL1       -0.1669
@<TRIPOS>BOND
     1    23    24    1
     2    24    20    1
     3    20    21    2
     4    20    22    2
     5    20     5    1
     6     5     6   ar
     7     6     7   ar
     8     7     8   ar
     9     8     9   ar
    10     9    10   ar
    11     9    11    1
    12    11    12    1
    13    12    13   am
    14    13    14    2
    15    13    16    1
    16    16    17    1
    17    17    18    1
    18    18    19    1
    19    12    15    1
    20    15     1    1
    21     1     2    2
    22     1     3   am
    23     3    25    1
    24    25    26   ar
    25    26    27   ar
    26    27    28   ar
    27    28    31    1
    28    31    32    1
    29    31    34    1
    30    34    35    1
    31    34    36    1
    32    34    37    1
    33    31    38    1
    34    38    39    1
    35    38    40    1
    36    38    41    1
    37    28    29   ar
    38    29    30   ar
    39    10     5   ar
    40    19    16    1
    41    30    25   ar
    42    15     8    1
    43     3     4    1
    44    32    33    1
@<TRIPOS>MOLECULE
*****
 41 44 0 0 0
SMALL
GASTEIGER

@<TRIPOS>ATOM
      1 C           2.0918    1.4112   25.2060 C.2     1  UNL1        0.2485
      2 O           3.3271    2.1548   24.7926 O.2     1  UNL1       -0.2726
      3 N           1.6768    0.1754   24.4641 N.am    1  UNL1       -0.2823
      4 H           0.8660   -0.3127   24.7354 H       1  UNL1        0.1549
      5 C           1.8952    2.0192   30.7942 C.ar    1  UNL1        0.1054
      6 C           3.0100    1.4209   29.9886 C.ar    1  UNL1        0.0181
      7 C           2.8951    1.3371   28.4953 C.ar    1  UNL1       -0.0011
      8 C           1.6653    1.8517   27.8077 C.ar    1  UNL1        0.0022
      9 C           0.5505    2.4501   28.6134 C.ar    1  UNL1       -0.0030
     10 C           0.6655    2.5338   30.1067 C.ar    1  UNL1        0.0155
     11 C          -0.5325    2.8716   27.6649 C.3     1  UNL1        0.1207
     12 N          -0.0869    2.5337   26.2730 N.am    1  UNL1       -0.2635
     13 C          -0.8633    2.7825   25.0139 C.2     1  UNL1        0.2537
     14 O          -0.2860    2.3887   23.6866 O.2     1  UNL1       -0.2722
     15 C           1.2714    1.9034   26.3613 C.3     1  UNL1        0.1751
     16 C          -2.2170    3.4251   25.0821 C.3     1  UNL1        0.1935
     17 C          -3.3476    3.6217   24.1161 C.3     1  UNL1        0.0711
     18 C          -4.1314    4.3338   25.1785 C.3     1  UNL1        0.1457
     19 O          -3.0007    4.1371   26.1444 O.3     1  UNL1       -0.3469
     20 S           2.0102    2.1029   32.2875 S.O2    1  UNL1        0.0086
     21 O           2.9578    0.9402   32.2797 O.2     1  UNL1       -0.1686
     22 O           1.0625    3.2657   32.2952 O.2     1  UNL1       -0.1686
     23 C           3.3307    1.6232   34.4729 C.3     1  UNL1        0.0276
     24 C           2.1252    2.1867   33.7807 C.3     1  UNL1        0.1560
     25 C           2.4972   -0.3168   23.3088 C.ar    1  UNL1        0.0503
     26 C           3.7456   -1.1098   23.5593 C.ar    1  UNL1        0.0144
     27 C           4.5659   -1.6020   22.4040 C.ar    1  UNL1       -0.0002
     28 C           4.1380   -1.3013   20.9982 C.ar    1  UNL1        0.0182
     29 C           2.8896   -0.5083   20.7477 C.ar    1  UNL1       -0.0002
     30 C           2.0692   -0.0161   21.9030 C.ar    1  UNL1        0.0144
     31 C           4.9583   -1.7935   19.8429 C.3     1  UNL1        0.2827
     32 O           5.9909   -0.7437   20.1289 O.3     1  UNL1       -0.3692
     33 H           5.7133   -0.2173   20.8949 H       1  UNL1        0.2112
     34 C           5.7787   -2.2857   18.6876 C.3     1  UNL1        0.4311
     35 F           6.5990   -2.7779   17.5323 F       1  UNL1       -0.1669
     36 F           5.4077   -1.0623   17.9030 F       1  UNL1       -0.1669
     37 F           6.0551   -3.0381   19.0643 F       1  UNL1       -0.1669
     38 C           3.9258   -2.8432   19.5569 C.3     1  UNL1        0.4311
     39 F           2.8932   -3.8930   19.2710 F       1  UNL1       -0.1669
     40 F           3.5761   -2.4583   18.8399 F       1  UNL1       -0.1669
     41 F           4.1317   -3.8596   20.6407 F       1  UNL1       -0.1669
@<TRIPOS>BOND
     1    23    24    1
     2    24    20    1
     3    20    21    2
     4    20    22    2
     5    20     5    1
     6     5     6   ar
     7     6     7   ar
     8     7     8   ar
     9     8     9   ar
    10     9    10   ar
    11     9    11    1
    12    11    12    1
    13    12    13   am
    14    13    14    2
    15    13    16    1
    16    16    17    1
    17    17    18    1
    18    18    19    1
    19    12    15    1
    20    15     1    1
    21     1     2    2
    22     1     3   am
    23     3    25    1
    24    25    26   ar
    25    26    27   ar
    26    27    28   ar
    27    28    31    1
    28    31    32    1
    29    31    34    1
    30    34    35    1
    31    34    36    1
    32    34    37    1
    33    31    38    1
    34    38    39    1
    35    38    40    1
    36    38    41    1
    37    28    29   ar
    38    29    30   ar
    39    10     5   ar
    40    19    16    1
    41    30    25   ar
    42    15     8    1
    43     3     4    1
    44    32    33    1
@<TRIPOS>MOLECULE
*****
 41 44 0 0 0
SMALL
GASTEIGER

@<TRIPOS>ATOM
      1 C          -0.0451    2.8412   20.9166 C.2     1  UNL1        0.2485
      2 O          -1.4285    2.3275   20.6478 O.2     1  UNL1       -0.2726
      3 N           0.2177    3.6913   22.1242 N.am    1  UNL1       -0.2823
      4 H           1.1256    4.0285   22.3007 H       1  UNL1        0.1549
      5 C           3.3990   -1.2250   19.1164 C.ar    1  UNL1        0.1054
      6 C           2.3332   -1.3415   20.1654 C.ar    1  UNL1        0.0181
      7 C           1.5007   -0.1467   20.5248 C.ar    1  UNL1       -0.0011
      8 C           1.7339    1.1648   19.8351 C.ar    1  UNL1        0.0022
      9 C           2.7997    1.2813   18.7861 C.ar    1  UNL1       -0.0030
     10 C           3.6323    0.0865   18.4268 C.ar    1  UNL1        0.0155
     11 C           2.8000    2.6936   18.2805 C.3     1  UNL1        0.1207
     12 N           1.7344    3.4498   19.0171 N.am    1  UNL1       -0.2635
     13 C           1.3883    4.8969   18.8263 C.2     1  UNL1        0.2537
     14 O           0.2923    5.5194   19.6394 O.2     1  UNL1       -0.2722
     15 C           1.0755    2.5050   19.9779 C.3     1  UNL1        0.1751
     16 C           2.1383    5.7214   17.8225 C.3     1  UNL1        0.1935
     17 C           3.3508    6.6034   17.8680 C.3     1  UNL1        0.0711
     18 C           3.1990    6.8874   16.4029 C.3     1  UNL1        0.1457
     19 O           1.9866    6.0054   16.3576 O.3     1  UNL1       -0.3469
     20 S           4.2316   -2.4198   18.7571 S.O2    1  UNL1        0.0086
     21 O           4.6788   -1.7308   17.5021 O.2     1  UNL1       -0.1686
     22 O           3.7843   -3.1089   20.0122 O.2     1  UNL1       -0.1686
     23 C           4.6003   -4.9916   18.7706 C.3     1  UNL1        0.0276
     24 C           5.0642   -3.6147   18.3978 C.3     1  UNL1        0.1560
     25 C          -0.9029    4.0275   23.0629 C.ar    1  UNL1        0.0503
     26 C          -1.1373    3.1866   24.2828 C.ar    1  UNL1        0.0144
     27 C          -2.2579    3.5229   25.2215 C.ar    1  UNL1       -0.0002
     28 C          -3.1441    4.7000   24.9405 C.ar    1  UNL1        0.0182
     29 C          -2.9097    5.5409   23.7207 C.ar    1  UNL1       -0.0002
     30 C          -1.7891    5.2046   22.7819 C.ar    1  UNL1        0.0144
     31 C          -4.2646    5.0363   25.8792 C.3     1  UNL1        0.2827
     32 O          -3.2869    5.6843   26.8142 O.3     1  UNL1       -0.3692
     33 H          -2.3930    5.6190   26.4434 H       1  UNL1        0.2112
     34 C          -5.3852    5.3725   26.8180 C.3     1  UNL1        0.4311
     35 F          -6.5058    5.7088   27.7567 F       1  UNL1       -0.1669
     36 F          -4.9897    4.2261   27.7007 F       1  UNL1       -0.1669
     37 F          -5.6976    6.0686   26.3681 F       1  UNL1       -0.1669
     38 C          -5.2423    4.3882   24.9443 C.3     1  UNL1        0.4311
     39 F          -6.2200    3.7401   24.0094 F       1  UNL1       -0.1669
     40 F          -5.1561    3.5625   25.2532 F       1  UNL1       -0.1669
     41 F          -5.7382    5.5210   24.0953 F       1  UNL1       -0.1669
@<TRIPOS>BOND
     1    23    24    1
     2    24    20    1
     3    20    21    2
     4    20    22    2
     5    20     5    1
     6     5     6   ar
     7     6     7   ar
     8     7     8   ar
     9     8     9   ar
    10     9    10   ar
    11     9    11    1
    12    11    12    1
    13    12    13   am
    14    13    14    2
    15    13    16    1
    16    16    17    1
    17    17    18    1
    18    18    19    1
    19    12    15    1
    20    15     1    1
    21     1     2    2
    22     1     3   am
    23     3    25    1
    24    25    26   ar
    25    26    27   ar
    26    27    28   ar
    27    28    31    1
    28    31    32    1
    29    31    34    1
    30    34    35    1
    31    34    36    1
    32    34    37    1
    33    31    38    1
    34    38    39    1
    35    38    40    1
    36    38    41    1
    37    28    29   ar
    38    29    30   ar
    39    10     5   ar
    40    19    16    1
    41    30    25   ar
    42    15     8    1
    43     3     4    1
    44    32    33    1
