@<TRIPOS>MOLECULE
*****
 36 39 0 0 0
SMALL
GASTEIGER

@<TRIPOS>ATOM
      1 C          -7.1603  -19.7135   20.8702 C.ar    1  UNL1        0.1534
      2 C          -8.4847  -19.4561   20.2148 C.ar    1  UNL1        0.0351
      3 C          -9.7516  -19.5868   21.0072 C.ar    1  UNL1        0.0722
      4 CL        -11.0761  -19.3294   20.3518 Cl      1  UNL1       -0.0809
      5 C          -9.6940  -19.9750   22.4549 C.ar    1  UNL1        0.0577
      6 C          -8.3696  -20.2323   23.1104 C.ar    1  UNL1        0.0462
      7 C          -7.1027  -20.1016   22.3180 C.ar    1  UNL1        0.1602
      8 F          -5.7782  -20.3590   22.9734 F       1  UNL1       -0.2027
      9 O          -5.7715  -21.0769   20.0261 O.2     1  UNL1       -0.1498
     10 S          -5.8933  -19.5827   20.0779 S.O2    1  UNL1        0.0772
     11 O          -6.0151  -18.0886   20.1296 O.2     1  UNL1       -0.1498
     12 N          -4.6264  -19.4521   19.2855 N.pl3   1  UNL1       -0.1936
     13 H          -4.6137  -19.7006   18.3330 H       1  UNL1        0.1758
     14 C          -3.3788  -18.9427   19.9445 C.ar    1  UNL1        0.1807
     15 N          -2.9721  -19.1839   21.3680 N.ar    1  UNL1       -0.2190
     16 C          -1.6609  -18.4929   21.5988 C.ar    1  UNL1        0.1372
     17 C          -1.2572  -17.8247   20.3180 C.ar    1  UNL1        0.1915
     18 F          -0.0107  -17.0198   20.0982 F       1  UNL1       -0.1953
     19 S          -2.3190  -18.1027   19.2955 S.2     1  UNL1       -0.0209
     20 N         -10.9610  -20.1057   23.2473 N.pl3   1  UNL1       -0.3306
     21 H         -11.4974  -20.9289   23.1857 H       1  UNL1        0.1469
     22 C         -11.4107  -18.9821   24.1335 C.3     1  UNL1        0.1075
     23 C         -10.4001  -18.0517   24.7362 C.3     1  UNL1        0.0963
     24 N          -9.7830  -18.3736   26.0650 N.3     1  UNL1       -0.2935
     25 C          -8.7725  -17.4432   26.6676 C.3     1  UNL1        0.0735
     26 C          -8.3791  -16.1910   25.9415 C.3     1  UNL1        0.0428
     27 C          -8.9962  -15.8692   24.6127 C.2     1  UNL1       -0.0276
     28 C         -10.0067  -16.7995   24.0101 C.2     1  UNL1       -0.0106
     29 H          -9.3262  -19.2801   25.9656 H       1  UNL1        0.1236
     30 C         -10.6238  -16.4778   22.6813 C.ar    1  UNL1       -0.0028
     31 C         -12.1066  -16.6037   22.4928 C.ar    1  UNL1        0.0020
     32 C         -12.7237  -16.2819   21.1641 C.ar    1  UNL1        0.0296
     33 C         -11.8581  -15.8342   20.0238 C.ar    1  UNL1        0.1401
     34 F         -12.4752  -15.5124   18.6950 F       1  UNL1       -0.2042
     35 C         -10.3753  -15.7083   20.2122 C.ar    1  UNL1        0.0296
     36 C          -9.7582  -16.0301   21.5410 C.ar    1  UNL1        0.0020
@<TRIPOS>BOND
     1     9    10    2
     2    10    11    2
     3    10    12    1
     4    12    14    1
     5    14    15   ar
     6    15    16   ar
     7    16    17   ar
     8    17    18    1
     9    17    19   ar
    10    10     1    1
    11     1     2   ar
    12     2     3   ar
    13     3     4    1
    14     3     5   ar
    15     5    20    1
    16    20    22    1
    17    23    22    1
    18    23    24    1
    19    24    25    1
    20    25    26    1
    21    26    27    1
    22    27    28    2
    23    28    30    1
    24    30    31   ar
    25    31    32   ar
    26    32    33   ar
    27    33    34    1
    28    33    35   ar
    29    35    36   ar
    30     5     6   ar
    31     6     7   ar
    32     7     8    1
    33    19    14   ar
    34     7     1   ar
    35    28    23    1
    36    36    30   ar
    37    12    13    1
    38    20    21    1
    39    24    29    1
@<TRIPOS>MOLECULE
*****
 36 39 0 0 0
SMALL
GASTEIGER

@<TRIPOS>ATOM
      1 C          -6.1628  -19.5575   20.5399 C.ar    1  UNL1        0.1534
      2 C          -7.3682  -19.7026   19.6590 C.ar    1  UNL1        0.0351
      3 C          -8.7382  -19.7643   20.2668 C.ar    1  UNL1        0.0722
      4 CL         -9.9436  -19.9094   19.3859 Cl      1  UNL1       -0.0809
      5 C          -8.9027  -19.6809   21.7554 C.ar    1  UNL1        0.0577
      6 C          -7.6974  -19.5358   22.6363 C.ar    1  UNL1        0.0462
      7 C          -6.3274  -19.4741   22.0285 C.ar    1  UNL1        0.1602
      8 F          -5.1220  -19.3290   22.9094 F       1  UNL1       -0.2027
      9 O          -4.4421  -20.7969   20.5909 O.2     1  UNL1       -0.1498
     10 S          -4.7928  -19.4958   19.9322 S.O2    1  UNL1        0.0772
     11 O          -5.1435  -18.1946   19.2735 O.2     1  UNL1       -0.1498
     12 N          -3.4228  -19.4341   19.3245 N.pl3   1  UNL1       -0.1936
     13 H          -3.1801  -20.0483   18.5945 H       1  UNL1        0.1758
     14 C          -2.4227  -18.4365   19.8292 C.ar    1  UNL1        0.1807
     15 N          -2.6957  -17.3308   20.8054 N.ar    1  UNL1       -0.2190
     16 C          -1.4157  -16.5805   21.0258 C.ar    1  UNL1        0.1372
     17 C          -0.3515  -17.2226   20.1859 C.ar    1  UNL1        0.1915
     18 F           1.0831  -16.7929   20.1005 F       1  UNL1       -0.1953
     19 S          -0.9739  -18.3697   19.4463 S.2     1  UNL1       -0.0209
     20 N         -10.2728  -19.7426   22.3631 N.pl3   1  UNL1       -0.3306
     21 H         -10.6669  -20.6128   22.6013 H       1  UNL1        0.1469
     22 C         -11.0423  -18.4786   22.6078 C.3     1  UNL1        0.1075
     23 C         -11.0957  -17.4162   21.5501 C.3     1  UNL1        0.0963
     24 N         -12.0739  -17.5326   20.4190 N.3     1  UNL1       -0.2935
     25 C         -12.1272  -16.4703   19.3613 C.3     1  UNL1        0.0735
     26 C         -11.2023  -15.2916   19.4349 C.3     1  UNL1        0.0428
     27 C         -10.2241  -15.1753   20.5661 C.2     1  UNL1       -0.0276
     28 C         -10.1708  -16.2376   21.6237 C.2     1  UNL1       -0.0106
     29 H         -13.0032  -17.5789   20.8369 H       1  UNL1        0.1236
     30 C          -9.1926  -16.1213   22.7549 C.ar    1  UNL1       -0.0028
     31 C          -9.6731  -16.2046   24.1734 C.ar    1  UNL1        0.0020
     32 C          -8.6949  -16.0883   25.3047 C.ar    1  UNL1        0.0296
     33 C          -7.2362  -15.8887   25.0174 C.ar    1  UNL1        0.1401
     34 F          -6.2581  -15.7724   26.1486 F       1  UNL1       -0.2042
     35 C          -6.7558  -15.8054   23.5989 C.ar    1  UNL1        0.0296
     36 C          -7.7340  -15.9217   22.4676 C.ar    1  UNL1        0.0020
@<TRIPOS>BOND
     1     9    10    2
     2    10    11    2
     3    10    12    1
     4    12    14    1
     5    14    15   ar
     6    15    16   ar
     7    16    17   ar
     8    17    18    1
     9    17    19   ar
    10    10     1    1
    11     1     2   ar
    12     2     3   ar
    13     3     4    1
    14     3     5   ar
    15     5    20    1
    16    20    22    1
    17    23    22    1
    18    23    24    1
    19    24    25    1
    20    25    26    1
    21    26    27    1
    22    27    28    2
    23    28    30    1
    24    30    31   ar
    25    31    32   ar
    26    32    33   ar
    27    33    34    1
    28    33    35   ar
    29    35    36   ar
    30     5     6   ar
    31     6     7   ar
    32     7     8    1
    33    19    14   ar
    34     7     1   ar
    35    28    23    1
    36    36    30   ar
    37    12    13    1
    38    20    21    1
    39    24    29    1
@<TRIPOS>MOLECULE
*****
 36 39 0 0 0
SMALL
GASTEIGER

@<TRIPOS>ATOM
      1 C          -7.1598  -19.8475   20.8865 C.ar    1  UNL1        0.1534
      2 C          -7.4143  -19.9281   22.3625 C.ar    1  UNL1        0.0351
      3 C          -8.7994  -19.7156   22.8975 C.ar    1  UNL1        0.0722
      4 CL         -9.0539  -19.7962   24.3736 Cl      1  UNL1       -0.0809
      5 C          -9.9301  -19.4224   21.9564 C.ar    1  UNL1        0.0577
      6 C          -9.6756  -19.3418   20.4804 C.ar    1  UNL1        0.0462
      7 C          -8.2905  -19.5543   19.9454 C.ar    1  UNL1        0.1602
      8 F          -8.0360  -19.4737   18.4693 F       1  UNL1       -0.2027
      9 O          -5.6108  -18.5781   20.1871 O.2     1  UNL1       -0.1498
     10 S          -5.7746  -20.0600   20.3515 S.O2    1  UNL1        0.0772
     11 O          -5.9384  -21.5419   20.5158 O.2     1  UNL1       -0.1498
     12 N          -4.3895  -20.2724   19.8165 N.pl3   1  UNL1       -0.1936
     13 H          -4.2340  -20.9294   19.0999 H       1  UNL1        0.1758
     14 C          -3.2413  -19.4839   20.3732 C.ar    1  UNL1        0.1807
     15 N          -2.8289  -19.4245   21.8142 N.ar    1  UNL1       -0.2190
     16 C          -1.6366  -18.5203   21.9182 C.ar    1  UNL1        0.1372
     17 C          -1.3122  -18.0207   20.5415 C.ar    1  UNL1        0.1915
     18 F          -0.1926  -17.0892   20.1827 F       1  UNL1       -0.1953
     19 S          -2.3039  -18.6164   19.5866 S.2     1  UNL1       -0.0209
     20 N         -11.3152  -19.2099   22.4914 N.pl3   1  UNL1       -0.3306
     21 H         -11.8357  -19.9748   22.8280 H       1  UNL1        0.1469
     22 C         -11.9074  -17.8319   22.5136 C.3     1  UNL1        0.1075
     23 C         -11.6544  -16.8884   21.3753 C.3     1  UNL1        0.0963
     24 N         -12.6122  -16.8300   20.2224 N.3     1  UNL1       -0.2935
     25 C         -12.3592  -15.8865   19.0842 C.3     1  UNL1        0.0735
     26 C         -11.1482  -15.0014   19.0987 C.3     1  UNL1        0.0428
     27 C         -10.1904  -15.0598   20.2516 C.2     1  UNL1       -0.0276
     28 C         -10.4435  -16.0033   21.3898 C.2     1  UNL1       -0.0106
     29 H         -13.5241  -16.5868   20.6093 H       1  UNL1        0.1236
     30 C          -9.4856  -16.0617   22.5427 C.ar    1  UNL1       -0.0028
     31 C          -8.0146  -16.2092   22.2889 C.ar    1  UNL1        0.0020
     32 C          -7.0567  -16.2677   23.4417 C.ar    1  UNL1        0.0296
     33 C          -7.5698  -16.1786   24.8485 C.ar    1  UNL1        0.1401
     34 F          -6.6120  -16.2370   26.0013 F       1  UNL1       -0.2042
     35 C          -9.0408  -16.0311   25.1023 C.ar    1  UNL1        0.0296
     36 C          -9.9987  -15.9727   23.9494 C.ar    1  UNL1        0.0020
@<TRIPOS>BOND
     1     9    10    2
     2    10    11    2
     3    10    12    1
     4    12    14    1
     5    14    15   ar
     6    15    16   ar
     7    16    17   ar
     8    17    18    1
     9    17    19   ar
    10    10     1    1
    11     1     2   ar
    12     2     3   ar
    13     3     4    1
    14     3     5   ar
    15     5    20    1
    16    20    22    1
    17    23    22    1
    18    23    24    1
    19    24    25    1
    20    25    26    1
    21    26    27    1
    22    27    28    2
    23    28    30    1
    24    30    31   ar
    25    31    32   ar
    26    32    33   ar
    27    33    34    1
    28    33    35   ar
    29    35    36   ar
    30     5     6   ar
    31     6     7   ar
    32     7     8    1
    33    19    14   ar
    34     7     1   ar
    35    28    23    1
    36    36    30   ar
    37    12    13    1
    38    20    21    1
    39    24    29    1
@<TRIPOS>MOLECULE
*****
 36 39 0 0 0
SMALL
GASTEIGER

@<TRIPOS>ATOM
      1 C          -4.9164  -17.6338   23.0717 C.ar    1  UNL1        0.1534
      2 C          -4.8366  -16.6824   24.2286 C.ar    1  UNL1        0.0351
      3 C          -6.0767  -16.0008   24.7260 C.ar    1  UNL1        0.0722
      4 CL         -5.9969  -15.0494   25.8830 Cl      1  UNL1       -0.0809
      5 C          -7.3966  -16.2706   24.0665 C.ar    1  UNL1        0.0577
      6 C          -7.4765  -17.2220   22.9096 C.ar    1  UNL1        0.0462
      7 C          -6.2363  -17.9036   22.4122 C.ar    1  UNL1        0.1602
      8 F          -6.3161  -18.8550   21.2553 F       1  UNL1       -0.2027
      9 O          -4.3120  -19.6516   22.8202 O.2     1  UNL1       -0.1498
     10 S          -3.6762  -18.3155   22.5743 S.O2    1  UNL1        0.0772
     11 O          -3.0404  -16.9794   22.3284 O.2     1  UNL1       -0.1498
     12 N          -2.4361  -18.9971   22.0768 N.pl3   1  UNL1       -0.1936
     13 H          -2.0490  -19.7465   22.5845 H       1  UNL1        0.1758
     14 C          -1.7858  -18.5369   20.8058 C.ar    1  UNL1        0.1807
     15 N          -0.3280  -18.2362   20.6200 N.ar    1  UNL1       -0.2190
     16 C          -0.1204  -17.8102   19.1969 C.ar    1  UNL1        0.1372
     17 C          -1.4498  -17.8475   18.5031 C.ar    1  UNL1        0.1915
     18 F          -1.7051  -17.4972   17.0671 F       1  UNL1       -0.1953
     19 S          -2.4791  -18.2967   19.4976 S.2     1  UNL1       -0.0209
     20 N          -8.6368  -15.5890   24.5640 N.pl3   1  UNL1       -0.3306
     21 H          -8.5705  -14.7220   25.0258 H       1  UNL1        0.1469
     22 C          -9.9780  -16.2282   24.3578 C.3     1  UNL1        0.1075
     23 C         -10.1006  -17.7230   24.3333 C.3     1  UNL1        0.0963
     24 N          -9.6599  -18.5312   25.5176 N.3     1  UNL1       -0.2935
     25 C          -9.7826  -20.0260   25.4931 C.3     1  UNL1        0.0735
     26 C         -10.3459  -20.7125   24.2842 C.3     1  UNL1        0.0428
     27 C         -10.7865  -19.9043   23.0999 C.2     1  UNL1       -0.0276
     28 C         -10.6639  -18.4096   23.1245 C.2     1  UNL1       -0.0106
     29 H         -10.2039  -18.2042   26.3161 H       1  UNL1        0.1236
     30 C         -11.1046  -17.6013   21.9401 C.ar    1  UNL1       -0.0028
     31 C         -10.3486  -17.6911   20.6477 C.ar    1  UNL1        0.0020
     32 C         -10.7892  -16.8829   19.4634 C.ar    1  UNL1        0.0296
     33 C         -11.9859  -15.9848   19.5715 C.ar    1  UNL1        0.1401
     34 F         -12.4265  -15.1766   18.3872 F       1  UNL1       -0.2042
     35 C         -12.7419  -15.8951   20.8639 C.ar    1  UNL1        0.0296
     36 C         -12.3012  -16.7034   22.0483 C.ar    1  UNL1        0.0020
@<TRIPOS>BOND
     1     9    10    2
     2    10    11    2
     3    10    12    1
     4    12    14    1
     5    14    15   ar
     6    15    16   ar
     7    16    17   ar
     8    17    18    1
     9    17    19   ar
    10    10     1    1
    11     1     2   ar
    12     2     3   ar
    13     3     4    1
    14     3     5   ar
    15     5    20    1
    16    20    22    1
    17    23    22    1
    18    23    24    1
    19    24    25    1
    20    25    26    1
    21    26    27    1
    22    27    28    2
    23    28    30    1
    24    30    31   ar
    25    31    32   ar
    26    32    33   ar
    27    33    34    1
    28    33    35   ar
    29    35    36   ar
    30     5     6   ar
    31     6     7   ar
    32     7     8    1
    33    19    14   ar
    34     7     1   ar
    35    28    23    1
    36    36    30   ar
    37    12    13    1
    38    20    21    1
    39    24    29    1
@<TRIPOS>MOLECULE
*****
 36 39 0 0 0
SMALL
GASTEIGER

@<TRIPOS>ATOM
      1 C          -8.5717  -18.5624   21.4900 C.ar    1  UNL1        0.1534
      2 C          -8.2705  -19.5806   20.4305 C.ar    1  UNL1        0.0351
      3 C          -6.8854  -20.1415   20.3015 C.ar    1  UNL1        0.0722
      4 CL         -6.5841  -21.1597   19.2419 Cl      1  UNL1       -0.0809
      5 C          -5.8014  -19.6841   21.2320 C.ar    1  UNL1        0.0577
      6 C          -6.1025  -18.6660   22.2915 C.ar    1  UNL1        0.0462
      7 C          -7.4877  -18.1051   22.4205 C.ar    1  UNL1        0.1602
      8 F          -7.7890  -17.0869   23.4800 F       1  UNL1       -0.2027
      9 O         -10.4791  -19.3677   21.9519 O.2     1  UNL1       -0.1498
     10 S          -9.9569  -18.0015   21.6190 S.O2    1  UNL1        0.0772
     11 O          -9.4348  -16.6353   21.2862 O.2     1  UNL1       -0.1498
     12 N         -11.3421  -17.4407   21.7481 N.pl3   1  UNL1       -0.1936
     13 H         -11.6773  -16.7986   21.0813 H       1  UNL1        0.1758
     14 C         -12.2167  -17.8582   22.8931 C.ar    1  UNL1        0.1807
     15 N         -11.7457  -18.2960   24.2483 N.ar    1  UNL1       -0.2190
     16 C         -12.9536  -18.6195   25.0766 C.ar    1  UNL1        0.1372
     17 C         -14.1712  -18.3816   24.2334 C.ar    1  UNL1        0.1915
     18 F         -15.5944  -18.5794   24.6641 F       1  UNL1       -0.1953
     19 S         -13.7157  -17.9110   22.8839 S.2     1  UNL1       -0.0209
     20 N          -4.4161  -20.2451   21.1029 N.pl3   1  UNL1       -0.3306
     21 H          -4.2367  -20.9709   20.4625 H       1  UNL1        0.1469
     22 C          -3.3044  -19.7000   21.9496 C.3     1  UNL1        0.1075
     23 C          -2.3459  -18.6992   21.3755 C.3     1  UNL1        0.0963
     24 N          -1.4040  -19.1050   20.2809 N.3     1  UNL1       -0.2935
     25 C          -0.4455  -18.1042   19.7068 C.3     1  UNL1        0.0735
     26 C          -0.4289  -16.6975   20.2273 C.3     1  UNL1        0.0428
     27 C          -1.3708  -16.2916   21.3218 C.2     1  UNL1       -0.0276
     28 C          -2.3293  -17.2924   21.8959 C.2     1  UNL1       -0.0106
     29 H          -1.9783  -19.4400   19.5074 H       1  UNL1        0.1236
     30 C          -3.2712  -16.8866   22.9905 C.ar    1  UNL1       -0.0028
     31 C          -4.1576  -15.6898   22.8117 C.ar    1  UNL1        0.0020
     32 C          -5.0996  -15.2839   23.9062 C.ar    1  UNL1        0.0296
     33 C          -5.1551  -16.0748   25.1796 C.ar    1  UNL1        0.1401
     34 F          -6.0971  -15.6690   26.2741 F       1  UNL1       -0.2042
     35 C          -4.2687  -17.2717   25.3584 C.ar    1  UNL1        0.0296
     36 C          -3.3268  -17.6775   24.2638 C.ar    1  UNL1        0.0020
@<TRIPOS>BOND
     1     9    10    2
     2    10    11    2
     3    10    12    1
     4    12    14    1
     5    14    15   ar
     6    15    16   ar
     7    16    17   ar
     8    17    18    1
     9    17    19   ar
    10    10     1    1
    11     1     2   ar
    12     2     3   ar
    13     3     4    1
    14     3     5   ar
    15     5    20    1
    16    20    22    1
    17    23    22    1
    18    23    24    1
    19    24    25    1
    20    25    26    1
    21    26    27    1
    22    27    28    2
    23    28    30    1
    24    30    31   ar
    25    31    32   ar
    26    32    33   ar
    27    33    34    1
    28    33    35   ar
    29    35    36   ar
    30     5     6   ar
    31     6     7   ar
    32     7     8    1
    33    19    14   ar
    34     7     1   ar
    35    28    23    1
    36    36    30   ar
    37    12    13    1
    38    20    21    1
    39    24    29    1
@<TRIPOS>MOLECULE
*****
 36 39 0 0 0
SMALL
GASTEIGER

@<TRIPOS>ATOM
      1 C           1.0551    2.6481   31.6676 C.ar    1  UNL1        0.1534
      2 C           0.4653    3.9654   32.0760 C.ar    1  UNL1        0.0351
      3 C           0.7624    4.5318   33.4328 C.ar    1  UNL1        0.0722
      4 CL          0.1727    5.8492   33.8413 Cl      1  UNL1       -0.0809
      5 C           1.6493    3.7808   34.3812 C.ar    1  UNL1        0.0577
      6 C           2.2391    2.4635   33.9728 C.ar    1  UNL1        0.0462
      7 C           1.9420    1.8972   32.6160 C.ar    1  UNL1        0.1602
      8 F           2.5317    0.5798   32.2076 F       1  UNL1       -0.2027
      9 O           1.8669    2.9042   29.7246 O.2     1  UNL1       -0.1498
     10 S           0.7579    2.0817   30.3108 S.O2    1  UNL1        0.0772
     11 O          -0.3510    1.2592   30.8969 O.2     1  UNL1       -0.1498
     12 N           0.4609    1.5154   28.9540 N.pl3   1  UNL1       -0.1936
     13 H          -0.4320    1.6329   28.5562 H       1  UNL1        0.1758
     14 C           1.5242    0.7699   28.2032 C.ar    1  UNL1        0.1807
     15 N           2.0381    1.1068   26.8348 N.ar    1  UNL1       -0.2190
     16 C           3.0917    0.1017   26.4749 C.ar    1  UNL1        0.1372
     17 C           3.2291   -0.8565   27.6209 C.ar    1  UNL1        0.1915
     18 F           4.1700   -2.0227   27.6870 F       1  UNL1       -0.1953
     19 S           2.2602   -0.4435   28.6890 S.2     1  UNL1       -0.0209
     20 N           1.9465    4.3472   35.7380 N.pl3   1  UNL1       -0.3306
     21 H           1.5763    5.2216   35.9983 H       1  UNL1        0.1469
     22 C           2.8075    3.5814   36.6983 C.3     1  UNL1        0.1075
     23 C           2.1761    2.6748   37.7129 C.3     1  UNL1        0.0963
     24 N           0.8370    3.0179   38.2951 N.3     1  UNL1       -0.2935
     25 C           0.2057    2.1113   39.3097 C.3     1  UNL1        0.0735
     26 C           0.9136    0.8614   39.7421 C.3     1  UNL1        0.0428
     27 C           2.2527    0.5183   39.1599 C.2     1  UNL1       -0.0276
     28 C           2.8839    1.4249   38.1453 C.2     1  UNL1       -0.0106
     29 H           0.1847    3.0850   37.5139 H       1  UNL1        0.1236
     30 C           4.2231    1.0818   37.5630 C.ar    1  UNL1       -0.0028
     31 C           5.4521    1.8020   38.0331 C.ar    1  UNL1        0.0020
     32 C           6.7912    1.4589   37.4509 C.ar    1  UNL1        0.0296
     33 C           6.9014    0.3956   36.3986 C.ar    1  UNL1        0.1401
     34 F           8.2405    0.0525   35.8164 F       1  UNL1       -0.2042
     35 C           5.6724   -0.3246   35.9286 C.ar    1  UNL1        0.0296
     36 C           4.3333    0.0185   36.5108 C.ar    1  UNL1        0.0020
@<TRIPOS>BOND
     1     9    10    2
     2    10    11    2
     3    10    12    1
     4    12    14    1
     5    14    15   ar
     6    15    16   ar
     7    16    17   ar
     8    17    18    1
     9    17    19   ar
    10    10     1    1
    11     1     2   ar
    12     2     3   ar
    13     3     4    1
    14     3     5   ar
    15     5    20    1
    16    20    22    1
    17    23    22    1
    18    23    24    1
    19    24    25    1
    20    25    26    1
    21    26    27    1
    22    27    28    2
    23    28    30    1
    24    30    31   ar
    25    31    32   ar
    26    32    33   ar
    27    33    34    1
    28    33    35   ar
    29    35    36   ar
    30     5     6   ar
    31     6     7   ar
    32     7     8    1
    33    19    14   ar
    34     7     1   ar
    35    28    23    1
    36    36    30   ar
    37    12    13    1
    38    20    21    1
    39    24    29    1
@<TRIPOS>MOLECULE
*****
 36 39 0 0 0
SMALL
GASTEIGER

@<TRIPOS>ATOM
      1 C           1.3712    2.3505   31.8893 C.ar    1  UNL1        0.1534
      2 C           0.7157    3.6697   32.1721 C.ar    1  UNL1        0.0351
      3 C           0.9260    4.3431   33.4958 C.ar    1  UNL1        0.0722
      4 CL          0.2705    5.6624   33.7786 Cl      1  UNL1       -0.0809
      5 C           1.7916    3.6974   34.5367 C.ar    1  UNL1        0.0577
      6 C           2.4471    2.3782   34.2540 C.ar    1  UNL1        0.0462
      7 C           2.2369    1.7047   32.9303 C.ar    1  UNL1        0.1602
      8 F           2.8924    0.3854   32.6475 F       1  UNL1       -0.2027
      9 O           2.5677    2.0154   30.1701 O.2     1  UNL1       -0.1498
     10 S           1.1610    1.6769   30.5656 S.O2    1  UNL1        0.0772
     11 O          -0.2457    1.3385   30.9611 O.2     1  UNL1       -0.1498
     12 N           0.9509    1.0034   29.2419 N.pl3   1  UNL1       -0.1936
     13 H           1.1514    0.0450   29.1399 H       1  UNL1        0.1758
     14 C           0.4352    1.7903   28.0735 C.ar    1  UNL1        0.1807
     15 N           1.1960    2.8311   27.3067 N.ar    1  UNL1       -0.2190
     16 C           0.2993    3.3585   26.2261 C.ar    1  UNL1        0.1372
     17 C          -1.0158    2.6436   26.3250 C.ar    1  UNL1        0.1915
     18 F          -2.2059    2.8599   25.4380 F       1  UNL1       -0.1953
     19 S          -0.9317    1.6743   27.4669 S.2     1  UNL1       -0.0209
     20 N           2.0018    4.3709   35.8605 N.pl3   1  UNL1       -0.3306
     21 H           1.6062    5.2562   36.0307 H       1  UNL1        0.1469
     22 C           2.8148    3.6956   36.9249 C.3     1  UNL1        0.1075
     23 C           2.1620    2.7262   37.8653 C.3     1  UNL1        0.0963
     24 N           0.8016    3.0229   38.4232 N.3     1  UNL1       -0.2935
     25 C           0.1490    2.0535   39.3636 C.3     1  UNL1        0.0735
     26 C           0.8567    0.7875   39.7460 C.3     1  UNL1        0.0428
     27 C           2.2171    0.4908   39.1882 C.2     1  UNL1       -0.0276
     28 C           2.8698    1.4602   38.2478 C.2     1  UNL1       -0.0106
     29 H           0.1734    3.1287   37.6266 H       1  UNL1        0.1236
     30 C           4.2303    1.1636   37.6899 C.ar    1  UNL1       -0.0028
     31 C           5.4306    1.8974   38.2102 C.ar    1  UNL1        0.0020
     32 C           6.7910    1.6008   37.6523 C.ar    1  UNL1        0.0296
     33 C           6.9512    0.5703   36.5741 C.ar    1  UNL1        0.1401
     34 F           8.3116    0.2738   36.0162 F       1  UNL1       -0.2042
     35 C           5.7509   -0.1635   36.0538 C.ar    1  UNL1        0.0296
     36 C           4.3904    0.1331   36.6117 C.ar    1  UNL1        0.0020
@<TRIPOS>BOND
     1     9    10    2
     2    10    11    2
     3    10    12    1
     4    12    14    1
     5    14    15   ar
     6    15    16   ar
     7    16    17   ar
     8    17    18    1
     9    17    19   ar
    10    10     1    1
    11     1     2   ar
    12     2     3   ar
    13     3     4    1
    14     3     5   ar
    15     5    20    1
    16    20    22    1
    17    23    22    1
    18    23    24    1
    19    24    25    1
    20    25    26    1
    21    26    27    1
    22    27    28    2
    23    28    30    1
    24    30    31   ar
    25    31    32   ar
    26    32    33   ar
    27    33    34    1
    28    33    35   ar
    29    35    36   ar
    30     5     6   ar
    31     6     7   ar
    32     7     8    1
    33    19    14   ar
    34     7     1   ar
    35    28    23    1
    36    36    30   ar
    37    12    13    1
    38    20    21    1
    39    24    29    1
@<TRIPOS>MOLECULE
*****
 36 39 0 0 0
SMALL
GASTEIGER

@<TRIPOS>ATOM
      1 C           7.1552   -2.5960   22.1415 C.ar    1  UNL1        0.1534
      2 C           6.2527   -1.8384   23.0696 C.ar    1  UNL1        0.0351
      3 C           5.6838   -0.5158   22.6490 C.ar    1  UNL1        0.0722
      4 CL          4.7812    0.2418   23.5771 Cl      1  UNL1       -0.0809
      5 C           6.0176    0.0493   21.3001 C.ar    1  UNL1        0.0577
      6 C           6.9201   -0.7082   20.3720 C.ar    1  UNL1        0.0462
      7 C           7.4890   -2.0309   20.7927 C.ar    1  UNL1        0.1602
      8 F           8.3916   -2.7885   19.8645 F       1  UNL1       -0.2027
      9 O           8.9359   -3.2237   23.1086 O.2     1  UNL1       -0.1498
     10 S           7.7242   -3.9187   22.5622 S.O2    1  UNL1        0.0772
     11 O           6.5124   -4.6137   22.0157 O.2     1  UNL1       -0.1498
     12 N           8.2931   -5.2413   22.9828 N.pl3   1  UNL1       -0.1936
     13 H           8.9495   -5.6995   22.4097 H       1  UNL1        0.1758
     14 C           7.8619   -5.8658   24.2767 C.ar    1  UNL1        0.1807
     15 N           7.0839   -5.1893   25.3662 N.ar    1  UNL1       -0.2190
     16 C           6.8742   -6.1819   26.4711 C.ar    1  UNL1        0.1372
     17 C           7.5226   -7.4720   26.0644 C.ar    1  UNL1        0.1915
     18 F           7.5549   -8.7355   26.8721 F       1  UNL1       -0.1953
     19 S           8.1330   -7.2766   24.7081 S.2     1  UNL1       -0.0209
     20 N           5.4487    1.3720   20.8795 N.pl3   1  UNL1       -0.3306
     21 H           5.3339    2.0915   21.5416 H       1  UNL1        0.1469
     22 C           5.0546    1.5984   19.4500 C.3     1  UNL1        0.1075
     23 C           3.6061    1.7307   19.0832 C.3     1  UNL1        0.0963
     24 N           2.9792    3.0896   18.9814 N.3     1  UNL1       -0.2935
     25 C           1.5308    3.2217   18.6147 C.3     1  UNL1        0.0735
     26 C           0.7092    1.9950   18.3497 C.3     1  UNL1        0.0428
     27 C           1.3361    0.6361   18.4515 C.2     1  UNL1       -0.0276
     28 C           2.7845    0.5039   18.8183 C.2     1  UNL1       -0.0106
     29 H           3.5090    3.6064   18.2796 H       1  UNL1        0.1236
     30 C           3.4115   -0.8550   18.9201 C.ar    1  UNL1       -0.0028
     31 C           3.1392   -1.7189   20.1157 C.ar    1  UNL1        0.0020
     32 C           3.7661   -3.0777   20.2176 C.ar    1  UNL1        0.0296
     33 C           4.6653   -3.5728   19.1238 C.ar    1  UNL1        0.1401
     34 F           5.2922   -4.9317   19.2256 F       1  UNL1       -0.2042
     35 C           4.9376   -2.7089   17.9281 C.ar    1  UNL1        0.0296
     36 C           4.3106   -1.3500   17.8263 C.ar    1  UNL1        0.0020
@<TRIPOS>BOND
     1     9    10    2
     2    10    11    2
     3    10    12    1
     4    12    14    1
     5    14    15   ar
     6    15    16   ar
     7    16    17   ar
     8    17    18    1
     9    17    19   ar
    10    10     1    1
    11     1     2   ar
    12     2     3   ar
    13     3     4    1
    14     3     5   ar
    15     5    20    1
    16    20    22    1
    17    23    22    1
    18    23    24    1
    19    24    25    1
    20    25    26    1
    21    26    27    1
    22    27    28    2
    23    28    30    1
    24    30    31   ar
    25    31    32   ar
    26    32    33   ar
    27    33    34    1
    28    33    35   ar
    29    35    36   ar
    30     5     6   ar
    31     6     7   ar
    32     7     8    1
    33    19    14   ar
    34     7     1   ar
    35    28    23    1
    36    36    30   ar
    37    12    13    1
    38    20    21    1
    39    24    29    1
@<TRIPOS>MOLECULE
*****
 36 39 0 0 0
SMALL
GASTEIGER

@<TRIPOS>ATOM
      1 C          -7.9628  -16.9497   22.9218 C.ar    1  UNL1        0.1534
      2 C          -7.0265  -15.8505   23.3280 C.ar    1  UNL1        0.0351
      3 C          -5.5595  -16.1292   23.4699 C.ar    1  UNL1        0.0722
      4 CL         -4.6230  -15.0300   23.8762 Cl      1  UNL1       -0.0809
      5 C          -5.0288  -17.5071   23.2056 C.ar    1  UNL1        0.0577
      6 C          -5.9651  -18.6063   22.7993 C.ar    1  UNL1        0.0462
      7 C          -7.4321  -18.3276   22.6574 C.ar    1  UNL1        0.1602
      8 F          -8.3685  -19.4268   22.2512 F       1  UNL1       -0.2027
      9 O          -9.4935  -16.2707   24.2240 O.2     1  UNL1       -0.1498
     10 S          -9.4299  -16.6710   22.7799 S.O2    1  UNL1        0.0772
     11 O          -9.3663  -17.0714   21.3357 O.2     1  UNL1       -0.1498
     12 N         -10.8969  -16.3924   22.6380 N.pl3   1  UNL1       -0.1936
     13 H         -11.2036  -15.6418   22.0797 H       1  UNL1        0.1758
     14 C         -11.8966  -17.2574   23.3469 C.ar    1  UNL1        0.1807
     15 N         -11.5834  -18.3176   24.3607 N.ar    1  UNL1       -0.2190
     16 C         -12.8783  -18.9294   24.8068 C.ar    1  UNL1        0.1372
     17 C         -13.9918  -18.2473   24.0686 C.ar    1  UNL1        0.1915
     18 F         -15.4551  -18.5461   24.2082 F       1  UNL1       -0.1953
     19 S         -13.3851  -17.2139   23.1663 S.2     1  UNL1       -0.0209
     20 N          -3.5617  -17.7858   23.3475 N.pl3   1  UNL1       -0.3306
     21 H          -3.0175  -17.2529   23.9713 H       1  UNL1        0.1469
     22 C          -2.9238  -18.8762   22.5389 C.3     1  UNL1        0.1075
     23 C          -2.1727  -18.5388   21.2851 C.3     1  UNL1        0.0963
     24 N          -0.7909  -17.9615   21.3709 N.3     1  UNL1       -0.2935
     25 C          -0.0399  -17.6242   20.1171 C.3     1  UNL1        0.0735
     26 C          -0.6706  -17.8641   18.7774 C.3     1  UNL1        0.0428
     27 C          -2.0524  -18.4414   18.6916 C.2     1  UNL1       -0.0276
     28 C          -2.8034  -18.7787   19.9454 C.2     1  UNL1       -0.0106
     29 H          -0.2215  -18.6354   21.8829 H       1  UNL1        0.1236
     30 C          -4.1852  -19.3561   19.8597 C.ar    1  UNL1       -0.0028
     31 C          -5.3397  -18.4830   19.4660 C.ar    1  UNL1        0.0020
     32 C          -6.7215  -19.0603   19.3802 C.ar    1  UNL1        0.0296
     33 C          -6.9489  -20.5106   19.6881 C.ar    1  UNL1        0.1401
     34 F          -8.3306  -21.0879   19.6023 F       1  UNL1       -0.2042
     35 C          -5.7944  -21.3837   20.0818 C.ar    1  UNL1        0.0296
     36 C          -4.4126  -20.8064   20.1676 C.ar    1  UNL1        0.0020
@<TRIPOS>BOND
     1     9    10    2
     2    10    11    2
     3    10    12    1
     4    12    14    1
     5    14    15   ar
     6    15    16   ar
     7    16    17   ar
     8    17    18    1
     9    17    19   ar
    10    10     1    1
    11     1     2   ar
    12     2     3   ar
    13     3     4    1
    14     3     5   ar
    15     5    20    1
    16    20    22    1
    17    23    22    1
    18    23    24    1
    19    24    25    1
    20    25    26    1
    21    26    27    1
    22    27    28    2
    23    28    30    1
    24    30    31   ar
    25    31    32   ar
    26    32    33   ar
    27    33    34    1
    28    33    35   ar
    29    35    36   ar
    30     5     6   ar
    31     6     7   ar
    32     7     8    1
    33    19    14   ar
    34     7     1   ar
    35    28    23    1
    36    36    30   ar
    37    12    13    1
    38    20    21    1
    39    24    29    1
