@<TRIPOS>MOLECULE
*****
 33 37 0 0 0
SMALL
GASTEIGER

@<TRIPOS>ATOM
      1 C          -7.8887    6.0742   25.3779 C.ar    1  UNL1       -0.0067
      2 C          -7.7579    6.3502   26.8465 C.ar    1  UNL1        0.0002
      3 C          -6.4571    6.0882   27.5459 C.ar    1  UNL1        0.0363
      4 C          -5.2871    5.5502   26.7768 C.ar    1  UNL1        0.1346
      5 C          -5.4179    5.2742   25.3082 C.ar    1  UNL1        0.0145
      6 C          -6.7187    5.5362   24.6088 C.ar    1  UNL1       -0.0041
      7 C          -4.1016    4.7495   24.8160 C.3     1  UNL1        0.0654
      8 C          -2.7334    4.2403   24.4713 C.3     1  UNL1        0.0293
      9 C          -2.4171    3.8351   23.0622 C.3     1  UNL1        0.0943
     10 N          -3.4688    3.9391   21.9978 N.am    1  UNL1       -0.2736
     11 C          -3.1524    3.5338   20.5886 C.2     1  UNL1        0.2838
     12 O          -4.2041    3.6378   19.5242 O.2     1  UNL1       -0.2666
     13 C          -4.8370    4.4483   22.3425 C.3     1  UNL1        0.0943
     14 C          -5.1533    4.8535   23.7516 C.3     1  UNL1        0.0293
     15 C          -3.1572    4.7013   25.9805 C.3     1  UNL1        0.2094
     16 O          -3.8899    5.1961   27.1923 O.3     1  UNL1       -0.4754
     17 C          -1.7843    3.0246   20.2439 C.ar    1  UNL1        0.1995
     18 C          -0.8016    3.6892   19.3259 C.ar    1  UNL1        0.0460
     19 C           0.4314    2.8367   19.2713 C.ar    1  UNL1        0.0495
     20 C           0.2108    1.6453   20.1556 C.ar    1  UNL1        0.1873
     21 O          -1.1585    1.7615   20.7567 O.2     1  UNL1       -0.4407
     22 C           1.1880    0.5331   20.3965 C.1     1  UNL1       -0.0225
     23 C           2.1652   -0.5791   20.6374 C.1     1  UNL1       -0.0568
     24 C           3.1424   -1.6913   20.8783 C.ar    1  UNL1        0.0421
     25 C           3.7525   -1.8727   22.2365 C.ar    1  UNL1        0.0082
     26 C           4.7297   -2.9849   22.4774 C.ar    1  UNL1        0.0006
     27 C           5.0968   -3.9158   21.3600 C.ar    1  UNL1        0.0000
     28 C           4.4867   -3.7345   20.0018 C.ar    1  UNL1        0.0006
     29 C           3.5096   -2.6223   19.7609 C.ar    1  UNL1        0.0082
     30 N         -10.3525    5.4120   24.8867 N.3     1  UNL1       -0.3175
     31 C          -9.1895    6.3363   24.6785 C.3     1  UNL1        0.0922
     32 H         -11.1486    5.7387   24.3390 H       1  UNL1        0.1192
     33 H         -10.6028    5.3979   25.8754 H       1  UNL1        0.1192
@<TRIPOS>BOND
     1    30    31    1
     2    31     1    1
     3     1     2   ar
     4     2     3   ar
     5     3     4   ar
     6     4     5   ar
     7     5     6   ar
     8     5     7    1
     9     7     8    1
    10     8     9    1
    11     9    10    1
    12    10    11   am
    13    11    12    2
    14    11    17    1
    15    17    18   ar
    16    18    19   ar
    17    19    20   ar
    18    20    22    1
    19    22    23    3
    20    23    24    1
    21    24    25   ar
    22    25    26   ar
    23    26    27   ar
    24    27    28   ar
    25    28    29   ar
    26    20    21   ar
    27    10    13    1
    28    13    14    1
    29     7    15    1
    30    15    16    1
    31     6     1   ar
    32    14     7    1
    33    16     4    1
    34    21    17   ar
    35    29    24   ar
    36    30    32    1
    37    30    33    1
@<TRIPOS>MOLECULE
*****
 33 37 0 0 0
SMALL
GASTEIGER

@<TRIPOS>ATOM
      1 C           2.9737    2.2881   37.1610 C.ar    1  UNL1       -0.0067
      2 C           2.8773    3.5160   38.0173 C.ar    1  UNL1        0.0002
      3 C           2.3790    4.8029   37.4297 C.ar    1  UNL1        0.0363
      4 C           1.9770    4.8621   35.9858 C.ar    1  UNL1        0.1346
      5 C           2.0733    3.6343   35.1295 C.ar    1  UNL1        0.0145
      6 C           2.5717    2.3473   35.7171 C.ar    1  UNL1       -0.0041
      7 C           1.6087    3.9940   33.7493 C.3     1  UNL1        0.0654
      8 C           1.1202    4.4989   32.4240 C.3     1  UNL1        0.0293
      9 C           1.0512    3.5714   31.2473 C.3     1  UNL1        0.0943
     10 N           1.4706    2.1389   31.3958 N.am    1  UNL1       -0.2736
     11 C           1.4016    1.2113   30.2189 C.2     1  UNL1        0.2838
     12 O           1.8211   -0.2211   30.3674 O.2     1  UNL1       -0.2666
     13 C           1.9591    1.6340   32.7210 C.3     1  UNL1        0.0943
     14 C           2.0281    2.5615   33.8978 C.3     1  UNL1        0.0293
     15 C           1.2252    5.4442   33.7526 C.3     1  UNL1        0.2094
     16 O           1.4528    5.9807   35.1349 O.3     1  UNL1       -0.4754
     17 C           0.9132    1.7163   28.8936 C.ar    1  UNL1        0.1995
     18 C           1.7671    2.0342   27.7022 C.ar    1  UNL1        0.0460
     19 C           0.8668    2.5064   26.5993 C.ar    1  UNL1        0.0495
     20 C          -0.5437    2.4803   27.1091 C.ar    1  UNL1        0.1873
     21 O          -0.5150    1.9920   28.5271 O.2     1  UNL1       -0.4407
     22 C          -1.7679    2.8734   26.3366 C.1     1  UNL1       -0.0225
     23 C          -2.9921    3.2666   25.5641 C.1     1  UNL1       -0.0568
     24 C          -4.2163    3.6597   24.7916 C.ar    1  UNL1        0.0421
     25 C          -5.3096    4.4365   25.4633 C.ar    1  UNL1        0.0082
     26 C          -6.5338    4.8296   24.6908 C.ar    1  UNL1        0.0006
     27 C          -6.6646    4.4460   23.2465 C.ar    1  UNL1        0.0000
     28 C          -5.5713    3.6693   22.5749 C.ar    1  UNL1        0.0006
     29 C          -4.3471    3.2762   23.3474 C.ar    1  UNL1        0.0082
     30 N           3.1140    0.6317   39.1577 N.3     1  UNL1       -0.3175
     31 C           3.4720    1.0012   37.7486 C.3     1  UNL1        0.0922
     32 H           3.5343   -0.2680   39.3905 H       1  UNL1        0.1192
     33 H           2.0999    0.5659   39.2447 H       1  UNL1        0.1192
@<TRIPOS>BOND
     1    30    31    1
     2    31     1    1
     3     1     2   ar
     4     2     3   ar
     5     3     4   ar
     6     4     5   ar
     7     5     6   ar
     8     5     7    1
     9     7     8    1
    10     8     9    1
    11     9    10    1
    12    10    11   am
    13    11    12    2
    14    11    17    1
    15    17    18   ar
    16    18    19   ar
    17    19    20   ar
    18    20    22    1
    19    22    23    3
    20    23    24    1
    21    24    25   ar
    22    25    26   ar
    23    26    27   ar
    24    27    28   ar
    25    28    29   ar
    26    20    21   ar
    27    10    13    1
    28    13    14    1
    29     7    15    1
    30    15    16    1
    31     6     1   ar
    32    14     7    1
    33    16     4    1
    34    21    17   ar
    35    29    24   ar
    36    30    32    1
    37    30    33    1
@<TRIPOS>MOLECULE
*****
 33 37 0 0 0
SMALL
GASTEIGER

@<TRIPOS>ATOM
      1 C          -7.3440    6.1922   26.5954 C.ar    1  UNL1       -0.0067
      2 C          -8.6732    6.4135   25.9363 C.ar    1  UNL1        0.0002
      3 C          -8.8684    6.0383   24.4972 C.ar    1  UNL1        0.0363
      4 C          -7.7345    5.4419   23.7171 C.ar    1  UNL1        0.1346
      5 C          -6.4054    5.2207   24.3762 C.ar    1  UNL1        0.0145
      6 C          -6.2101    5.5958   25.8153 C.ar    1  UNL1       -0.0041
      7 C          -5.4791    4.6188   23.3612 C.3     1  UNL1        0.0654
      8 C          -4.6727    4.0241   22.2450 C.3     1  UNL1        0.0293
      9 C          -3.2412    3.6404   22.4759 C.3     1  UNL1        0.0943
     10 N          -2.6160    3.8514   23.8230 N.am    1  UNL1       -0.2736
     11 C          -1.1844    3.4676   24.0538 C.2     1  UNL1        0.2838
     12 O          -0.5592    3.6786   25.4009 O.2     1  UNL1       -0.2666
     13 C          -3.4224    4.4460   24.9392 C.3     1  UNL1        0.0943
     14 C          -4.8540    4.8297   24.7083 C.3     1  UNL1        0.0293
     15 C          -6.2359    4.4681   22.0749 C.3     1  UNL1        0.2094
     16 O          -7.6299    4.9768   22.2949 O.3     1  UNL1       -0.4754
     17 C          -0.3780    2.8729   22.9376 C.ar    1  UNL1        0.1995
     18 C          -0.1738    3.4756   21.5793 C.ar    1  UNL1        0.0460
     19 C           0.6962    2.5464   20.7859 C.ar    1  UNL1        0.0495
     20 C           1.0298    1.3693   21.6538 C.ar    1  UNL1        0.1873
     21 O           0.3659    1.5712   22.9837 O.2     1  UNL1       -0.4407
     22 C           1.8782    0.1964   21.2609 C.1     1  UNL1       -0.0225
     23 C           2.7266   -0.9766   20.8681 C.1     1  UNL1       -0.0568
     24 C           3.5751   -2.1495   20.4752 C.ar    1  UNL1        0.0421
     25 C           3.1466   -3.0407   19.3474 C.ar    1  UNL1        0.0082
     26 C           3.9951   -4.2137   18.9545 C.ar    1  UNL1        0.0006
     27 C           5.2720   -4.4953   19.6894 C.ar    1  UNL1        0.0000
     28 C           5.7004   -3.6041   20.8172 C.ar    1  UNL1        0.0006
     29 C           4.8520   -2.4311   21.2101 C.ar    1  UNL1        0.0082
     30 N          -7.9004    5.8381   29.1084 N.3     1  UNL1       -0.3175
     31 C          -7.1487    6.5674   28.0345 C.3     1  UNL1        0.0922
     32 H          -7.6480    6.2205   30.0197 H       1  UNL1        0.1192
     33 H          -7.6614    4.8470   29.0775 H       1  UNL1        0.1192
@<TRIPOS>BOND
     1    30    31    1
     2    31     1    1
     3     1     2   ar
     4     2     3   ar
     5     3     4   ar
     6     4     5   ar
     7     5     6   ar
     8     5     7    1
     9     7     8    1
    10     8     9    1
    11     9    10    1
    12    10    11   am
    13    11    12    2
    14    11    17    1
    15    17    18   ar
    16    18    19   ar
    17    19    20   ar
    18    20    22    1
    19    22    23    3
    20    23    24    1
    21    24    25   ar
    22    25    26   ar
    23    26    27   ar
    24    27    28   ar
    25    28    29   ar
    26    20    21   ar
    27    10    13    1
    28    13    14    1
    29     7    15    1
    30    15    16    1
    31     6     1   ar
    32    14     7    1
    33    16     4    1
    34    21    17   ar
    35    29    24   ar
    36    30    32    1
    37    30    33    1
@<TRIPOS>MOLECULE
*****
 33 37 0 0 0
SMALL
GASTEIGER

@<TRIPOS>ATOM
      1 C           3.0921   -0.4160   18.4070 C.ar    1  UNL1       -0.0067
      2 C           2.0314    0.6447   18.4053 C.ar    1  UNL1        0.0002
      3 C           1.4717    1.1476   19.7028 C.ar    1  UNL1        0.0363
      4 C           1.9726    0.5900   21.0021 C.ar    1  UNL1        0.1346
      5 C           3.0333   -0.4706   21.0038 C.ar    1  UNL1        0.0145
      6 C           3.5930   -0.9736   19.7063 C.ar    1  UNL1       -0.0041
      7 C           3.3288   -0.8284   22.4303 C.3     1  UNL1        0.0654
      8 C           3.5162   -1.0797   23.8972 C.3     1  UNL1        0.0293
      9 C           4.5144   -2.0982   24.3620 C.3     1  UNL1        0.0943
     10 N           5.3254   -2.8653   23.3601 N.am    1  UNL1       -0.2736
     11 C           6.3237   -3.8838   23.8250 C.2     1  UNL1        0.2838
     12 O           7.1346   -4.6509   22.8231 O.2     1  UNL1       -0.2666
     13 C           5.1381   -2.6139   21.8932 C.3     1  UNL1        0.0943
     14 C           4.1398   -1.5955   21.4283 C.3     1  UNL1        0.0293
     15 C           2.4508    0.0112   23.3102 C.3     1  UNL1        0.2094
     16 O           1.6125    0.8878   22.4275 O.3     1  UNL1       -0.4754
     17 C           6.5110   -4.1351   25.2919 C.ar    1  UNL1        0.1995
     18 C           7.0596   -5.3875   25.9088 C.ar    1  UNL1        0.0460
     19 C           7.0703   -5.2046   27.3976 C.ar    1  UNL1        0.0495
     20 C           6.5282   -3.8392   27.7008 C.ar    1  UNL1        0.1873
     21 O           6.1826   -3.1783   26.3994 O.2     1  UNL1       -0.4407
     22 C           6.3612   -3.2400   29.0657 C.1     1  UNL1       -0.0225
     23 C           6.1941   -2.6409   30.4307 C.1     1  UNL1       -0.0568
     24 C           6.0271   -2.0417   31.7956 C.ar    1  UNL1        0.0421
     25 C           7.1279   -1.2155   32.3918 C.ar    1  UNL1        0.0082
     26 C           6.9608   -0.6163   33.7567 C.ar    1  UNL1        0.0006
     27 C           5.6929   -0.8434   34.5255 C.ar    1  UNL1        0.0000
     28 C           4.5922   -1.6696   33.9292 C.ar    1  UNL1        0.0006
     29 C           4.7592   -2.2688   32.5643 C.ar    1  UNL1        0.0082
     30 N           4.6291   -2.0570   17.1051 N.3     1  UNL1       -0.3175
     31 C           3.6518   -0.9190   17.1095 C.3     1  UNL1        0.0922
     32 H           4.9032   -2.2661   16.1451 H       1  UNL1        0.1192
     33 H           4.1941   -2.8803   17.5215 H       1  UNL1        0.1192
@<TRIPOS>BOND
     1    30    31    1
     2    31     1    1
     3     1     2   ar
     4     2     3   ar
     5     3     4   ar
     6     4     5   ar
     7     5     6   ar
     8     5     7    1
     9     7     8    1
    10     8     9    1
    11     9    10    1
    12    10    11   am
    13    11    12    2
    14    11    17    1
    15    17    18   ar
    16    18    19   ar
    17    19    20   ar
    18    20    22    1
    19    22    23    3
    20    23    24    1
    21    24    25   ar
    22    25    26   ar
    23    26    27   ar
    24    27    28   ar
    25    28    29   ar
    26    20    21   ar
    27    10    13    1
    28    13    14    1
    29     7    15    1
    30    15    16    1
    31     6     1   ar
    32    14     7    1
    33    16     4    1
    34    21    17   ar
    35    29    24   ar
    36    30    32    1
    37    30    33    1
@<TRIPOS>MOLECULE
*****
 33 37 0 0 0
SMALL
GASTEIGER

@<TRIPOS>ATOM
      1 C           5.2638   -3.5372   21.3049 C.ar    1  UNL1       -0.0067
      2 C           5.8623   -3.9347   22.6217 C.ar    1  UNL1        0.0002
      3 C           5.4639   -3.2131   23.8749 C.ar    1  UNL1        0.0363
      4 C           4.4671   -2.0941   23.8115 C.ar    1  UNL1        0.1346
      5 C           3.8686   -1.6966   22.4947 C.ar    1  UNL1        0.0145
      6 C           4.2670   -2.4182   21.2414 C.ar    1  UNL1       -0.0041
      7 C           2.9175   -0.5631   22.7411 C.3     1  UNL1        0.0654
      8 C           2.0051    0.5590   23.1392 C.3     1  UNL1        0.0293
      9 C           1.1870    1.2653   22.0992 C.3     1  UNL1        0.0943
     10 N           1.2813    0.8497   20.6610 N.am    1  UNL1       -0.2736
     11 C           0.4632    1.5561   19.6210 C.2     1  UNL1        0.2838
     12 O           0.5574    1.1405   18.1828 O.2     1  UNL1       -0.2666
     13 C           2.1937   -0.2724   20.2629 C.3     1  UNL1        0.0943
     14 C           3.0117   -0.9788   21.3029 C.3     1  UNL1        0.0293
     15 C           2.9282   -0.2600   24.2101 C.3     1  UNL1        0.2094
     16 O           3.8859   -1.2063   24.8717 O.3     1  UNL1       -0.4754
     17 C          -0.4492    2.6782   20.0191 C.ar    1  UNL1        0.1995
     18 C          -0.3110    4.1145   19.6094 C.ar    1  UNL1        0.0460
     19 C          -1.4363    4.8850   20.2339 C.ar    1  UNL1        0.0495
     20 C          -2.2700    3.9248   21.0296 C.ar    1  UNL1        0.1873
     21 O          -1.6599    2.5610   20.8968 O.2     1  UNL1       -0.4407
     22 C          -3.4981    4.2682   21.8194 C.1     1  UNL1       -0.0225
     23 C          -4.7262    4.6117   22.6092 C.1     1  UNL1       -0.0568
     24 C          -5.9543    4.9551   23.3990 C.ar    1  UNL1        0.0421
     25 C          -5.8704    5.9431   24.5244 C.ar    1  UNL1        0.0082
     26 C          -7.0985    6.2865   25.3142 C.ar    1  UNL1        0.0006
     27 C          -8.4106    5.6419   24.9785 C.ar    1  UNL1        0.0000
     28 C          -8.4946    4.6539   23.8531 C.ar    1  UNL1        0.0006
     29 C          -7.2665    4.3104   23.0633 C.ar    1  UNL1        0.0082
     30 N           4.6781   -5.1509   19.3548 N.3     1  UNL1       -0.3175
     31 C           5.6622   -4.2587   20.0517 C.3     1  UNL1        0.0922
     32 H           5.1142   -5.5570   18.5270 H       1  UNL1        0.1192
     33 H           3.8624   -4.6053   19.0763 H       1  UNL1        0.1192
@<TRIPOS>BOND
     1    30    31    1
     2    31     1    1
     3     1     2   ar
     4     2     3   ar
     5     3     4   ar
     6     4     5   ar
     7     5     6   ar
     8     5     7    1
     9     7     8    1
    10     8     9    1
    11     9    10    1
    12    10    11   am
    13    11    12    2
    14    11    17    1
    15    17    18   ar
    16    18    19   ar
    17    19    20   ar
    18    20    22    1
    19    22    23    3
    20    23    24    1
    21    24    25   ar
    22    25    26   ar
    23    26    27   ar
    24    27    28   ar
    25    28    29   ar
    26    20    21   ar
    27    10    13    1
    28    13    14    1
    29     7    15    1
    30    15    16    1
    31     6     1   ar
    32    14     7    1
    33    16     4    1
    34    21    17   ar
    35    29    24   ar
    36    30    32    1
    37    30    33    1
@<TRIPOS>MOLECULE
*****
 33 37 0 0 0
SMALL
GASTEIGER

@<TRIPOS>ATOM
      1 C           4.9308   -2.8098   21.0217 C.ar    1  UNL1       -0.0067
      2 C           4.7798   -2.9092   19.5326 C.ar    1  UNL1        0.0002
      3 C           3.7489   -2.0797   18.8263 C.ar    1  UNL1        0.0363
      4 C           2.8690   -1.1506   19.6089 C.ar    1  UNL1        0.1346
      5 C           3.0199   -1.0511   21.0979 C.ar    1  UNL1        0.0145
      6 C           4.0508   -1.8807   21.8044 C.ar    1  UNL1       -0.0041
      7 C           2.0173   -0.0547   21.6000 C.3     1  UNL1        0.0654
      8 C           0.9696    0.9591   21.9527 C.3     1  UNL1        0.0293
      9 C           0.7723    1.3675   23.3824 C.3     1  UNL1        0.0943
     10 N           1.6227    0.7620   24.4596 N.am    1  UNL1       -0.2736
     11 C           1.4253    1.1703   25.8894 C.2     1  UNL1        0.2838
     12 O           2.2757    0.5648   26.9665 O.2     1  UNL1       -0.2666
     13 C           2.6704   -0.2519   24.1069 C.3     1  UNL1        0.0943
     14 C           2.8677   -0.6602   22.6772 C.3     1  UNL1        0.0293
     15 C           1.2467    0.4617   20.4212 C.3     1  UNL1        0.2094
     16 O           1.7731   -0.2156   19.1906 O.3     1  UNL1       -0.4754
     17 C           0.3776    2.1842   26.2420 C.ar    1  UNL1        0.1995
     18 C           0.5088    3.2656   27.2732 C.ar    1  UNL1        0.0460
     19 C          -0.7730    4.0444   27.2939 C.ar    1  UNL1        0.0495
     20 C          -1.6965    3.4443   26.2755 C.ar    1  UNL1        0.1873
     21 O          -0.9854    2.2946   25.6254 O.2     1  UNL1       -0.4407
     22 C          -3.0869    3.9118   25.9622 C.1     1  UNL1       -0.0225
     23 C          -4.4773    4.3793   25.6489 C.1     1  UNL1       -0.0568
     24 C          -5.8677    4.8468   25.3356 C.ar    1  UNL1        0.0421
     25 C          -6.5272    5.8751   26.2060 C.ar    1  UNL1        0.0082
     26 C          -7.9176    6.3426   25.8927 C.ar    1  UNL1        0.0006
     27 C          -8.6486    5.7818   24.7090 C.ar    1  UNL1        0.0000
     28 C          -7.9891    4.7535   23.8387 C.ar    1  UNL1        0.0006
     29 C          -6.5987    4.2860   24.1519 C.ar    1  UNL1        0.0082
     30 N           6.8211   -4.5907   20.9493 N.3     1  UNL1       -0.3175
     31 C           5.9616   -3.6394   21.7281 C.3     1  UNL1        0.0922
     32 H           7.4609   -5.0683   21.5840 H       1  UNL1        0.1192
     33 H           7.3567   -4.0726   20.2528 H       1  UNL1        0.1192
@<TRIPOS>BOND
     1    30    31    1
     2    31     1    1
     3     1     2   ar
     4     2     3   ar
     5     3     4   ar
     6     4     5   ar
     7     5     6   ar
     8     5     7    1
     9     7     8    1
    10     8     9    1
    11     9    10    1
    12    10    11   am
    13    11    12    2
    14    11    17    1
    15    17    18   ar
    16    18    19   ar
    17    19    20   ar
    18    20    22    1
    19    22    23    3
    20    23    24    1
    21    24    25   ar
    22    25    26   ar
    23    26    27   ar
    24    27    28   ar
    25    28    29   ar
    26    20    21   ar
    27    10    13    1
    28    13    14    1
    29     7    15    1
    30    15    16    1
    31     6     1   ar
    32    14     7    1
    33    16     4    1
    34    21    17   ar
    35    29    24   ar
    36    30    32    1
    37    30    33    1
@<TRIPOS>MOLECULE
*****
 33 37 0 0 0
SMALL
GASTEIGER

@<TRIPOS>ATOM
      1 C           4.1589   -1.4642   18.8982 C.ar    1  UNL1       -0.0067
      2 C           5.2087   -2.5222   18.7291 C.ar    1  UNL1        0.0002
      3 C           5.8002   -3.1912   19.9342 C.ar    1  UNL1        0.0363
      4 C           5.3420   -2.8022   21.3086 C.ar    1  UNL1        0.1346
      5 C           4.2923   -1.7442   21.4777 C.ar    1  UNL1        0.0145
      6 C           3.7007   -1.0751   20.2725 C.ar    1  UNL1       -0.0041
      7 C           4.0411   -1.5709   22.9464 C.3     1  UNL1        0.0654
      8 C           3.8982   -1.5091   24.4383 C.3     1  UNL1        0.0293
      9 C           2.9237   -0.5528   25.0593 C.3     1  UNL1        0.0943
     10 N           2.0920    0.3417   24.1884 N.am    1  UNL1       -0.2736
     11 C           1.1174    1.2980   24.8095 C.2     1  UNL1        0.2838
     12 O           0.2858    2.1924   23.9387 O.2     1  UNL1       -0.2666
     13 C           2.2349    0.2798   22.6966 C.3     1  UNL1        0.0943
     14 C           3.2095   -0.6765   22.0756 C.3     1  UNL1        0.0293
     15 C           4.9356   -2.5219   23.6850 C.3     1  UNL1        0.2094
     16 O           5.7397   -3.2829   22.6727 O.3     1  UNL1       -0.4754
     17 C           0.9745    1.3598   26.3014 C.ar    1  UNL1        0.1995
     18 C          -0.1957    1.9225   27.0524 C.ar    1  UNL1        0.0460
     19 C           0.0832    1.7803   28.5194 C.ar    1  UNL1        0.0495
     20 C           1.4259    1.1297   28.6750 C.ar    1  UNL1        0.1873
     21 O           1.9767    0.8699   27.3042 O.2     1  UNL1       -0.4407
     22 C           2.0994    0.7974   29.9734 C.1     1  UNL1       -0.0225
     23 C           2.7729    0.4651   31.2718 C.1     1  UNL1       -0.0568
     24 C           3.4465    0.1328   32.5703 C.ar    1  UNL1        0.0421
     25 C           4.0064   -1.2405   32.7948 C.ar    1  UNL1        0.0082
     26 C           4.6799   -1.5728   34.0932 C.ar    1  UNL1        0.0006
     27 C           4.7935   -0.5318   35.1671 C.ar    1  UNL1        0.0000
     28 C           4.2336    0.8415   34.9426 C.ar    1  UNL1        0.0006
     29 C           3.5600    1.1738   33.6442 C.ar    1  UNL1        0.0082
     30 N           3.9056   -1.2909   16.3183 N.3     1  UNL1       -0.3175
     31 C           3.5674   -0.7952   17.6931 C.3     1  UNL1        0.0922
     32 H           3.4192   -0.7245   15.6234 H       1  UNL1        0.1192
     33 H           3.6154   -2.2645   16.2270 H       1  UNL1        0.1192
@<TRIPOS>BOND
     1    30    31    1
     2    31     1    1
     3     1     2   ar
     4     2     3   ar
     5     3     4   ar
     6     4     5   ar
     7     5     6   ar
     8     5     7    1
     9     7     8    1
    10     8     9    1
    11     9    10    1
    12    10    11   am
    13    11    12    2
    14    11    17    1
    15    17    18   ar
    16    18    19   ar
    17    19    20   ar
    18    20    22    1
    19    22    23    3
    20    23    24    1
    21    24    25   ar
    22    25    26   ar
    23    26    27   ar
    24    27    28   ar
    25    28    29   ar
    26    20    21   ar
    27    10    13    1
    28    13    14    1
    29     7    15    1
    30    15    16    1
    31     6     1   ar
    32    14     7    1
    33    16     4    1
    34    21    17   ar
    35    29    24   ar
    36    30    32    1
    37    30    33    1
@<TRIPOS>MOLECULE
*****
 33 37 0 0 0
SMALL
GASTEIGER

@<TRIPOS>ATOM
      1 C           5.0147   -1.2204   18.8903 C.ar    1  UNL1       -0.0067
      2 C           4.5199   -1.1327   17.4769 C.ar    1  UNL1        0.0002
      3 C           3.1696   -0.5462   17.1900 C.ar    1  UNL1        0.0363
      4 C           2.3138   -0.0475   18.3164 C.ar    1  UNL1        0.1346
      5 C           2.8084   -0.1352   19.7298 C.ar    1  UNL1        0.0145
      6 C           4.1589   -0.7217   20.0167 C.ar    1  UNL1       -0.0041
      7 C           1.7498    0.4336   20.6276 C.3     1  UNL1        0.0654
      8 C           0.6068    1.0282   21.3955 C.3     1  UNL1        0.0293
      9 C           0.6836    1.1384   22.8894 C.3     1  UNL1        0.0943
     10 N           1.9035    0.6540   23.6154 N.am    1  UNL1       -0.2736
     11 C           1.9804    0.7642   25.1095 C.2     1  UNL1        0.2838
     12 O           3.2003    0.2797   25.8355 O.2     1  UNL1       -0.2666
     13 C           3.0466    0.0593   22.8475 C.3     1  UNL1        0.0943
     14 C           2.9698   -0.0508   21.3536 C.3     1  UNL1        0.0293
     15 C           0.6009    0.8729   19.7690 C.3     1  UNL1        0.2094
     16 O           0.9494    0.5756   18.3406 O.3     1  UNL1       -0.4754
     17 C           0.8373    1.3588   25.8774 C.ar    1  UNL1        0.1995
     18 C           0.6740    1.3433   27.3684 C.ar    1  UNL1        0.0460
     19 C          -0.6074    2.0482   27.7017 C.ar    1  UNL1        0.0495
     20 C          -1.2361    2.4994   26.4166 C.ar    1  UNL1        0.1873
     21 O          -0.3432    2.0733   25.2892 O.2     1  UNL1       -0.4407
     22 C          -2.5304    3.2456   26.2826 C.1     1  UNL1       -0.0225
     23 C          -3.8246    3.9918   26.1486 C.1     1  UNL1       -0.0568
     24 C          -5.1189    4.7380   26.0146 C.ar    1  UNL1        0.0421
     25 C          -5.9310    4.6117   24.7599 C.ar    1  UNL1        0.0082
     26 C          -7.2253    5.3580   24.6259 C.ar    1  UNL1        0.0006
     27 C          -7.7075    6.2305   25.7466 C.ar    1  UNL1        0.0000
     28 C          -6.8954    6.3568   27.0014 C.ar    1  UNL1        0.0006
     29 C          -5.6011    5.6106   27.1354 C.ar    1  UNL1        0.0082
     30 N           7.2949   -2.1369   18.0473 N.3     1  UNL1       -0.3175
     31 C           6.3650   -1.8069   19.1772 C.3     1  UNL1        0.0922
     32 H           8.1612   -2.5237   18.4219 H       1  UNL1        0.1192
     33 H           7.5016   -1.2895   17.5185 H       1  UNL1        0.1192
@<TRIPOS>BOND
     1    30    31    1
     2    31     1    1
     3     1     2   ar
     4     2     3   ar
     5     3     4   ar
     6     4     5   ar
     7     5     6   ar
     8     5     7    1
     9     7     8    1
    10     8     9    1
    11     9    10    1
    12    10    11   am
    13    11    12    2
    14    11    17    1
    15    17    18   ar
    16    18    19   ar
    17    19    20   ar
    18    20    22    1
    19    22    23    3
    20    23    24    1
    21    24    25   ar
    22    25    26   ar
    23    26    27   ar
    24    27    28   ar
    25    28    29   ar
    26    20    21   ar
    27    10    13    1
    28    13    14    1
    29     7    15    1
    30    15    16    1
    31     6     1   ar
    32    14     7    1
    33    16     4    1
    34    21    17   ar
    35    29    24   ar
    36    30    32    1
    37    30    33    1
@<TRIPOS>MOLECULE
*****
 33 37 0 0 0
SMALL
GASTEIGER

@<TRIPOS>ATOM
      1 C          -3.3436    3.9247   25.7830 C.ar    1  UNL1       -0.0067
      2 C          -3.5491    4.4595   24.3966 C.ar    1  UNL1        0.0002
      3 C          -2.5176    4.2109   23.3364 C.ar    1  UNL1        0.0363
      4 C          -1.2807    3.4276   23.6624 C.ar    1  UNL1        0.1346
      5 C          -1.0752    2.8928   25.0486 C.ar    1  UNL1        0.0145
      6 C          -2.1067    3.1413   26.1089 C.ar    1  UNL1       -0.0041
      7 C           0.2340    2.1609   25.0739 C.3     1  UNL1        0.0654
      8 C           1.5577    1.4669   24.9474 C.3     1  UNL1        0.0293
      9 C           2.1578    0.7743   26.1348 C.3     1  UNL1        0.0943
     10 N           1.4342    0.7755   27.4487 N.am    1  UNL1       -0.2736
     11 C           2.0343    0.0828   28.6362 C.2     1  UNL1        0.2838
     12 O           1.3106    0.0840   29.9501 O.2     1  UNL1       -0.2666
     13 C           0.1104    1.4694   27.5752 C.3     1  UNL1        0.0943
     14 C          -0.4897    2.1621   26.3878 C.3     1  UNL1        0.0293
     15 C           0.8376    2.2433   23.7031 C.3     1  UNL1        0.2094
     16 O          -0.0985    3.0262   22.8307 O.3     1  UNL1       -0.4754
     17 C           3.3581   -0.6112   28.5097 C.ar    1  UNL1        0.1995
     18 C           4.6002   -0.2890   29.2866 C.ar    1  UNL1        0.0460
     19 C           5.6820   -1.2278   28.8412 C.ar    1  UNL1        0.0495
     20 C           5.1085   -2.1302   27.7891 C.ar    1  UNL1        0.1873
     21 O           3.6723   -1.7490   27.5842 O.2     1  UNL1       -0.4407
     22 C           5.8424   -3.2220   27.0684 C.1     1  UNL1       -0.0225
     23 C           6.5763   -4.3137   26.3477 C.1     1  UNL1       -0.0568
     24 C           7.3102   -5.4055   25.6270 C.ar    1  UNL1        0.0421
     25 C           7.5532   -6.7207   26.3059 C.ar    1  UNL1        0.0082
     26 C           8.2871   -7.8125   25.5852 C.ar    1  UNL1        0.0006
     27 C           8.7780   -7.5890   24.1855 C.ar    1  UNL1        0.0000
     28 C           8.5350   -6.2737   23.5066 C.ar    1  UNL1        0.0006
     29 C           7.8011   -5.1820   24.2273 C.ar    1  UNL1        0.0082
     30 N          -4.3595    5.4573   27.6185 N.3     1  UNL1       -0.3175
     31 C          -4.3751    4.1732   26.8432 C.3     1  UNL1        0.0922
     32 H          -5.1254    5.4571   28.2922 H       1  UNL1        0.1192
     33 H          -4.4708    6.2429   26.9775 H       1  UNL1        0.1192
@<TRIPOS>BOND
     1    30    31    1
     2    31     1    1
     3     1     2   ar
     4     2     3   ar
     5     3     4   ar
     6     4     5   ar
     7     5     6   ar
     8     5     7    1
     9     7     8    1
    10     8     9    1
    11     9    10    1
    12    10    11   am
    13    11    12    2
    14    11    17    1
    15    17    18   ar
    16    18    19   ar
    17    19    20   ar
    18    20    22    1
    19    22    23    3
    20    23    24    1
    21    24    25   ar
    22    25    26   ar
    23    26    27   ar
    24    27    28   ar
    25    28    29   ar
    26    20    21   ar
    27    10    13    1
    28    13    14    1
    29     7    15    1
    30    15    16    1
    31     6     1   ar
    32    14     7    1
    33    16     4    1
    34    21    17   ar
    35    29    24   ar
    36    30    32    1
    37    30    33    1
