@<TRIPOS>MOLECULE
*****
 16 18 0 0 0
SMALL
GASTEIGER

@<TRIPOS>ATOM
      1 C          -5.9764  -16.4079   23.6529 C.ar    1  UNL1        0.1445
      2 C          -7.4449  -16.6651   23.4884 C.ar    1  UNL1        0.0718
      3 C          -8.6544  -15.9013   23.9397 C.ar    1  UNL1        0.0467
      4 C          -9.8719  -16.6485   23.4821 C.ar    1  UNL1        0.1797
      5 O          -9.4149  -17.8742   22.7480 O.2     1  UNL1       -0.4502
      6 C          -7.9149  -17.8845   22.7519 C.ar    1  UNL1        0.1514
      7 C          -6.9163  -18.8466   22.1800 C.ar    1  UNL1        0.0753
      8 C          -5.4477  -18.5893   22.3446 C.ar    1  UNL1        0.1546
      9 O          -4.4491  -19.5515   21.7726 O.2     1  UNL1       -0.4208
     10 C          -2.9805  -19.2943   21.9372 C.ar    1  UNL1        0.3459
     11 O          -1.9819  -20.2564   21.3652 O.2     1  UNL1       -0.2445
     12 C          -2.5104  -18.0750   22.6736 C.ar    1  UNL1        0.0825
     13 C          -3.5091  -17.1129   23.2455 C.ar    1  UNL1        0.0127
     14 C          -4.9777  -17.3701   23.0810 C.ar    1  UNL1        0.0690
     15 C          -5.4519  -15.1924   25.8884 C.3     1  UNL1        0.2525
     16 O          -5.5063  -15.1886   24.3894 O.3     1  UNL1       -0.4712
@<TRIPOS>BOND
     1    15    16    1
     2    16     1    1
     3     1     2   ar
     4     2     3   ar
     5     3     4   ar
     6     4     5   ar
     7     5     6   ar
     8     6     7   ar
     9     7     8   ar
    10     8     9   ar
    11     9    10   ar
    12    10    11    2
    13    10    12   ar
    14    12    13   ar
    15    13    14   ar
    16    14     1   ar
    17     6     2   ar
    18    14     8   ar
@<TRIPOS>MOLECULE
*****
 16 18 0 0 0
SMALL
GASTEIGER

@<TRIPOS>ATOM
      1 C         -10.4048  -18.2570   21.2620 C.ar    1  UNL1        0.1445
      2 C          -9.0450  -18.8864   21.3319 C.ar    1  UNL1        0.0718
      3 C          -7.9129  -18.9415   20.3494 C.ar    1  UNL1        0.0467
      4 C          -6.7923  -19.7168   20.9765 C.ar    1  UNL1        0.1797
      5 O          -7.2319  -20.1408   22.3465 O.2     1  UNL1       -0.4502
      6 C          -8.6241  -19.6276   22.5662 C.ar    1  UNL1        0.1514
      7 C          -9.5630  -19.7394   23.7306 C.ar    1  UNL1        0.0753
      8 C         -10.9228  -19.1101   23.6608 C.ar    1  UNL1        0.1546
      9 O         -11.8616  -19.2219   24.8254 O.2     1  UNL1       -0.4208
     10 C         -13.2214  -18.5925   24.7555 C.ar    1  UNL1        0.3459
     11 O         -14.1603  -18.7043   25.9200 O.2     1  UNL1       -0.2445
     12 C         -13.6424  -17.8513   23.5212 C.ar    1  UNL1        0.0825
     13 C         -12.7035  -17.7395   22.3568 C.ar    1  UNL1        0.0127
     14 C         -11.3436  -18.3689   22.4266 C.ar    1  UNL1        0.0690
     15 C         -11.0643  -16.0361   20.0863 C.3     1  UNL1        0.2525
     16 O         -10.8257  -17.5158   20.0277 O.3     1  UNL1       -0.4712
@<TRIPOS>BOND
     1    15    16    1
     2    16     1    1
     3     1     2   ar
     4     2     3   ar
     5     3     4   ar
     6     4     5   ar
     7     5     6   ar
     8     6     7   ar
     9     7     8   ar
    10     8     9   ar
    11     9    10   ar
    12    10    11    2
    13    10    12   ar
    14    12    13   ar
    15    13    14   ar
    16    14     1   ar
    17     6     2   ar
    18    14     8   ar
@<TRIPOS>MOLECULE
*****
 16 18 0 0 0
SMALL
GASTEIGER

@<TRIPOS>ATOM
      1 C         -10.1293  -17.4339   22.6884 C.ar    1  UNL1        0.1445
      2 C          -9.9591  -18.3590   21.5201 C.ar    1  UNL1        0.0718
      3 C         -10.9499  -19.1202   20.6900 C.ar    1  UNL1        0.0467
      4 C         -10.1899  -19.8876   19.6491 C.ar    1  UNL1        0.1797
      5 O          -8.7294  -19.6008   19.8359 O.2     1  UNL1       -0.4502
      6 C          -8.5868  -18.6561   20.9923 C.ar    1  UNL1        0.1514
      7 C          -7.3847  -18.0279   21.6328 C.ar    1  UNL1        0.0753
      8 C          -7.5548  -17.1028   22.8012 C.ar    1  UNL1        0.1546
      9 O          -6.3526  -16.4746   23.4417 O.2     1  UNL1       -0.4208
     10 C          -6.5228  -15.5494   24.6100 C.ar    1  UNL1        0.3459
     11 O          -5.3207  -14.9213   25.2506 O.2     1  UNL1       -0.2445
     12 C          -7.8951  -15.2523   25.1379 C.ar    1  UNL1        0.0825
     13 C          -9.0972  -15.8805   24.4974 C.ar    1  UNL1        0.0127
     14 C          -8.9270  -16.8057   23.3290 C.ar    1  UNL1        0.0690
     15 C         -12.3706  -16.1305   22.5219 C.3     1  UNL1        0.2525
     16 O         -11.5016  -17.1367   23.2163 O.3     1  UNL1       -0.4712
@<TRIPOS>BOND
     1    15    16    1
     2    16     1    1
     3     1     2   ar
     4     2     3   ar
     5     3     4   ar
     6     4     5   ar
     7     5     6   ar
     8     6     7   ar
     9     7     8   ar
    10     8     9   ar
    11     9    10   ar
    12    10    11    2
    13    10    12   ar
    14    12    13   ar
    15    13    14   ar
    16    14     1   ar
    17     6     2   ar
    18    14     8   ar
@<TRIPOS>MOLECULE
*****
 16 18 0 0 0
SMALL
GASTEIGER

@<TRIPOS>ATOM
      1 C          -7.3201  -17.9765   22.2917 C.ar    1  UNL1        0.1445
      2 C          -8.4649  -18.4164   21.4281 C.ar    1  UNL1        0.0718
      3 C          -9.9160  -18.0368   21.4152 C.ar    1  UNL1        0.0467
      4 C         -10.5869  -18.8075   20.3170 C.ar    1  UNL1        0.1797
      5 O          -9.5504  -19.6633   19.6511 O.2     1  UNL1       -0.4502
      6 C          -8.2389  -19.4216   20.3378 C.ar    1  UNL1        0.1514
      7 C          -6.8681  -19.9869   20.1113 C.ar    1  UNL1        0.0753
      8 C          -5.7233  -19.5470   20.9749 C.ar    1  UNL1        0.1546
      9 O          -4.3525  -20.1124   20.7483 O.2     1  UNL1       -0.4208
     10 C          -3.2077  -19.6726   21.6120 C.ar    1  UNL1        0.3459
     11 O          -1.8369  -20.2379   21.3854 O.2     1  UNL1       -0.2445
     12 C          -3.4336  -18.6674   22.7022 C.ar    1  UNL1        0.0825
     13 C          -4.8044  -18.1021   22.9288 C.ar    1  UNL1        0.0127
     14 C          -5.9493  -18.5419   22.0651 C.ar    1  UNL1        0.0690
     15 C          -7.6621  -15.5141   23.0461 C.3     1  UNL1        0.2525
     16 O          -7.5460  -16.9713   23.3820 O.3     1  UNL1       -0.4712
@<TRIPOS>BOND
     1    15    16    1
     2    16     1    1
     3     1     2   ar
     4     2     3   ar
     5     3     4   ar
     6     4     5   ar
     7     5     6   ar
     8     6     7   ar
     9     7     8   ar
    10     8     9   ar
    11     9    10   ar
    12    10    11    2
    13    10    12   ar
    14    12    13   ar
    15    13    14   ar
    16    14     1   ar
    17     6     2   ar
    18    14     8   ar
@<TRIPOS>MOLECULE
*****
 16 18 0 0 0
SMALL
GASTEIGER

@<TRIPOS>ATOM
      1 C          -7.1062  -17.9886   22.3557 C.ar    1  UNL1        0.1445
      2 C          -7.2506  -16.8249   23.2911 C.ar    1  UNL1        0.0718
      3 C          -8.4500  -16.0525   23.7545 C.ar    1  UNL1        0.0467
      4 C          -7.9782  -14.9859   24.6979 C.ar    1  UNL1        0.1797
      5 O          -6.4873  -15.0991   24.8174 O.2     1  UNL1       -0.4502
      6 C          -6.0375  -16.2357   23.9479 C.ar    1  UNL1        0.1514
      7 C          -4.6802  -16.8102   23.6694 C.ar    1  UNL1        0.0753
      8 C          -4.5359  -17.9740   22.7341 C.ar    1  UNL1        0.1546
      9 O          -3.1785  -18.5485   22.4557 O.2     1  UNL1       -0.4208
     10 C          -3.0342  -19.7122   21.5203 C.ar    1  UNL1        0.3459
     11 O          -1.6769  -20.2868   21.2419 O.2     1  UNL1       -0.2445
     12 C          -4.2472  -20.3015   20.8634 C.ar    1  UNL1        0.0825
     13 C          -5.6045  -19.7270   21.1419 C.ar    1  UNL1        0.0127
     14 C          -5.7488  -18.5631   22.0773 C.ar    1  UNL1        0.0690
     15 C          -9.2450  -19.4579   22.4853 C.3     1  UNL1        0.2525
     16 O          -8.3192  -18.5779   21.6988 O.3     1  UNL1       -0.4712
@<TRIPOS>BOND
     1    15    16    1
     2    16     1    1
     3     1     2   ar
     4     2     3   ar
     5     3     4   ar
     6     4     5   ar
     7     5     6   ar
     8     6     7   ar
     9     7     8   ar
    10     8     9   ar
    11     9    10   ar
    12    10    11    2
    13    10    12   ar
    14    12    13   ar
    15    13    14   ar
    16    14     1   ar
    17     6     2   ar
    18    14     8   ar
@<TRIPOS>MOLECULE
*****
 16 18 0 0 0
SMALL
GASTEIGER

@<TRIPOS>ATOM
      1 C          -8.9030  -17.1696   22.3102 C.ar    1  UNL1        0.1445
      2 C         -10.2729  -17.0524   21.7107 C.ar    1  UNL1        0.0718
      3 C         -11.4421  -16.1734   22.0430 C.ar    1  UNL1        0.0467
      4 C         -12.5554  -16.5045   21.0939 C.ar    1  UNL1        0.1797
      5 O         -12.0744  -17.5882   20.1750 O.2     1  UNL1       -0.4502
      6 C         -10.6637  -17.9268   20.5562 C.ar    1  UNL1        0.1514
      7 C          -9.6845  -18.9184   20.0013 C.ar    1  UNL1        0.0753
      8 C          -8.3146  -19.0356   20.6008 C.ar    1  UNL1        0.1546
      9 O          -7.3354  -20.0272   20.0458 O.2     1  UNL1       -0.4208
     10 C          -5.9654  -20.1444   20.6453 C.ar    1  UNL1        0.3459
     11 O          -4.9862  -21.1360   20.0904 O.2     1  UNL1       -0.2445
     12 C          -5.5745  -19.2700   21.7998 C.ar    1  UNL1        0.0825
     13 C          -6.5537  -18.2785   22.3547 C.ar    1  UNL1        0.0127
     14 C          -7.9238  -18.1613   21.7552 C.ar    1  UNL1        0.0690
     15 C          -8.9388  -16.6560   24.8567 C.3     1  UNL1        0.2525
     16 O          -8.5121  -16.2953   23.4647 O.3     1  UNL1       -0.4712
@<TRIPOS>BOND
     1    15    16    1
     2    16     1    1
     3     1     2   ar
     4     2     3   ar
     5     3     4   ar
     6     4     5   ar
     7     5     6   ar
     8     6     7   ar
     9     7     8   ar
    10     8     9   ar
    11     9    10   ar
    12    10    11    2
    13    10    12   ar
    14    12    13   ar
    15    13    14   ar
    16    14     1   ar
    17     6     2   ar
    18    14     8   ar
@<TRIPOS>MOLECULE
*****
 16 18 0 0 0
SMALL
GASTEIGER

@<TRIPOS>ATOM
      1 C          -7.3916  -17.4511   22.4083 C.ar    1  UNL1        0.1445
      2 C          -6.8264  -16.6085   23.5132 C.ar    1  UNL1        0.0718
      3 C          -5.4157  -16.2969   23.9164 C.ar    1  UNL1        0.0467
      4 C          -5.4644  -15.3892   25.1096 C.ar    1  UNL1        0.1797
      5 O          -6.9053  -15.1399   25.4438 O.2     1  UNL1       -0.4502
      6 C          -7.7471  -15.8935   24.4572 C.ar    1  UNL1        0.1514
      7 C          -9.2330  -16.0211   24.2963 C.ar    1  UNL1        0.0753
      8 C          -9.7982  -16.8636   23.1915 C.ar    1  UNL1        0.1546
      9 O         -11.2841  -16.9911   23.0307 O.2     1  UNL1       -0.4208
     10 C         -11.8493  -17.8337   21.9259 C.ar    1  UNL1        0.3459
     11 O         -13.3352  -17.9612   21.7651 O.2     1  UNL1       -0.2445
     12 C         -10.9287  -18.5487   20.9818 C.ar    1  UNL1        0.0825
     13 C          -9.4428  -18.4212   21.1427 C.ar    1  UNL1        0.0127
     14 C          -8.8776  -17.5786   22.2476 C.ar    1  UNL1        0.0690
     15 C          -5.8041  -19.4409   21.8886 C.3     1  UNL1        0.2525
     16 O          -6.4710  -18.1661   21.4643 O.3     1  UNL1       -0.4712
@<TRIPOS>BOND
     1    15    16    1
     2    16     1    1
     3     1     2   ar
     4     2     3   ar
     5     3     4   ar
     6     4     5   ar
     7     5     6   ar
     8     6     7   ar
     9     7     8   ar
    10     8     9   ar
    11     9    10   ar
    12    10    11    2
    13    10    12   ar
    14    12    13   ar
    15    13    14   ar
    16    14     1   ar
    17     6     2   ar
    18    14     8   ar
@<TRIPOS>MOLECULE
*****
 16 18 0 0 0
SMALL
GASTEIGER

@<TRIPOS>ATOM
      1 C          -8.2451  -17.2012   22.4195 C.ar    1  UNL1        0.1445
      2 C          -7.3038  -18.3632   22.3029 C.ar    1  UNL1        0.0718
      3 C          -5.8309  -18.4382   22.0291 C.ar    1  UNL1        0.0467
      4 C          -5.4324  -19.8842   22.0297 C.ar    1  UNL1        0.1797
      5 O          -6.6589  -20.7030   22.3038 O.2     1  UNL1       -0.4502
      6 C          -7.8155  -19.7630   22.4727 C.ar    1  UNL1        0.1514
      7 C          -9.2686  -20.0007   22.7591 C.ar    1  UNL1        0.0753
      8 C         -10.2099  -18.8387   22.8758 C.ar    1  UNL1        0.1546
      9 O         -11.6631  -19.0765   23.1622 O.2     1  UNL1       -0.4208
     10 C         -12.6044  -17.9145   23.2788 C.ar    1  UNL1        0.3459
     11 O         -14.0574  -18.1523   23.5653 O.2     1  UNL1       -0.2445
     12 C         -12.0927  -16.5147   23.1090 C.ar    1  UNL1        0.0825
     13 C         -10.6396  -16.2770   22.8226 C.ar    1  UNL1        0.0127
     14 C          -9.6982  -17.4391   22.7060 C.ar    1  UNL1        0.0690
     15 C          -7.1360  -15.0745   23.4179 C.3     1  UNL1        0.2525
     16 O          -7.7335  -15.8014   22.2497 O.3     1  UNL1       -0.4712
@<TRIPOS>BOND
     1    15    16    1
     2    16     1    1
     3     1     2   ar
     4     2     3   ar
     5     3     4   ar
     6     4     5   ar
     7     5     6   ar
     8     6     7   ar
     9     7     8   ar
    10     8     9   ar
    11     9    10   ar
    12    10    11    2
    13    10    12   ar
    14    12    13   ar
    15    13    14   ar
    16    14     1   ar
    17     6     2   ar
    18    14     8   ar
@<TRIPOS>MOLECULE
*****
 16 18 0 0 0
SMALL
GASTEIGER

@<TRIPOS>ATOM
      1 C          -9.1996  -18.9557   20.7329 C.ar    1  UNL1        0.1445
      2 C         -10.2447  -17.8963   20.9210 C.ar    1  UNL1        0.0718
      3 C         -11.6573  -17.7814   20.4295 C.ar    1  UNL1        0.0467
      4 C         -12.2216  -16.4885   20.9391 C.ar    1  UNL1        0.1797
      5 O         -11.1579  -15.8042   21.7456 O.2     1  UNL1       -0.4502
      6 C          -9.9361  -16.6743   21.7343 C.ar    1  UNL1        0.1514
      7 C          -8.5824  -16.5117   22.3596 C.ar    1  UNL1        0.0753
      8 C          -7.5373  -17.5712   22.1716 C.ar    1  UNL1        0.1546
      9 O          -6.1835  -17.4086   22.7969 O.2     1  UNL1       -0.4208
     10 C          -5.1385  -18.4680   22.6089 C.ar    1  UNL1        0.3459
     11 O          -3.7847  -18.3054   23.2342 O.2     1  UNL1       -0.2445
     12 C          -5.4470  -19.6900   21.7955 C.ar    1  UNL1        0.0825
     13 C          -6.8007  -19.8526   21.1702 C.ar    1  UNL1        0.0127
     14 C          -7.8459  -18.7931   21.3583 C.ar    1  UNL1        0.0690
     15 C          -9.1101  -20.2370   18.4746 C.3     1  UNL1        0.2525
     16 O          -9.5082  -20.1777   19.9195 O.3     1  UNL1       -0.4712
@<TRIPOS>BOND
     1    15    16    1
     2    16     1    1
     3     1     2   ar
     4     2     3   ar
     5     3     4   ar
     6     4     5   ar
     7     5     6   ar
     8     6     7   ar
     9     7     8   ar
    10     8     9   ar
    11     9    10   ar
    12    10    11    2
    13    10    12   ar
    14    12    13   ar
    15    13    14   ar
    16    14     1   ar
    17     6     2   ar
    18    14     8   ar
