@<TRIPOS>MOLECULE
*****
 40 45 0 0 0
SMALL
GASTEIGER

@<TRIPOS>ATOM
      1 C           1.8652    2.2031   29.5437 C.2     1  UNL1        0.2553
      2 O           0.5553    2.7167   30.0640 O.2     1  UNL1       -0.2720
      3 N           1.9776    1.7402   28.1214 N.am    1  UNL1       -0.2773
      4 C           0.7802    1.7910   27.2193 C.3     1  UNL1        0.0949
      5 C           0.8927    1.3281   25.7969 C.3     1  UNL1        0.0375
      6 C           2.2025    0.8145   25.2767 C.3     1  UNL1        0.0615
      7 C           3.3999    0.7637   26.1788 C.3     1  UNL1        0.0375
      8 C           3.2874    1.2266   27.6012 C.3     1  UNL1        0.0949
      9 N           2.3149    0.3516   23.8544 N.3     1  UNL1       -0.2664
     10 C           1.5681    1.1695   22.8427 C.3     1  UNL1        0.0994
     11 C           1.4812    0.9699   21.3586 C.ar    1  UNL1       -0.0061
     12 C           0.6247    2.0190   20.7138 C.ar    1  UNL1       -0.0029
     13 C           0.4068    2.0012   19.2298 C.ar    1  UNL1       -0.0003
     14 C           1.0453    0.9343   18.3907 C.ar    1  UNL1       -0.0000
     15 C           1.9017   -0.1148   19.0356 C.ar    1  UNL1       -0.0003
     16 C           2.1197   -0.0970   20.5195 C.ar    1  UNL1       -0.0029
     17 C           3.0028   -1.2277   20.9573 C.ar    1  UNL1       -0.0029
     18 C           3.4301   -2.0717   19.7932 C.ar    1  UNL1       -0.0003
     19 C           4.3201   -3.2588   20.0141 C.ar    1  UNL1       -0.0000
     20 C           4.7827   -3.6019   21.3991 C.ar    1  UNL1       -0.0003
     21 C           4.3554   -2.7579   22.5632 C.ar    1  UNL1       -0.0029
     22 C           3.4655   -1.5709   22.3423 C.ar    1  UNL1       -0.0061
     23 C           3.1593   -0.8680   23.6316 C.3     1  UNL1        0.0994
     24 N           4.4218    0.2824   32.3578 N.3     1  UNL1       -0.2688
     25 C           4.9936    1.6465   32.1087 C.3     1  UNL1        0.0756
     26 C           4.3140    2.5815   31.1527 C.3     1  UNL1        0.0590
     27 C           3.0625    2.1523   30.4459 C.3     1  UNL1        0.2042
     28 F           3.2185    3.5341   29.8834 F       1  UNL1       -0.2306
     29 C           2.4907    0.7882   30.6951 C.3     1  UNL1        0.0590
     30 C           3.1703   -0.1468   31.6511 C.3     1  UNL1        0.0756
     31 C           5.1015   -0.6525   33.3138 C.3     1  UNL1        0.0993
     32 N           6.4558   -5.5289   32.1363 N.pl3   1  UNL1       -0.3426
     33 C           6.7962   -4.0705   32.2204 C.ar    1  UNL1        0.1251
     34 C           5.7787   -3.0907   32.7251 C.ar    1  UNL1        0.0310
     35 C           6.1191   -1.6322   32.8092 C.ar    1  UNL1       -0.0018
     36 C           7.4770   -1.1535   32.3887 C.ar    1  UNL1        0.0179
     37 C           8.4946   -2.1333   31.8840 C.ar    1  UNL1        0.1000
     38 N           8.1542   -3.5917   31.7999 N.ar    1  UNL1       -0.2296
     39 H           5.5645   -5.8431   32.4123 H       1  UNL1        0.1437
     40 H           7.1237   -6.1719   31.8051 H       1  UNL1        0.1437
@<TRIPOS>BOND
     1    32    33    1
     2    33    34   ar
     3    34    35   ar
     4    35    31    1
     5    31    24    1
     6    24    25    1
     7    25    26    1
     8    26    27    1
     9    27    28    1
    10    27     1    1
    11     1     2    2
    12     1     3   am
    13     3     4    1
    14     4     5    1
    15     5     6    1
    16     6     9    1
    17     9    10    1
    18    10    11    1
    19    11    12   ar
    20    12    13   ar
    21    13    14   ar
    22    14    15   ar
    23    15    16   ar
    24    16    17    1
    25    17    18   ar
    26    18    19   ar
    27    19    20   ar
    28    20    21   ar
    29    21    22   ar
    30    22    23    1
    31     6     7    1
    32     7     8    1
    33    27    29    1
    34    29    30    1
    35    35    36   ar
    36    36    37   ar
    37    37    38   ar
    38    38    33   ar
    39    30    24    1
    40     8     3    1
    41    23     9    1
    42    16    11   ar
    43    22    17   ar
    44    32    39    1
    45    32    40    1
@<TRIPOS>MOLECULE
*****
 40 45 0 0 0
SMALL
GASTEIGER

@<TRIPOS>ATOM
      1 C           1.6710    1.8773   29.5151 C.2     1  UNL1        0.2553
      2 O           0.3329    2.2126   30.1046 O.2     1  UNL1       -0.2720
      3 N           1.7824    1.5198   28.0627 N.am    1  UNL1       -0.2773
      4 C           0.5557    1.4974   27.1996 C.3     1  UNL1        0.0949
      5 C           0.6672    1.1398   25.7471 C.3     1  UNL1        0.0375
      6 C           2.0052    0.8045   25.1577 C.3     1  UNL1        0.0615
      7 C           3.2318    0.8269   26.0208 C.3     1  UNL1        0.0375
      8 C           3.1204    1.1845   27.4733 C.3     1  UNL1        0.0949
      9 N           2.1166    0.4469   23.7053 N.3     1  UNL1       -0.2664
     10 C           2.9662   -0.7490   23.3927 C.3     1  UNL1        0.0994
     11 C           3.2728   -1.3548   22.0551 C.ar    1  UNL1       -0.0061
     12 C           4.1689   -2.5504   22.1874 C.ar    1  UNL1       -0.0029
     13 C           4.5975   -3.3053   20.9642 C.ar    1  UNL1       -0.0003
     14 C           4.1301   -2.8646   19.6087 C.ar    1  UNL1       -0.0000
     15 C           3.2340   -1.6690   19.4764 C.ar    1  UNL1       -0.0003
     16 C           2.8054   -0.9141   20.6997 C.ar    1  UNL1       -0.0029
     17 C           1.9159    0.2412   20.3471 C.ar    1  UNL1       -0.0029
     18 C           1.6947    0.3304   18.8661 C.ar    1  UNL1       -0.0003
     19 C           0.8318    1.4194   18.3009 C.ar    1  UNL1       -0.0000
     20 C           0.1902    2.4192   19.2167 C.ar    1  UNL1       -0.0003
     21 C           0.4114    2.3300   20.6976 C.ar    1  UNL1       -0.0029
     22 C           1.2743    1.2411   21.2627 C.ar    1  UNL1       -0.0061
     23 C           1.3636    1.3326   22.7573 C.3     1  UNL1        0.0994
     24 N           4.4543    0.1014   32.2065 N.3     1  UNL1       -0.2688
     25 C           4.9143    1.5092   31.9689 C.3     1  UNL1        0.0756
     26 C           4.1359    2.4084   31.0549 C.3     1  UNL1        0.0590
     27 C           2.8975    1.8997   30.3783 C.3     1  UNL1        0.2042
     28 F           2.9315    3.2998   29.8410 F       1  UNL1       -0.2306
     29 C           2.4376    0.4919   30.6159 C.3     1  UNL1        0.0590
     30 C           3.2160   -0.4073   31.5299 C.3     1  UNL1        0.0756
     31 C           5.2328   -0.7978   33.1206 C.3     1  UNL1        0.0993
     32 N           6.5579   -5.7230   32.1276 N.pl3   1  UNL1       -0.3426
     33 C           6.8612   -4.2559   32.0532 C.ar    1  UNL1        0.1251
     34 C           5.8953   -3.2604   32.6241 C.ar    1  UNL1        0.0310
     35 C           6.1987   -1.7932   32.5497 C.ar    1  UNL1       -0.0018
     36 C           7.4680   -1.3216   31.9045 C.ar    1  UNL1        0.0179
     37 C           8.4340   -2.3172   31.3336 C.ar    1  UNL1        0.1000
     38 N           8.1306   -3.7843   31.4080 N.ar    1  UNL1       -0.2296
     39 H           5.7247   -6.0325   32.5511 H       1  UNL1        0.1437
     40 H           7.1918   -6.3764   31.7529 H       1  UNL1        0.1437
@<TRIPOS>BOND
     1    32    33    1
     2    33    34   ar
     3    34    35   ar
     4    35    31    1
     5    31    24    1
     6    24    25    1
     7    25    26    1
     8    26    27    1
     9    27    28    1
    10    27     1    1
    11     1     2    2
    12     1     3   am
    13     3     4    1
    14     4     5    1
    15     5     6    1
    16     6     9    1
    17     9    10    1
    18    10    11    1
    19    11    12   ar
    20    12    13   ar
    21    13    14   ar
    22    14    15   ar
    23    15    16   ar
    24    16    17    1
    25    17    18   ar
    26    18    19   ar
    27    19    20   ar
    28    20    21   ar
    29    21    22   ar
    30    22    23    1
    31     6     7    1
    32     7     8    1
    33    27    29    1
    34    29    30    1
    35    35    36   ar
    36    36    37   ar
    37    37    38   ar
    38    38    33   ar
    39    30    24    1
    40     8     3    1
    41    23     9    1
    42    16    11   ar
    43    22    17   ar
    44    32    39    1
    45    32    40    1
@<TRIPOS>MOLECULE
*****
 40 45 0 0 0
SMALL
GASTEIGER

@<TRIPOS>ATOM
      1 C          -1.9337    4.1545   18.9947 C.2     1  UNL1        0.2553
      2 O          -2.0610    4.4529   17.5302 O.2     1  UNL1       -0.2720
      3 N          -0.9430    3.1329   19.4687 N.am    1  UNL1       -0.2773
      4 C          -0.0794    2.4096   18.4780 C.3     1  UNL1        0.0949
      5 C           0.9114    1.3880   18.9521 C.3     1  UNL1        0.0375
      6 C           1.0386    1.0896   20.4165 C.3     1  UNL1        0.0615
      7 C           0.1751    1.8129   21.4072 C.3     1  UNL1        0.0375
      8 C          -0.8157    2.8346   20.9332 C.3     1  UNL1        0.0949
      9 N           2.0294    0.0681   20.8905 N.3     1  UNL1       -0.2664
     10 C           2.6003   -0.8260   19.8299 C.3     1  UNL1        0.0994
     11 C           3.6010   -1.9333   19.9792 C.ar    1  UNL1       -0.0061
     12 C           3.9034   -2.5803   18.6601 C.ar    1  UNL1       -0.0029
     13 C           4.8828   -3.7140   18.5878 C.ar    1  UNL1       -0.0003
     14 C           5.5599   -4.2008   19.8347 C.ar    1  UNL1       -0.0000
     15 C           5.2576   -3.5539   21.1537 C.ar    1  UNL1       -0.0003
     16 C           4.2781   -2.4202   21.2260 C.ar    1  UNL1       -0.0029
     17 C           4.1216   -1.9198   22.6314 C.ar    1  UNL1       -0.0029
     18 C           4.9868   -2.6881   23.5861 C.ar    1  UNL1       -0.0003
     19 C           4.9798   -2.3457   25.0465 C.ar    1  UNL1       -0.0000
     20 C           4.1076   -1.2350   25.5522 C.ar    1  UNL1       -0.0003
     21 C           3.2425   -0.4668   24.5975 C.ar    1  UNL1       -0.0029
     22 C           3.2495   -0.8092   23.1372 C.ar    1  UNL1       -0.0061
     23 C           2.3184    0.0755   22.3624 C.3     1  UNL1        0.0994
     24 N          -5.2683    4.4420   21.6295 N.3     1  UNL1       -0.2688
     25 C          -4.5388    5.7504   21.7044 C.3     1  UNL1        0.0756
     26 C          -3.3032    5.9684   20.8823 C.3     1  UNL1        0.0590
     27 C          -2.7973    4.8778   19.9853 C.3     1  UNL1        0.2042
     28 F          -1.7677    5.9350   19.7162 F       1  UNL1       -0.2306
     29 C          -3.5269    3.5694   19.9103 C.3     1  UNL1        0.0590
     30 C          -4.7624    3.3514   20.7325 C.3     1  UNL1        0.0756
     31 C          -6.5039    4.2241   22.4517 C.3     1  UNL1        0.0993
     32 N          -4.6555    4.7040   27.2841 N.pl3   1  UNL1       -0.3426
     33 C          -5.6785    5.0528   26.2440 C.ar    1  UNL1        0.1251
     34 C          -5.5797    4.4641   24.8679 C.ar    1  UNL1        0.0310
     35 C          -6.6027    4.8128   23.8277 C.ar    1  UNL1       -0.0018
     36 C          -7.7244    5.7503   24.1636 C.ar    1  UNL1        0.0179
     37 C          -7.8232    6.3391   25.5398 C.ar    1  UNL1        0.1000
     38 N          -6.8002    5.9903   26.5799 N.ar    1  UNL1       -0.2296
     39 H          -3.9193    4.0887   27.0636 H       1  UNL1        0.1437
     40 H          -4.7204    5.0904   28.1873 H       1  UNL1        0.1437
@<TRIPOS>BOND
     1    32    33    1
     2    33    34   ar
     3    34    35   ar
     4    35    31    1
     5    31    24    1
     6    24    25    1
     7    25    26    1
     8    26    27    1
     9    27    28    1
    10    27     1    1
    11     1     2    2
    12     1     3   am
    13     3     4    1
    14     4     5    1
    15     5     6    1
    16     6     9    1
    17     9    10    1
    18    10    11    1
    19    11    12   ar
    20    12    13   ar
    21    13    14   ar
    22    14    15   ar
    23    15    16   ar
    24    16    17    1
    25    17    18   ar
    26    18    19   ar
    27    19    20   ar
    28    20    21   ar
    29    21    22   ar
    30    22    23    1
    31     6     7    1
    32     7     8    1
    33    27    29    1
    34    29    30    1
    35    35    36   ar
    36    36    37   ar
    37    37    38   ar
    38    38    33   ar
    39    30    24    1
    40     8     3    1
    41    23     9    1
    42    16    11   ar
    43    22    17   ar
    44    32    39    1
    45    32    40    1
@<TRIPOS>MOLECULE
*****
 40 45 0 0 0
SMALL
GASTEIGER

@<TRIPOS>ATOM
      1 C          -1.9084    4.1977   18.9271 C.2     1  UNL1        0.2553
      2 O          -2.0231    4.4999   17.4622 O.2     1  UNL1       -0.2720
      3 N          -0.9244    3.1721   19.4065 N.am    1  UNL1       -0.2773
      4 C          -0.0551    2.4486   18.4211 C.3     1  UNL1        0.0949
      5 C           0.9288    1.4229   18.9006 C.3     1  UNL1        0.0375
      6 C           1.0435    1.1208   20.3654 C.3     1  UNL1        0.0615
      7 C           0.1742    1.8443   21.3508 C.3     1  UNL1        0.0375
      8 C          -0.8097    2.8700   20.8712 C.3     1  UNL1        0.0949
      9 N           2.0274    0.0952   20.8448 N.3     1  UNL1       -0.2664
     10 C           2.2998    0.0941   22.3198 C.3     1  UNL1        0.0994
     11 C           3.2210   -0.7962   23.1003 C.ar    1  UNL1       -0.0061
     12 C           3.1979   -0.4617   24.5623 C.ar    1  UNL1       -0.0029
     13 C           4.0512   -1.2364   25.5223 C.ar    1  UNL1       -0.0003
     14 C           4.9275   -2.3456   25.0204 C.ar    1  UNL1       -0.0000
     15 C           4.9505   -2.6800   23.5583 C.ar    1  UNL1       -0.0003
     16 C           4.0972   -1.9053   22.5983 C.ar    1  UNL1       -0.0029
     17 C           4.2688   -2.3980   21.1919 C.ar    1  UNL1       -0.0029
     18 C           5.2474   -3.5328   21.1244 C.ar    1  UNL1       -0.0003
     19 C           5.5638   -4.1730   19.8053 C.ar    1  UNL1       -0.0000
     20 C           4.9015   -3.6783   18.5536 C.ar    1  UNL1       -0.0003
     21 C           3.9228   -2.5435   18.6211 C.ar    1  UNL1       -0.0029
     22 C           3.6065   -1.9034   19.9402 C.ar    1  UNL1       -0.0061
     23 C           2.6090   -0.7938   19.7858 C.3     1  UNL1        0.0994
     24 N          -5.2415    4.4753   21.5648 N.3     1  UNL1       -0.2688
     25 C          -4.5253    5.7918   21.6264 C.3     1  UNL1        0.0756
     26 C          -3.2933    6.0148   20.8002 C.3     1  UNL1        0.0590
     27 C          -2.7777    4.9213   19.9124 C.3     1  UNL1        0.2042
     28 F          -1.7595    5.9865   19.6317 F       1  UNL1       -0.2306
     29 C          -3.4939    3.6048   19.8508 C.3     1  UNL1        0.0590
     30 C          -4.7259    3.3818   20.6770 C.3     1  UNL1        0.0756
     31 C          -6.4734    4.2525   22.3911 C.3     1  UNL1        0.0993
     32 N          -4.6821    4.6450   27.2528 N.pl3   1  UNL1       -0.3426
     33 C          -5.6743    5.0369   26.1984 C.ar    1  UNL1        0.1251
     34 C          -5.5778    4.4487   24.8219 C.ar    1  UNL1        0.0310
     35 C          -6.5700    4.8407   23.7674 C.ar    1  UNL1       -0.0018
     36 C          -7.6587    5.8210   24.0895 C.ar    1  UNL1        0.0179
     37 C          -7.7553    6.4093   25.4660 C.ar    1  UNL1        0.1000
     38 N          -6.7631    6.0173   26.5204 N.ar    1  UNL1       -0.2296
     39 H          -3.9675    4.0016   27.0415 H       1  UNL1        0.1437
     40 H          -4.7455    5.0310   28.1562 H       1  UNL1        0.1437
@<TRIPOS>BOND
     1    32    33    1
     2    33    34   ar
     3    34    35   ar
     4    35    31    1
     5    31    24    1
     6    24    25    1
     7    25    26    1
     8    26    27    1
     9    27    28    1
    10    27     1    1
    11     1     2    2
    12     1     3   am
    13     3     4    1
    14     4     5    1
    15     5     6    1
    16     6     9    1
    17     9    10    1
    18    10    11    1
    19    11    12   ar
    20    12    13   ar
    21    13    14   ar
    22    14    15   ar
    23    15    16   ar
    24    16    17    1
    25    17    18   ar
    26    18    19   ar
    27    19    20   ar
    28    20    21   ar
    29    21    22   ar
    30    22    23    1
    31     6     7    1
    32     7     8    1
    33    27    29    1
    34    29    30    1
    35    35    36   ar
    36    36    37   ar
    37    37    38   ar
    38    38    33   ar
    39    30    24    1
    40     8     3    1
    41    23     9    1
    42    16    11   ar
    43    22    17   ar
    44    32    39    1
    45    32    40    1
@<TRIPOS>MOLECULE
*****
 40 45 0 0 0
SMALL
GASTEIGER

@<TRIPOS>ATOM
      1 C           7.9049   -5.3866   25.3592 C.2     1  UNL1        0.2553
      2 O           9.0658   -6.2843   25.0481 O.2     1  UNL1       -0.2720
      3 N           7.3455   -4.4884   24.2961 N.am    1  UNL1       -0.2773
      4 C           7.9469   -4.4878   22.9219 C.3     1  UNL1        0.0949
      5 C           7.3874   -3.5895   21.8589 C.3     1  UNL1        0.0375
      6 C           6.2266   -2.6918   22.1700 C.3     1  UNL1        0.0615
      7 C           5.6252   -2.6925   23.5442 C.3     1  UNL1        0.0375
      8 C           6.1847   -3.5908   24.6072 C.3     1  UNL1        0.0949
      9 N           5.6672   -1.7936   21.1070 N.3     1  UNL1       -0.2664
     10 C           6.6715   -1.1877   20.1719 C.3     1  UNL1        0.0994
     11 C           6.4342   -0.2586   19.0185 C.ar    1  UNL1       -0.0061
     12 C           7.7195    0.1124   18.3402 C.ar    1  UNL1       -0.0029
     13 C           7.7044    1.0362   17.1585 C.ar    1  UNL1       -0.0003
     14 C           6.4040    1.5890   16.6552 C.ar    1  UNL1       -0.0000
     15 C           5.1187    1.2180   17.3335 C.ar    1  UNL1       -0.0003
     16 C           5.1338    0.2942   18.5152 C.ar    1  UNL1       -0.0029
     17 C           3.7496    0.0543   19.0410 C.ar    1  UNL1       -0.0029
     18 C           2.7230    0.8029   18.2436 C.ar    1  UNL1       -0.0003
     19 C           1.2709    0.6996   18.6050 C.ar    1  UNL1       -0.0000
     20 C           0.8453   -0.1522   19.7640 C.ar    1  UNL1       -0.0003
     21 C           1.8718   -0.9008   20.5614 C.ar    1  UNL1       -0.0029
     22 C           3.3238   -0.7975   20.2000 C.ar    1  UNL1       -0.0061
     23 C           4.1773   -1.6199   21.1194 C.3     1  UNL1        0.0994
     24 N           7.4666   -3.8664   29.3141 N.3     1  UNL1       -0.2688
     25 C           6.5316   -5.0325   29.1886 C.3     1  UNL1        0.0756
     26 C           6.4500   -5.7930   27.8982 C.3     1  UNL1        0.0590
     27 C           7.3036   -5.3873   26.7334 C.3     1  UNL1        0.2042
     28 F           6.5774   -6.5532   26.1306 F       1  UNL1       -0.2306
     29 C           8.2387   -4.2212   26.8589 C.3     1  UNL1        0.0590
     30 C           8.3202   -3.4607   28.1492 C.3     1  UNL1        0.0756
     31 C           7.5481   -3.1059   30.6045 C.3     1  UNL1        0.0993
     32 N           3.4860    0.1342   30.5825 N.pl3   1  UNL1       -0.3426
     33 C           4.2663   -0.9664   31.2382 C.ar    1  UNL1        0.1251
     34 C           5.5170   -1.4859   30.5935 C.ar    1  UNL1        0.0310
     35 C           6.2974   -2.5865   31.2492 C.ar    1  UNL1       -0.0018
     36 C           5.8270   -3.1674   32.5496 C.ar    1  UNL1        0.0179
     37 C           4.5761   -2.6479   33.1944 C.ar    1  UNL1        0.1000
     38 N           3.7958   -1.5474   32.5387 N.ar    1  UNL1       -0.2296
     39 H           3.7947    0.5155   29.7290 H       1  UNL1        0.1437
     40 H           2.6651    0.4751   31.0057 H       1  UNL1        0.1437
@<TRIPOS>BOND
     1    32    33    1
     2    33    34   ar
     3    34    35   ar
     4    35    31    1
     5    31    24    1
     6    24    25    1
     7    25    26    1
     8    26    27    1
     9    27    28    1
    10    27     1    1
    11     1     2    2
    12     1     3   am
    13     3     4    1
    14     4     5    1
    15     5     6    1
    16     6     9    1
    17     9    10    1
    18    10    11    1
    19    11    12   ar
    20    12    13   ar
    21    13    14   ar
    22    14    15   ar
    23    15    16   ar
    24    16    17    1
    25    17    18   ar
    26    18    19   ar
    27    19    20   ar
    28    20    21   ar
    29    21    22   ar
    30    22    23    1
    31     6     7    1
    32     7     8    1
    33    27    29    1
    34    29    30    1
    35    35    36   ar
    36    36    37   ar
    37    37    38   ar
    38    38    33   ar
    39    30    24    1
    40     8     3    1
    41    23     9    1
    42    16    11   ar
    43    22    17   ar
    44    32    39    1
    45    32    40    1
@<TRIPOS>MOLECULE
*****
 40 45 0 0 0
SMALL
GASTEIGER

@<TRIPOS>ATOM
      1 C           7.9093   -5.3674   25.3675 C.2     1  UNL1        0.2553
      2 O           9.0680   -6.2671   25.0540 O.2     1  UNL1       -0.2720
      3 N           7.3489   -4.4686   24.3054 N.am    1  UNL1       -0.2773
      4 C           7.9471   -4.4694   22.9298 C.3     1  UNL1        0.0949
      5 C           7.3866   -3.5705   21.8678 C.3     1  UNL1        0.0375
      6 C           6.2280   -2.6709   22.1813 C.3     1  UNL1        0.0615
      7 C           5.6298   -2.6701   23.5569 C.3     1  UNL1        0.0375
      8 C           6.1903   -3.5690   24.6189 C.3     1  UNL1        0.0949
      9 N           5.6676   -1.7721   21.1192 N.3     1  UNL1       -0.2664
     10 C           4.1778   -1.5985   21.1331 C.3     1  UNL1        0.0994
     11 C           3.3234   -0.7756   20.2149 C.ar    1  UNL1       -0.0061
     12 C           1.8716   -0.8791   20.5777 C.ar    1  UNL1       -0.0029
     13 C           0.8444   -0.1302   19.7816 C.ar    1  UNL1       -0.0003
     14 C           1.2690    0.7223   18.6227 C.ar    1  UNL1       -0.0000
     15 C           2.7207    0.8258   18.2599 C.ar    1  UNL1       -0.0003
     16 C           3.7479    0.0768   19.0560 C.ar    1  UNL1       -0.0029
     17 C           5.1317    0.3170   18.5291 C.ar    1  UNL1       -0.0029
     18 C           5.1156    1.2414   17.3479 C.ar    1  UNL1       -0.0003
     19 C           6.4002    1.6128   16.6685 C.ar    1  UNL1       -0.0000
     20 C           7.7011    1.0598   17.1704 C.ar    1  UNL1       -0.0003
     21 C           7.7173    0.1354   18.3516 C.ar    1  UNL1       -0.0029
     22 C           6.4326   -0.2360   19.0309 C.ar    1  UNL1       -0.0061
     23 C           6.6711   -1.1658   20.1836 C.3     1  UNL1        0.0994
     24 N           7.4674   -3.8323   29.3162 N.3     1  UNL1       -0.2688
     25 C           6.5419   -5.0068   29.1983 C.3     1  UNL1        0.0756
     26 C           6.4637   -5.7740   27.9118 C.3     1  UNL1        0.0590
     27 C           7.3112   -5.3667   26.7431 C.3     1  UNL1        0.2042
     28 F           6.5934   -6.5414   26.1474 F       1  UNL1       -0.2306
     29 C           8.2367   -4.1922   26.8610 C.3     1  UNL1        0.0590
     30 C           8.3149   -3.4250   28.1475 C.3     1  UNL1        0.0756
     31 C           7.5454   -3.0652   30.6029 C.3     1  UNL1        0.0993
     32 N           3.4140    0.0860   30.5814 N.pl3   1  UNL1       -0.3426
     33 C           4.2252   -0.9879   31.2436 C.ar    1  UNL1        0.1251
     34 C           5.4797   -1.4896   30.5921 C.ar    1  UNL1        0.0310
     35 C           6.2910   -2.5636   31.2544 C.ar    1  UNL1       -0.0018
     36 C           5.8476   -3.1359   32.5680 C.ar    1  UNL1        0.0179
     37 C           4.5930   -2.6343   33.2196 C.ar    1  UNL1        0.1000
     38 N           3.7818   -1.5603   32.5574 N.ar    1  UNL1       -0.2296
     39 H           3.7050    0.4617   29.7192 H       1  UNL1        0.1437
     40 H           2.5906    0.4153   31.0090 H       1  UNL1        0.1437
@<TRIPOS>BOND
     1    32    33    1
     2    33    34   ar
     3    34    35   ar
     4    35    31    1
     5    31    24    1
     6    24    25    1
     7    25    26    1
     8    26    27    1
     9    27    28    1
    10    27     1    1
    11     1     2    2
    12     1     3   am
    13     3     4    1
    14     4     5    1
    15     5     6    1
    16     6     9    1
    17     9    10    1
    18    10    11    1
    19    11    12   ar
    20    12    13   ar
    21    13    14   ar
    22    14    15   ar
    23    15    16   ar
    24    16    17    1
    25    17    18   ar
    26    18    19   ar
    27    19    20   ar
    28    20    21   ar
    29    21    22   ar
    30    22    23    1
    31     6     7    1
    32     7     8    1
    33    27    29    1
    34    29    30    1
    35    35    36   ar
    36    36    37   ar
    37    37    38   ar
    38    38    33   ar
    39    30    24    1
    40     8     3    1
    41    23     9    1
    42    16    11   ar
    43    22    17   ar
    44    32    39    1
    45    32    40    1
@<TRIPOS>MOLECULE
*****
 40 45 0 0 0
SMALL
GASTEIGER

@<TRIPOS>ATOM
      1 C           7.1747   -2.5029   30.2471 C.2     1  UNL1        0.2553
      2 O           8.5566   -3.0857   30.2793 O.2     1  UNL1       -0.2720
      3 N           6.4915   -2.2649   28.9332 N.am    1  UNL1       -0.2773
      4 C           7.1902   -2.6095   27.6513 C.3     1  UNL1        0.0949
      5 C           6.5069   -2.3714   26.3373 C.3     1  UNL1        0.0375
      6 C           5.1252   -1.7887   26.3052 C.3     1  UNL1        0.0615
      7 C           4.4265   -1.4440   27.5871 C.3     1  UNL1        0.0375
      8 C           5.1097   -1.6821   28.9010 C.3     1  UNL1        0.0949
      9 N           4.4420   -1.5506   24.9912 N.3     1  UNL1       -0.2664
     10 C           3.4148   -0.4575   24.9803 C.3     1  UNL1        0.0994
     11 C           2.5683    0.0191   23.8374 C.ar    1  UNL1       -0.0061
     12 C           1.6645    1.1409   24.2554 C.ar    1  UNL1       -0.0029
     13 C           0.7323    1.7639   23.2590 C.ar    1  UNL1       -0.0003
     14 C           0.7038    1.2650   21.8447 C.ar    1  UNL1       -0.0000
     15 C           1.6076    0.1433   21.4267 C.ar    1  UNL1       -0.0003
     16 C           2.5398   -0.4797   22.4231 C.ar    1  UNL1       -0.0029
     17 C           3.3509   -1.5783   21.8024 C.ar    1  UNL1       -0.0029
     18 C           3.0112   -1.7581   20.3524 C.ar    1  UNL1       -0.0003
     19 C           3.7113   -2.8089   19.5427 C.ar    1  UNL1       -0.0000
     20 C           4.7511   -3.6800   20.1830 C.ar    1  UNL1       -0.0003
     21 C           5.0908   -3.5003   21.6330 C.ar    1  UNL1       -0.0029
     22 C           4.3907   -2.4495   22.4426 C.ar    1  UNL1       -0.0061
     23 C           4.8762   -2.4371   23.8618 C.3     1  UNL1        0.0994
     24 N           6.3634    0.0419   33.5653 N.3     1  UNL1       -0.2688
     25 C           5.5086   -1.1793   33.7325 C.3     1  UNL1        0.0756
     26 C           5.5649   -2.2794   32.7144 C.3     1  UNL1        0.0590
     27 C           6.4761   -2.1583   31.5290 C.3     1  UNL1        0.2042
     28 F           5.8639   -3.4992   31.2510 F       1  UNL1       -0.2306
     29 C           7.3310   -0.9371   31.3619 C.3     1  UNL1        0.0590
     30 C           7.2746    0.1630   32.3800 C.3     1  UNL1        0.0756
     31 C           6.3070    1.1419   34.5835 C.3     1  UNL1        0.0993
     32 N           3.3136    0.7172   38.8094 N.pl3   1  UNL1       -0.3426
     33 C           3.5258    1.2230   37.4133 C.ar    1  UNL1        0.1251
     34 C           4.8103    0.9296   36.6965 C.ar    1  UNL1        0.0310
     35 C           5.0225    1.4354   35.3003 C.ar    1  UNL1       -0.0018
     36 C           3.9503    2.2346   34.6211 C.ar    1  UNL1        0.0179
     37 C           2.6657    2.5281   35.3380 C.ar    1  UNL1        0.1000
     38 N           2.4534    2.0223   36.7340 N.ar    1  UNL1       -0.2296
     39 H           4.0173    0.1926   39.2552 H       1  UNL1        0.1437
     40 H           2.4705    0.9098   39.2799 H       1  UNL1        0.1437
@<TRIPOS>BOND
     1    32    33    1
     2    33    34   ar
     3    34    35   ar
     4    35    31    1
     5    31    24    1
     6    24    25    1
     7    25    26    1
     8    26    27    1
     9    27    28    1
    10    27     1    1
    11     1     2    2
    12     1     3   am
    13     3     4    1
    14     4     5    1
    15     5     6    1
    16     6     9    1
    17     9    10    1
    18    10    11    1
    19    11    12   ar
    20    12    13   ar
    21    13    14   ar
    22    14    15   ar
    23    15    16   ar
    24    16    17    1
    25    17    18   ar
    26    18    19   ar
    27    19    20   ar
    28    20    21   ar
    29    21    22   ar
    30    22    23    1
    31     6     7    1
    32     7     8    1
    33    27    29    1
    34    29    30    1
    35    35    36   ar
    36    36    37   ar
    37    37    38   ar
    38    38    33   ar
    39    30    24    1
    40     8     3    1
    41    23     9    1
    42    16    11   ar
    43    22    17   ar
    44    32    39    1
    45    32    40    1
@<TRIPOS>MOLECULE
*****
 40 45 0 0 0
SMALL
GASTEIGER

@<TRIPOS>ATOM
      1 C           4.2722   -1.1266   19.9956 C.2     1  UNL1        0.2553
      2 O           5.1464   -1.0525   18.7788 O.2     1  UNL1       -0.2720
      3 N           4.7900   -1.7582   21.2537 N.am    1  UNL1       -0.2773
      4 C           6.1820   -2.3158   21.2951 C.3     1  UNL1        0.0949
      5 C           6.6998   -2.9474   22.5533 C.3     1  UNL1        0.0375
      6 C           5.8257   -3.0214   23.7700 C.3     1  UNL1        0.0615
      7 C           4.4337   -2.4639   23.7287 C.3     1  UNL1        0.0375
      8 C           3.9159   -1.8323   22.4705 C.3     1  UNL1        0.0949
      9 N           6.3435   -3.6530   25.0281 N.3     1  UNL1       -0.2664
     10 C           6.1954   -2.8342   26.2762 C.3     1  UNL1        0.0994
     11 C           6.6081   -3.1800   27.6762 C.ar    1  UNL1       -0.0061
     12 C           6.2761   -2.0746   28.6343 C.ar    1  UNL1       -0.0029
     13 C           6.6070   -2.2194   30.0901 C.ar    1  UNL1       -0.0003
     14 C           7.2698   -3.4696   30.5879 C.ar    1  UNL1       -0.0000
     15 C           7.6018   -4.5749   29.6299 C.ar    1  UNL1       -0.0003
     16 C           7.2709   -4.4302   28.1740 C.ar    1  UNL1       -0.0029
     17 C           7.6847   -5.6432   27.3947 C.ar    1  UNL1       -0.0029
     18 C           8.3179   -6.6744   28.2811 C.ar    1  UNL1       -0.0003
     19 C           8.8042   -7.9680   27.6981 C.ar    1  UNL1       -0.0000
     20 C           8.6574   -8.2305   26.2286 C.ar    1  UNL1       -0.0003
     21 C           8.0242   -7.1994   25.3421 C.ar    1  UNL1       -0.0029
     22 C           7.5379   -5.9058   25.9252 C.ar    1  UNL1       -0.0061
     23 C           6.9409   -5.0200   24.8720 C.3     1  UNL1        0.0994
     24 N           1.4447    2.0504   20.2324 N.3     1  UNL1       -0.2688
     25 C           0.6691    0.7949   19.9634 C.3     1  UNL1        0.0756
     26 C           1.3869   -0.5148   19.8242 C.3     1  UNL1        0.0590
     27 C           2.8803   -0.5690   19.9542 C.3     1  UNL1        0.2042
     28 F           2.5882   -2.0181   19.6995 F       1  UNL1       -0.2306
     29 C           3.6558    0.6864   20.2232 C.3     1  UNL1        0.0590
     30 C           2.9380    1.9961   20.3623 C.3     1  UNL1        0.0756
     31 C           0.7267    3.3601   20.3715 C.3     1  UNL1        0.0993
     32 N          -4.3810    2.7510   21.1060 N.pl3   1  UNL1       -0.3426
     33 C          -3.2364    3.1947   20.2441 C.ar    1  UNL1        0.1251
     34 C          -1.8271    3.0555   20.7387 C.ar    1  UNL1        0.0310
     35 C          -0.6824    3.4992   19.8768 C.ar    1  UNL1       -0.0018
     36 C          -0.9470    4.0821   18.5203 C.ar    1  UNL1        0.0179
     37 C          -2.3563    4.2213   18.0256 C.ar    1  UNL1        0.1000
     38 N          -3.5009    3.7776   18.8875 N.ar    1  UNL1       -0.2296
     39 H          -4.2074    2.3684   21.9963 H       1  UNL1        0.1437
     40 H          -5.3059    2.8423   20.7813 H       1  UNL1        0.1437
@<TRIPOS>BOND
     1    32    33    1
     2    33    34   ar
     3    34    35   ar
     4    35    31    1
     5    31    24    1
     6    24    25    1
     7    25    26    1
     8    26    27    1
     9    27    28    1
    10    27     1    1
    11     1     2    2
    12     1     3   am
    13     3     4    1
    14     4     5    1
    15     5     6    1
    16     6     9    1
    17     9    10    1
    18    10    11    1
    19    11    12   ar
    20    12    13   ar
    21    13    14   ar
    22    14    15   ar
    23    15    16   ar
    24    16    17    1
    25    17    18   ar
    26    18    19   ar
    27    19    20   ar
    28    20    21   ar
    29    21    22   ar
    30    22    23    1
    31     6     7    1
    32     7     8    1
    33    27    29    1
    34    29    30    1
    35    35    36   ar
    36    36    37   ar
    37    37    38   ar
    38    38    33   ar
    39    30    24    1
    40     8     3    1
    41    23     9    1
    42    16    11   ar
    43    22    17   ar
    44    32    39    1
    45    32    40    1
@<TRIPOS>MOLECULE
*****
 40 45 0 0 0
SMALL
GASTEIGER

@<TRIPOS>ATOM
      1 C           1.0104    3.1923   29.0525 C.2     1  UNL1        0.2553
      2 O           0.3752    4.4833   28.6280 O.2     1  UNL1       -0.2720
      3 N           1.5991    2.2724   28.0244 N.am    1  UNL1       -0.2773
      4 C           1.5526    2.6434   26.5717 C.3     1  UNL1        0.0949
      5 C           2.1414    1.7233   25.5435 C.3     1  UNL1        0.0375
      6 C           2.7765    0.4325   25.9680 C.3     1  UNL1        0.0615
      7 C           2.8230    0.0615   27.4208 C.3     1  UNL1        0.0375
      8 C           2.2343    0.9815   28.4489 C.3     1  UNL1        0.0949
      9 N           3.3652   -0.4874   24.9399 N.3     1  UNL1       -0.2664
     10 C           4.4721   -1.3781   25.4210 C.3     1  UNL1        0.0994
     11 C           5.2564   -2.3963   24.6477 C.ar    1  UNL1       -0.0061
     12 C           6.2787   -3.0728   25.5122 C.ar    1  UNL1       -0.0029
     13 C           7.1720   -4.1284   24.9311 C.ar    1  UNL1       -0.0003
     14 C           7.0430   -4.5076   23.4855 C.ar    1  UNL1       -0.0000
     15 C           6.0207   -3.8311   22.6211 C.ar    1  UNL1       -0.0003
     16 C           5.1274   -2.7755   23.2022 C.ar    1  UNL1       -0.0029
     17 C           4.1823   -2.2300   22.1730 C.ar    1  UNL1       -0.0029
     18 C           4.3850   -2.8871   20.8399 C.ar    1  UNL1       -0.0003
     19 C           3.5382   -2.4849   19.6689 C.ar    1  UNL1       -0.0000
     20 C           2.4886   -1.4256   19.8311 C.ar    1  UNL1       -0.0003
     21 C           2.2860   -0.7685   21.1642 C.ar    1  UNL1       -0.0029
     22 C           3.1327   -1.1707   22.3351 C.ar    1  UNL1       -0.0061
     23 C           2.7691   -0.3952   23.5665 C.3     1  UNL1        0.0994
     24 N           2.5894    3.4825   32.9980 N.3     1  UNL1       -0.2688
     25 C           1.4779    2.4764   33.0456 C.3     1  UNL1        0.0756
     26 C           0.7116    2.1459   31.7992 C.3     1  UNL1        0.0590
     27 C           1.0569    2.8215   30.5052 C.3     1  UNL1        0.2042
     28 F          -0.0708    1.9442   30.0482 F       1  UNL1       -0.2306
     29 C           2.1683    3.8276   30.4577 C.3     1  UNL1        0.0590
     30 C           2.9346    4.1581   31.7041 C.3     1  UNL1        0.0756
     31 C           3.3556    3.8130   34.2445 C.3     1  UNL1        0.0993
     32 N           3.2537    0.5155   38.2589 N.pl3   1  UNL1       -0.3426
     33 C           2.7630    1.7667   37.5928 C.ar    1  UNL1        0.1251
     34 C           3.3047    2.1643   36.2517 C.ar    1  UNL1        0.0310
     35 C           2.8139    3.4155   35.5855 C.ar    1  UNL1       -0.0018
     36 C           1.7815    4.2690   36.2605 C.ar    1  UNL1        0.0179
     37 C           1.2398    3.8714   37.6016 C.ar    1  UNL1        0.1000
     38 N           1.7306    2.6203   38.2678 N.ar    1  UNL1       -0.2296
     39 H           3.9313   -0.0447   37.8159 H       1  UNL1        0.1437
     40 H           2.8982    0.2546   39.1391 H       1  UNL1        0.1437
@<TRIPOS>BOND
     1    32    33    1
     2    33    34   ar
     3    34    35   ar
     4    35    31    1
     5    31    24    1
     6    24    25    1
     7    25    26    1
     8    26    27    1
     9    27    28    1
    10    27     1    1
    11     1     2    2
    12     1     3   am
    13     3     4    1
    14     4     5    1
    15     5     6    1
    16     6     9    1
    17     9    10    1
    18    10    11    1
    19    11    12   ar
    20    12    13   ar
    21    13    14   ar
    22    14    15   ar
    23    15    16   ar
    24    16    17    1
    25    17    18   ar
    26    18    19   ar
    27    19    20   ar
    28    20    21   ar
    29    21    22   ar
    30    22    23    1
    31     6     7    1
    32     7     8    1
    33    27    29    1
    34    29    30    1
    35    35    36   ar
    36    36    37   ar
    37    37    38   ar
    38    38    33   ar
    39    30    24    1
    40     8     3    1
    41    23     9    1
    42    16    11   ar
    43    22    17   ar
    44    32    39    1
    45    32    40    1
