@<TRIPOS>MOLECULE
*****
 30 32 0 0 0
SMALL
GASTEIGER

@<TRIPOS>ATOM
      1 C          -6.6842  -16.1293   24.1946 C.3     1  UNL1        0.0456
      2 C          -5.9357  -15.5470   25.3567 C.3     1  UNL1        0.0159
      3 C          -7.8265  -15.8458   25.1244 C.3     1  UNL1        0.0360
      4 C          -9.2303  -16.1728   24.7093 C.3     1  UNL1        0.0935
      5 N          -9.4918  -16.7834   23.3643 N.pl3   1  UNL1       -0.2932
      6 C          -8.3494  -17.0669   22.4345 C.3     1  UNL1        0.0935
      7 C          -6.9456  -16.7399   22.8497 C.3     1  UNL1        0.0360
      8 C         -10.8956  -17.1104   22.9492 C.ar    1  UNL1        0.1317
      9 C         -11.8765  -17.6241   23.9611 C.ar    1  UNL1        0.0355
     10 C         -13.2804  -17.9512   23.5460 C.ar    1  UNL1        0.0183
     11 C         -13.7033  -17.7644   22.1190 C.ar    1  UNL1        0.0219
     12 C         -12.7223  -17.2506   21.1071 C.ar    1  UNL1        0.1003
     13 N         -11.3186  -16.9236   21.5222 N.ar    1  UNL1       -0.2292
     14 C         -14.2613  -18.4649   24.5578 C.2     1  UNL1        0.0730
     15 O         -13.8460  -18.6267   25.9900 O.co2   1  UNL1       -0.5446
     16 O         -15.6575  -18.8168   24.1375 O.co2   1  UNL1       -0.5446
     17 N          -5.2819  -16.2106   23.6684 N.3     1  UNL1       -0.2918
     18 H          -5.2367  -15.5972   22.8547 H       1  UNL1        0.1236
     19 C          -4.7150  -17.5334   23.2454 C.3     1  UNL1        0.1551
     20 C          -4.5102  -19.6867   20.9791 C.3     1  UNL1        0.1415
     21 C          -4.0434  -20.5128   19.8173 C.3     1  UNL1        0.0362
     22 C          -2.7238  -19.9655   19.3599 C.3     1  UNL1        0.0383
     23 C          -2.3751  -18.8013   20.2391 C.3     1  UNL1        0.1679
     24 N          -3.4791  -18.6290   21.2398 N.am    1  UNL1       -0.2578
     25 C          -3.5411  -17.5826   22.3128 C.2     1  UNL1        0.2431
     26 O          -2.4293  -16.5855   22.4532 O.2     1  UNL1       -0.2733
     27 C          -7.0586  -20.0809   22.5121 C.1     1  UNL1       -0.0125
     28 C          -5.7844  -19.8838   21.7457 C.1     1  UNL1       -0.0584
     29 C          -1.1392  -17.9575   20.1357 C.1     1  UNL1        0.0926
     30 N           0.0966  -17.1137   20.0324 N.1     1  UNL1       -0.1942
@<TRIPOS>UNITY_ATOM_ATTR
15 1
charge -1
@<TRIPOS>BOND
     1    27    28    3
     2    20    28    1
     3    20    21    1
     4    21    22    1
     5    22    23    1
     6    23    29    1
     7    29    30    3
     8    23    24    1
     9    24    25   am
    10    25    26    2
    11    25    19    1
    12    19    17    1
    13    17     1    1
    14     1     2    1
    15     1     3    1
    16     3     4    1
    17     4     5    1
    18     5     8    1
    19     8     9   ar
    20     9    10   ar
    21    10    14    1
    22    14    15   ar
    23    14    16   ar
    24    10    11   ar
    25    11    12   ar
    26    12    13   ar
    27     5     6    1
    28     6     7    1
    29    24    20    1
    30     7     1    1
    31    13     8   ar
    32    17    18    1
@<TRIPOS>MOLECULE
*****
 30 32 0 0 0
SMALL
GASTEIGER

@<TRIPOS>ATOM
      1 C          -8.1117  -15.9757   25.1085 C.3     1  UNL1        0.0456
      2 C          -8.5347  -15.3124   26.3857 C.3     1  UNL1        0.0159
      3 C          -6.7721  -15.5682   25.6464 C.3     1  UNL1        0.0360
      4 C          -5.5259  -15.8855   24.8743 C.3     1  UNL1        0.0935
      5 N          -5.6192  -16.6103   23.5644 N.pl3   1  UNL1       -0.2932
      6 C          -6.9588  -17.0178   23.0265 C.3     1  UNL1        0.0935
      7 C          -8.2051  -16.7005   23.7986 C.3     1  UNL1        0.0360
      8 C          -4.3729  -16.9276   22.7923 C.ar    1  UNL1        0.1317
      9 C          -4.1727  -18.3006   22.2225 C.ar    1  UNL1        0.0355
     10 C          -2.9263  -18.6179   21.4505 C.ar    1  UNL1        0.0183
     11 C          -1.8802  -17.5621   21.2482 C.ar    1  UNL1        0.0219
     12 C          -2.0804  -16.1890   21.8181 C.ar    1  UNL1        0.1003
     13 N          -3.3267  -15.8718   22.5901 N.ar    1  UNL1       -0.2292
     14 C          -2.7262  -19.9909   20.8807 C.2     1  UNL1        0.0730
     15 O          -3.8250  -20.6450   20.0967 O.co2   1  UNL1       -0.5446
     16 O          -1.4272  -20.7098   21.0949 O.co2   1  UNL1       -0.5446
     17 N          -9.5982  -16.1529   25.0142 N.3     1  UNL1       -0.2918
     18 H          -9.9322  -16.3460   25.9584 H       1  UNL1        0.1236
     19 C         -10.1719  -17.2168   24.1259 C.3     1  UNL1        0.1551
     20 C         -10.3726  -19.4128   21.9006 C.3     1  UNL1        0.1415
     21 C         -10.5869  -20.1265   20.5988 C.3     1  UNL1        0.0362
     22 C         -11.0211  -19.1138   19.5809 C.3     1  UNL1        0.0383
     23 C         -11.0751  -17.7742   20.2537 C.3     1  UNL1        0.1679
     24 N         -10.6743  -17.9590   21.6874 N.am    1  UNL1       -0.2578
     25 C         -10.5901  -16.8795   22.7254 C.2     1  UNL1        0.2431
     26 O         -10.9239  -15.4627   22.3630 O.2     1  UNL1       -0.2733
     27 C          -9.4948  -20.6717   24.4783 C.1     1  UNL1       -0.0125
     28 C          -9.9336  -20.0423   23.1895 C.1     1  UNL1       -0.0584
     29 C         -11.4620  -16.4775   19.6065 C.1     1  UNL1        0.0926
     30 N         -11.8488  -15.1808   18.9593 N.1     1  UNL1       -0.1942
@<TRIPOS>UNITY_ATOM_ATTR
15 1
charge -1
@<TRIPOS>BOND
     1    27    28    3
     2    20    28    1
     3    20    21    1
     4    21    22    1
     5    22    23    1
     6    23    29    1
     7    29    30    3
     8    23    24    1
     9    24    25   am
    10    25    26    2
    11    25    19    1
    12    19    17    1
    13    17     1    1
    14     1     2    1
    15     1     3    1
    16     3     4    1
    17     4     5    1
    18     5     8    1
    19     8     9   ar
    20     9    10   ar
    21    10    14    1
    22    14    15   ar
    23    14    16   ar
    24    10    11   ar
    25    11    12   ar
    26    12    13   ar
    27     5     6    1
    28     6     7    1
    29    24    20    1
    30     7     1    1
    31    13     8   ar
    32    17    18    1
@<TRIPOS>MOLECULE
*****
 30 32 0 0 0
SMALL
GASTEIGER

@<TRIPOS>ATOM
      1 C          -7.4383  -16.2414   24.4315 C.3     1  UNL1        0.0456
      2 C          -7.4719  -15.1242   25.4319 C.3     1  UNL1        0.0159
      3 C          -5.9841  -15.8749   24.4615 C.3     1  UNL1        0.0360
      4 C          -5.0055  -16.6182   23.6014 C.3     1  UNL1        0.0935
      5 N          -5.4811  -17.7279   22.7113 N.pl3   1  UNL1       -0.2932
      6 C          -6.9353  -18.0945   22.6813 C.3     1  UNL1        0.0935
      7 C          -7.9139  -17.3512   23.5414 C.3     1  UNL1        0.0360
      8 C          -4.5024  -18.4712   21.8512 C.ar    1  UNL1        0.1317
      9 C          -3.1741  -17.8563   21.5233 C.ar    1  UNL1        0.0355
     10 C          -2.1954  -18.5995   20.6631 C.ar    1  UNL1        0.0183
     11 C          -2.5450  -19.9577   20.1310 C.ar    1  UNL1        0.0219
     12 C          -3.8733  -20.5726   20.4590 C.ar    1  UNL1        0.1003
     13 N          -4.8520  -19.8294   21.3191 N.ar    1  UNL1       -0.2292
     14 C          -0.8671  -17.9846   20.3352 C.2     1  UNL1        0.0730
     15 O           0.2527  -18.8444   19.8286 O.co2   1  UNL1       -0.5446
     16 O          -0.6588  -16.5100   20.5137 O.co2   1  UNL1       -0.5446
     17 N          -8.9042  -16.2200   24.7489 N.3     1  UNL1       -0.2918
     18 H          -8.9926  -16.4192   25.7454 H       1  UNL1        0.1236
     19 C          -9.8397  -17.1513   24.0365 C.3     1  UNL1        0.1551
     20 C         -10.5046  -19.3929   21.9514 C.3     1  UNL1        0.1415
     21 C         -10.9138  -20.1259   20.7083 C.3     1  UNL1        0.0362
     22 C         -11.2890  -19.1081   19.6722 C.3     1  UNL1        0.0383
     23 C         -11.1118  -17.7460   20.2751 C.3     1  UNL1        0.1679
     24 N         -10.6270  -17.9220   21.6837 N.am    1  UNL1       -0.2578
     25 C         -10.3188  -16.8206   22.6541 C.2     1  UNL1        0.2431
     26 O         -10.4896  -15.3884   22.2421 O.2     1  UNL1       -0.2733
     27 C          -9.6003  -20.6479   24.5217 C.1     1  UNL1       -0.0125
     28 C         -10.0525  -20.0205   23.2366 C.1     1  UNL1       -0.0584
     29 C         -11.3734  -16.4377   19.5897 C.1     1  UNL1        0.0926
     30 N         -11.6350  -15.1293   18.9043 N.1     1  UNL1       -0.1942
@<TRIPOS>UNITY_ATOM_ATTR
15 1
charge -1
@<TRIPOS>BOND
     1    27    28    3
     2    20    28    1
     3    20    21    1
     4    21    22    1
     5    22    23    1
     6    23    29    1
     7    29    30    3
     8    23    24    1
     9    24    25   am
    10    25    26    2
    11    25    19    1
    12    19    17    1
    13    17     1    1
    14     1     2    1
    15     1     3    1
    16     3     4    1
    17     4     5    1
    18     5     8    1
    19     8     9   ar
    20     9    10   ar
    21    10    14    1
    22    14    15   ar
    23    14    16   ar
    24    10    11   ar
    25    11    12   ar
    26    12    13   ar
    27     5     6    1
    28     6     7    1
    29    24    20    1
    30     7     1    1
    31    13     8   ar
    32    17    18    1
@<TRIPOS>MOLECULE
*****
 30 32 0 0 0
SMALL
GASTEIGER

@<TRIPOS>ATOM
      1 C          -9.3349  -19.7177   20.3857 C.3     1  UNL1        0.0456
      2 C         -10.3992  -19.9355   19.3513 C.3     1  UNL1        0.0159
      3 C          -8.4845  -19.8184   19.1543 C.3     1  UNL1        0.0360
      4 C          -6.9935  -19.6926   19.2602 C.3     1  UNL1        0.0935
      5 N          -6.3531  -19.4662   20.5975 N.pl3   1  UNL1       -0.2932
      6 C          -7.2036  -19.3655   21.8290 C.3     1  UNL1        0.0935
      7 C          -8.6945  -19.4913   21.7231 C.3     1  UNL1        0.0360
      8 C          -4.8621  -19.3404   20.7034 C.ar    1  UNL1        0.1317
      9 C          -4.0894  -18.6450   19.6221 C.ar    1  UNL1        0.0355
     10 C          -2.5984  -18.5193   19.7279 C.ar    1  UNL1        0.0183
     11 C          -1.8801  -19.0889   20.9152 C.ar    1  UNL1        0.0219
     12 C          -2.6529  -19.7843   21.9966 C.ar    1  UNL1        0.1003
     13 N          -4.1438  -19.9101   21.8907 N.ar    1  UNL1       -0.2292
     14 C          -1.8257  -17.8239   18.6466 C.2     1  UNL1        0.0730
     15 O          -2.5425  -16.9689   17.6440 O.co2   1  UNL1       -0.5446
     16 O          -0.3363  -17.9835   18.5678 O.co2   1  UNL1       -0.5446
     17 N         -10.5550  -19.6927   21.2579 N.3     1  UNL1       -0.2918
     18 H         -11.3187  -20.0851   20.7073 H       1  UNL1        0.1236
     19 C         -11.0494  -18.3923   21.8190 C.3     1  UNL1        0.1551
     20 C          -9.1665  -16.9323   23.8531 C.3     1  UNL1        0.1415
     21 C          -8.2280  -15.9576   24.5006 C.3     1  UNL1        0.0362
     22 C          -7.9424  -14.8640   23.5143 C.3     1  UNL1        0.0383
     23 C          -8.7045  -15.1629   22.2574 C.3     1  UNL1        0.1679
     24 N          -9.4610  -16.4411   22.4667 N.am    1  UNL1       -0.2578
     25 C         -10.3551  -17.1106   21.4655 C.2     1  UNL1        0.2431
     26 O         -10.5548  -16.4983   20.1108 O.2     1  UNL1       -0.2733
     27 C         -10.2621  -19.4261   25.1101 C.1     1  UNL1       -0.0125
     28 C          -9.7144  -18.1792   24.4816 C.1     1  UNL1       -0.0584
     29 C          -8.7092  -14.3298   21.0100 C.1     1  UNL1        0.0926
     30 N          -8.7139  -13.4966   19.7627 N.1     1  UNL1       -0.1942
@<TRIPOS>UNITY_ATOM_ATTR
15 1
charge -1
@<TRIPOS>BOND
     1    27    28    3
     2    20    28    1
     3    20    21    1
     4    21    22    1
     5    22    23    1
     6    23    29    1
     7    29    30    3
     8    23    24    1
     9    24    25   am
    10    25    26    2
    11    25    19    1
    12    19    17    1
    13    17     1    1
    14     1     2    1
    15     1     3    1
    16     3     4    1
    17     4     5    1
    18     5     8    1
    19     8     9   ar
    20     9    10   ar
    21    10    14    1
    22    14    15   ar
    23    14    16   ar
    24    10    11   ar
    25    11    12   ar
    26    12    13   ar
    27     5     6    1
    28     6     7    1
    29    24    20    1
    30     7     1    1
    31    13     8   ar
    32    17    18    1
@<TRIPOS>MOLECULE
*****
 30 32 0 0 0
SMALL
GASTEIGER

@<TRIPOS>ATOM
      1 C          -9.5642  -19.6682   21.1673 C.3     1  UNL1        0.0456
      2 C         -10.7550  -19.7988   20.2646 C.3     1  UNL1        0.0159
      3 C          -8.8817  -19.6510   19.8317 C.3     1  UNL1        0.0360
      4 C          -7.3890  -19.5250   19.7538 C.3     1  UNL1        0.0935
      5 N          -6.5789  -19.4161   21.0115 N.pl3   1  UNL1       -0.2932
      6 C          -7.2614  -19.4332   22.3471 C.3     1  UNL1        0.0935
      7 C          -8.7540  -19.5593   22.4250 C.3     1  UNL1        0.0360
      8 C          -5.0862  -19.2900   20.9336 C.ar    1  UNL1        0.1317
      9 C          -4.4547  -18.5477   19.7934 C.ar    1  UNL1        0.0355
     10 C          -2.9620  -18.4216   19.7154 C.ar    1  UNL1        0.0183
     11 C          -2.1008  -19.0379   20.7778 C.ar    1  UNL1        0.0219
     12 C          -2.7324  -19.7802   21.9181 C.ar    1  UNL1        0.1003
     13 N          -4.2250  -19.9063   21.9959 N.ar    1  UNL1       -0.2292
     14 C          -2.3306  -17.6793   18.5752 C.2     1  UNL1        0.0730
     15 O          -0.9259  -17.9997   18.1579 O.co2   1  UNL1       -0.5446
     16 O          -3.1038  -16.6166   17.8522 O.co2   1  UNL1       -0.5446
     17 N         -10.6602  -19.7307   22.1894 N.3     1  UNL1       -0.2918
     18 H         -11.4816  -20.1089   21.7175 H       1  UNL1        0.1236
     19 C         -11.1019  -18.4817   22.8930 C.3     1  UNL1        0.1551
     20 C          -9.3401  -15.9243   22.4801 C.3     1  UNL1        0.1415
     21 C          -8.4017  -14.7739   22.6940 C.3     1  UNL1        0.0362
     22 C          -7.9214  -14.8253   24.1141 C.3     1  UNL1        0.0383
     23 C          -8.5631  -16.0075   24.7779 C.3     1  UNL1        0.1679
     24 N          -9.4399  -16.6868   23.7680 N.am    1  UNL1       -0.2578
     25 C         -10.2706  -17.9131   24.0045 C.2     1  UNL1        0.2431
     26 O         -10.2701  -18.5708   25.3527 O.2     1  UNL1       -0.2733
     27 C         -10.7670  -16.5845   19.9251 C.1     1  UNL1       -0.0125
     28 C         -10.0536  -16.2544   21.2026 C.1     1  UNL1       -0.0584
     29 C          -8.3630  -16.4354   26.2015 C.1     1  UNL1        0.0926
     30 N          -8.1630  -16.8633   27.6252 N.1     1  UNL1       -0.1942
@<TRIPOS>UNITY_ATOM_ATTR
15 1
charge -1
@<TRIPOS>BOND
     1    27    28    3
     2    20    28    1
     3    20    21    1
     4    21    22    1
     5    22    23    1
     6    23    29    1
     7    29    30    3
     8    23    24    1
     9    24    25   am
    10    25    26    2
    11    25    19    1
    12    19    17    1
    13    17     1    1
    14     1     2    1
    15     1     3    1
    16     3     4    1
    17     4     5    1
    18     5     8    1
    19     8     9   ar
    20     9    10   ar
    21    10    14    1
    22    14    15   ar
    23    14    16   ar
    24    10    11   ar
    25    11    12   ar
    26    12    13   ar
    27     5     6    1
    28     6     7    1
    29    24    20    1
    30     7     1    1
    31    13     8   ar
    32    17    18    1
@<TRIPOS>MOLECULE
*****
 30 32 0 0 0
SMALL
GASTEIGER

@<TRIPOS>ATOM
      1 C          -0.0010    2.1963   19.9748 C.3     1  UNL1        0.0456
      2 C          -0.3907    3.6215   19.7163 C.3     1  UNL1        0.0159
      3 C           1.1601    2.6352   19.1326 C.3     1  UNL1        0.0360
      4 C           2.2606    1.6683   18.8102 C.3     1  UNL1        0.0935
      5 N           2.2001    0.2625   19.3301 N.pl3   1  UNL1       -0.2932
      6 C           1.0390   -0.1763   20.1723 C.3     1  UNL1        0.0935
      7 C          -0.0615    0.7906   20.4946 C.3     1  UNL1        0.0360
      8 C           3.3007   -0.7044   19.0077 C.ar    1  UNL1        0.1317
      9 C           3.3235   -2.0575   19.6545 C.ar    1  UNL1        0.0355
     10 C           4.4241   -3.0244   19.3321 C.ar    1  UNL1        0.0183
     11 C           5.5018   -2.6381   18.3629 C.ar    1  UNL1        0.0219
     12 C           5.4789   -1.2849   17.7161 C.ar    1  UNL1        0.1003
     13 N           4.3783   -0.3181   18.0385 N.ar    1  UNL1       -0.2292
     14 C           4.4470   -4.3776   19.9790 C.2     1  UNL1        0.0730
     15 O           4.4453   -4.4941   21.4744 O.co2   1  UNL1       -0.5446
     16 O           4.4716   -5.6142   19.1304 O.co2   1  UNL1       -0.5446
     17 N          -1.2974    2.2524   20.7272 N.3     1  UNL1       -0.2918
     18 H          -2.0041    1.8256   20.1283 H       1  UNL1        0.1236
     19 C          -1.8489    3.5739   21.1737 C.3     1  UNL1        0.1551
     20 C          -4.9469    4.0017   20.9888 C.3     1  UNL1        0.1415
     21 C          -6.3962    4.1887   21.3275 C.3     1  UNL1        0.0362
     22 C          -6.5306    4.1609   22.8212 C.3     1  UNL1        0.0383
     23 C          -5.1643    3.9568   23.4057 C.3     1  UNL1        0.1679
     24 N          -4.1855    3.8583   22.2733 N.am    1  UNL1       -0.2578
     25 C          -2.7054    3.6527   22.4026 C.2     1  UNL1        0.2431
     26 O          -2.0816    3.5258   23.7609 O.2     1  UNL1       -0.2733
     27 C          -3.7765    3.9275   18.2277 C.1     1  UNL1       -0.0125
     28 C          -4.3617    3.9646   19.6082 C.1     1  UNL1       -0.0584
     29 C          -4.8346    3.8668   24.8663 C.1     1  UNL1        0.0926
     30 N          -4.5049    3.7768   26.3268 N.1     1  UNL1       -0.1942
@<TRIPOS>UNITY_ATOM_ATTR
15 1
charge -1
@<TRIPOS>BOND
     1    27    28    3
     2    20    28    1
     3    20    21    1
     4    21    22    1
     5    22    23    1
     6    23    29    1
     7    29    30    3
     8    23    24    1
     9    24    25   am
    10    25    26    2
    11    25    19    1
    12    19    17    1
    13    17     1    1
    14     1     2    1
    15     1     3    1
    16     3     4    1
    17     4     5    1
    18     5     8    1
    19     8     9   ar
    20     9    10   ar
    21    10    14    1
    22    14    15   ar
    23    14    16   ar
    24    10    11   ar
    25    11    12   ar
    26    12    13   ar
    27     5     6    1
    28     6     7    1
    29    24    20    1
    30     7     1    1
    31    13     8   ar
    32    17    18    1
@<TRIPOS>MOLECULE
*****
 30 32 0 0 0
SMALL
GASTEIGER

@<TRIPOS>ATOM
      1 C          -0.0068    2.0347   19.7848 C.3     1  UNL1        0.0456
      2 C          -0.5265    3.3740   19.3531 C.3     1  UNL1        0.0159
      3 C           1.0261    2.3966   18.7591 C.3     1  UNL1        0.0360
      4 C           2.1572    1.4551   18.4692 C.3     1  UNL1        0.0935
      5 N           2.2554    0.1517   19.2050 N.pl3   1  UNL1       -0.2932
      6 C           1.2225   -0.2102   20.2308 C.3     1  UNL1        0.0935
      7 C           0.0914    0.7313   20.5206 C.3     1  UNL1        0.0360
      8 C           3.3866   -0.7899   18.9151 C.ar    1  UNL1        0.1317
      9 C           3.3855   -2.1682   19.5068 C.ar    1  UNL1        0.0355
     10 C           4.5167   -3.1098   19.2169 C.ar    1  UNL1        0.0183
     11 C           5.6489   -2.6729   18.3353 C.ar    1  UNL1        0.0219
     12 C           5.6499   -1.2945   17.7436 C.ar    1  UNL1        0.1003
     13 N           4.5188   -0.3530   18.0335 N.ar    1  UNL1       -0.2292
     14 C           4.5156   -4.4881   19.8086 C.2     1  UNL1        0.0730
     15 O           4.7315   -5.6827   18.9275 O.co2   1  UNL1       -0.5446
     16 O           4.2987   -4.6719   21.2814 O.co2   1  UNL1       -0.5446
     17 N          -1.2202    2.1380   20.6606 N.3     1  UNL1       -0.2918
     18 H          -2.0104    1.8027   20.1096 H       1  UNL1        0.1236
     19 C          -1.6225    3.4655   21.2314 C.3     1  UNL1        0.1551
     20 C          -2.0632    3.5292   24.3324 C.3     1  UNL1        0.1415
     21 C          -2.6822    3.6121   25.6962 C.3     1  UNL1        0.0362
     22 C          -4.1601    3.8027   25.5236 C.3     1  UNL1        0.0383
     23 C          -4.4543    3.8376   24.0532 C.3     1  UNL1        0.1679
     24 N          -3.1584    3.6685   23.3169 N.am    1  UNL1       -0.2578
     25 C          -2.9877    3.6432   21.8269 C.2     1  UNL1        0.2431
     26 O          -4.1822    3.7956   20.9324 O.2     1  UNL1       -0.2733
     27 C           0.8532    3.1511   23.7397 C.1     1  UNL1       -0.0125
     28 C          -0.6050    3.3401   24.0360 C.1     1  UNL1       -0.0584
     29 C          -5.8070    4.0110   23.4286 C.1     1  UNL1        0.0926
     30 N          -7.1597    4.1844   22.8040 N.1     1  UNL1       -0.1942
@<TRIPOS>UNITY_ATOM_ATTR
15 1
charge -1
@<TRIPOS>BOND
     1    27    28    3
     2    20    28    1
     3    20    21    1
     4    21    22    1
     5    22    23    1
     6    23    29    1
     7    29    30    3
     8    23    24    1
     9    24    25   am
    10    25    26    2
    11    25    19    1
    12    19    17    1
    13    17     1    1
    14     1     2    1
    15     1     3    1
    16     3     4    1
    17     4     5    1
    18     5     8    1
    19     8     9   ar
    20     9    10   ar
    21    10    14    1
    22    14    15   ar
    23    14    16   ar
    24    10    11   ar
    25    11    12   ar
    26    12    13   ar
    27     5     6    1
    28     6     7    1
    29    24    20    1
    30     7     1    1
    31    13     8   ar
    32    17    18    1
@<TRIPOS>MOLECULE
*****
 30 32 0 0 0
SMALL
GASTEIGER

@<TRIPOS>ATOM
      1 C           6.2471   -3.6385   23.2689 C.3     1  UNL1        0.0456
      2 C           7.5127   -4.4206   23.4604 C.3     1  UNL1        0.0159
      3 C           6.8370   -3.5200   21.8949 C.3     1  UNL1        0.0360
      4 C           6.1091   -2.7548   20.8297 C.3     1  UNL1        0.0935
      5 N           4.7913   -2.1083   21.1385 N.pl3   1  UNL1       -0.2932
      6 C           4.2014   -2.2268   22.5125 C.3     1  UNL1        0.0935
      7 C           4.9293   -2.9920   23.5777 C.3     1  UNL1        0.0360
      8 C           4.0633   -1.3431   20.0732 C.ar    1  UNL1        0.1317
      9 C           2.7553   -0.6797   20.3875 C.ar    1  UNL1        0.0355
     10 C           2.0274    0.0855   19.3222 C.ar    1  UNL1        0.0183
     11 C           2.6076    0.1871   17.9427 C.ar    1  UNL1        0.0219
     12 C           3.9157   -0.4764   17.6285 C.ar    1  UNL1        0.1003
     13 N           4.6435   -1.2415   18.6937 N.ar    1  UNL1       -0.2292
     14 C           0.7193    0.7489   19.6365 C.2     1  UNL1        0.0730
     15 O          -0.1961    0.1527   20.6643 O.co2   1  UNL1       -0.5446
     16 O           0.3267    2.0086   18.9229 O.co2   1  UNL1       -0.5446
     17 N           6.0968   -4.0287   24.7094 N.3     1  UNL1       -0.2918
     18 H           6.3460   -3.2096   25.2639 H       1  UNL1        0.1236
     19 C           6.8838   -5.1805   25.2606 C.3     1  UNL1        0.1551
     20 C           8.7257   -7.3966   26.4900 C.3     1  UNL1        0.1415
     21 C           9.4635   -8.2875   27.4449 C.3     1  UNL1        0.0362
     22 C           9.1059   -7.8685   28.8402 C.3     1  UNL1        0.0383
     23 C           8.1471   -6.7187   28.7475 C.3     1  UNL1        0.1679
     24 N           7.9121   -6.4270   27.2950 N.am    1  UNL1       -0.2578
     25 C           7.0202   -5.3541   26.7443 C.2     1  UNL1        0.2431
     26 O           6.2645   -4.4548   27.6772 O.2     1  UNL1       -0.2733
     27 C           8.8544   -7.5303   23.4958 C.1     1  UNL1       -0.0125
     28 C           8.7901   -7.4635   24.9928 C.1     1  UNL1       -0.0584
     29 C           7.5315   -5.9887   29.9042 C.1     1  UNL1        0.0926
     30 N           6.9158   -5.2587   31.0609 N.1     1  UNL1       -0.1942
@<TRIPOS>UNITY_ATOM_ATTR
15 1
charge -1
@<TRIPOS>BOND
     1    27    28    3
     2    20    28    1
     3    20    21    1
     4    21    22    1
     5    22    23    1
     6    23    29    1
     7    29    30    3
     8    23    24    1
     9    24    25   am
    10    25    26    2
    11    25    19    1
    12    19    17    1
    13    17     1    1
    14     1     2    1
    15     1     3    1
    16     3     4    1
    17     4     5    1
    18     5     8    1
    19     8     9   ar
    20     9    10   ar
    21    10    14    1
    22    14    15   ar
    23    14    16   ar
    24    10    11   ar
    25    11    12   ar
    26    12    13   ar
    27     5     6    1
    28     6     7    1
    29    24    20    1
    30     7     1    1
    31    13     8   ar
    32    17    18    1
@<TRIPOS>MOLECULE
*****
 30 32 0 0 0
SMALL
GASTEIGER

@<TRIPOS>ATOM
      1 C          -0.2120    2.8213   19.4029 C.3     1  UNL1        0.0456
      2 C          -0.6105    3.6150   18.1941 C.3     1  UNL1        0.0159
      3 C           0.6448    2.1610   18.3638 C.3     1  UNL1        0.0360
      4 C           1.5545    1.0321   18.7486 C.3     1  UNL1        0.0935
      5 N           1.6073    0.5635   20.1725 N.pl3   1  UNL1       -0.2932
      6 C           0.7505    1.2238   21.2117 C.3     1  UNL1        0.0935
      7 C          -0.1591    2.3527   20.8269 C.3     1  UNL1        0.0360
      8 C           2.5171   -0.5654   20.5573 C.ar    1  UNL1        0.1317
      9 C           3.1081   -1.4469   19.4973 C.ar    1  UNL1        0.0355
     10 C           4.0178   -2.5759   19.8821 C.ar    1  UNL1        0.0183
     11 C           4.3364   -2.8232   21.3268 C.ar    1  UNL1        0.0219
     12 C           3.7453   -1.9417   22.3868 C.ar    1  UNL1        0.1003
     13 N           2.8356   -0.8128   22.0020 N.ar    1  UNL1       -0.2292
     14 C           4.6089   -3.4574   18.8221 C.2     1  UNL1        0.0730
     15 O           5.4925   -2.8676   17.7631 O.co2   1  UNL1       -0.5446
     16 O           4.3164   -4.9286   18.8211 O.co2   1  UNL1       -0.5446
     17 N          -1.2072    3.7572   20.0223 N.3     1  UNL1       -0.2918
     18 H          -0.6879    4.3568   20.6636 H       1  UNL1        0.1236
     19 C          -2.3743    3.2105   20.7896 C.3     1  UNL1        0.1551
     20 C          -4.6005    3.9468   22.8673 C.3     1  UNL1        0.1415
     21 C          -5.9024    4.3315   23.5054 C.3     1  UNL1        0.0362
     22 C          -6.9188    4.5061   22.4161 C.3     1  UNL1        0.0383
     23 C          -6.2451    4.2291   21.1048 C.3     1  UNL1        0.1679
     24 N          -4.8124    3.8835   21.3836 N.am    1  UNL1       -0.2578
     25 C          -3.7738    3.5356   20.3588 C.2     1  UNL1        0.2431
     26 O          -4.1348    3.5128   18.9030 O.2     1  UNL1       -0.2733
     27 C          -2.0254    3.3997   24.3057 C.1     1  UNL1       -0.0125
     28 C          -3.3129    3.6733   23.5865 C.1     1  UNL1       -0.0584
     29 C          -6.8909    4.2876   19.7522 C.1     1  UNL1        0.0926
     30 N          -7.5366    4.3461   18.3996 N.1     1  UNL1       -0.1942
@<TRIPOS>UNITY_ATOM_ATTR
15 1
charge -1
@<TRIPOS>BOND
     1    27    28    3
     2    20    28    1
     3    20    21    1
     4    21    22    1
     5    22    23    1
     6    23    29    1
     7    29    30    3
     8    23    24    1
     9    24    25   am
    10    25    26    2
    11    25    19    1
    12    19    17    1
    13    17     1    1
    14     1     2    1
    15     1     3    1
    16     3     4    1
    17     4     5    1
    18     5     8    1
    19     8     9   ar
    20     9    10   ar
    21    10    14    1
    22    14    15   ar
    23    14    16   ar
    24    10    11   ar
    25    11    12   ar
    26    12    13   ar
    27     5     6    1
    28     6     7    1
    29    24    20    1
    30     7     1    1
    31    13     8   ar
    32    17    18    1
