@<TRIPOS>MOLECULE
*****
 16 17 0 0 0
SMALL
GASTEIGER

@<TRIPOS>ATOM
      1 CL         -5.2299  -15.1341   26.2561 Cl      1  UNL1       -0.0814
      2 C          -6.4074  -15.4982   25.4013 C.ar    1  UNL1        0.0682
      3 C          -6.2133  -15.7922   23.9432 C.ar    1  UNL1        0.0119
      4 C          -7.3910  -16.1564   23.0884 C.ar    1  UNL1       -0.0033
      5 C          -8.7625  -16.2265   23.6916 C.ar    1  UNL1       -0.0199
      6 C          -8.9565  -15.9325   25.1496 C.ar    1  UNL1        0.0080
      7 C          -7.7790  -15.5683   26.0045 C.ar    1  UNL1        0.0679
      8 CL         -7.9730  -15.2743   27.4625 Cl      1  UNL1       -0.0814
      9 C          -9.9401  -16.5906   22.8368 C.3     1  UNL1        0.0424
     10 C         -11.0054  -17.4049   23.5093 C.3     1  UNL1        0.0315
     11 C         -12.2905  -17.9220   22.9336 C.2     1  UNL1       -0.0289
     12 C         -12.8275  -17.7526   21.5434 C.2     1  UNL1       -0.0136
     13 C         -12.2123  -17.0243   20.3854 C.3     1  UNL1        0.0950
     14 N         -10.9080  -16.2854   20.3316 N.3     1  UNL1       -0.2935
     15 C          -9.8968  -16.0925   21.4227 C.3     1  UNL1        0.0735
     16 H         -11.1619  -15.3390   20.0483 H       1  UNL1        0.1236
@<TRIPOS>BOND
     1     1     2    1
     2     2     3   ar
     3     3     4   ar
     4     4     5   ar
     5     5     9    1
     6     9    10    1
     7    10    11    1
     8    11    12    2
     9    12    13    1
    10    13    14    1
    11    14    15    1
    12     5     6   ar
    13     6     7   ar
    14     7     8    1
    15     7     2   ar
    16    15     9    1
    17    14    16    1
@<TRIPOS>MOLECULE
*****
 16 17 0 0 0
SMALL
GASTEIGER

@<TRIPOS>ATOM
      1 CL         -1.8942  -19.6507   21.0187 Cl      1  UNL1       -0.0814
      2 C          -3.3901  -19.6481   21.1292 C.ar    1  UNL1        0.0682
      3 C          -4.2126  -20.4846   20.1945 C.ar    1  UNL1        0.0119
      4 C          -5.7086  -20.4819   20.3050 C.ar    1  UNL1       -0.0033
      5 C          -6.3820  -19.6429   21.3502 C.ar    1  UNL1       -0.0199
      6 C          -5.5594  -18.8064   22.2849 C.ar    1  UNL1        0.0080
      7 C          -4.0635  -18.8090   22.1745 C.ar    1  UNL1        0.0679
      8 CL         -3.2409  -17.9726   23.1092 Cl      1  UNL1       -0.0814
      9 C          -7.8779  -19.6402   21.4607 C.3     1  UNL1        0.0424
     10 C          -8.4299  -19.9196   22.8273 C.3     1  UNL1        0.0315
     11 C          -9.8644  -19.9863   23.2608 C.2     1  UNL1       -0.0289
     12 C         -11.1010  -19.7901   22.4349 C.2     1  UNL1       -0.0136
     13 C         -11.2087  -19.4787   20.9715 C.3     1  UNL1        0.0950
     14 N         -10.1063  -19.2867   19.9726 N.3     1  UNL1       -0.2935
     15 C          -8.6239  -19.3586   20.1904 C.3     1  UNL1        0.0735
     16 H         -10.2640  -18.3526   19.5944 H       1  UNL1        0.1236
@<TRIPOS>BOND
     1     1     2    1
     2     2     3   ar
     3     3     4   ar
     4     4     5   ar
     5     5     9    1
     6     9    10    1
     7    10    11    1
     8    11    12    2
     9    12    13    1
    10    13    14    1
    11    14    15    1
    12     5     6   ar
    13     6     7   ar
    14     7     8    1
    15     7     2   ar
    16    15     9    1
    17    14    16    1
@<TRIPOS>MOLECULE
*****
 16 17 0 0 0
SMALL
GASTEIGER

@<TRIPOS>ATOM
      1 CL         -5.1726  -15.1762   26.1325 Cl      1  UNL1       -0.0814
      2 C          -6.3821  -15.5320   25.3200 C.ar    1  UNL1        0.0682
      3 C          -6.2399  -15.8408   23.8590 C.ar    1  UNL1        0.0119
      4 C          -7.4495  -16.1966   23.0464 C.ar    1  UNL1       -0.0033
      5 C          -8.8013  -16.2435   23.6947 C.ar    1  UNL1       -0.0199
      6 C          -8.9435  -15.9347   25.1557 C.ar    1  UNL1        0.0080
      7 C          -7.7340  -15.5789   25.9683 C.ar    1  UNL1        0.0679
      8 CL         -7.8762  -15.2701   27.4293 Cl      1  UNL1       -0.0814
      9 C         -10.0109  -16.5993   22.8822 C.3     1  UNL1        0.0424
     10 C         -10.0973  -15.9582   21.5288 C.3     1  UNL1        0.0315
     11 C         -11.1684  -16.1086   20.4893 C.2     1  UNL1       -0.0289
     12 C         -12.4174  -16.9371   20.5467 C.2     1  UNL1       -0.0136
     13 C         -12.9041  -17.8199   21.6574 C.3     1  UNL1        0.0950
     14 N         -12.2617  -18.0922   22.9853 N.3     1  UNL1       -0.2935
     15 C         -10.9742  -17.5489   23.5303 C.3     1  UNL1        0.0735
     16 H         -12.1419  -19.1049   23.0083 H       1  UNL1        0.1236
@<TRIPOS>BOND
     1     1     2    1
     2     2     3   ar
     3     3     4   ar
     4     4     5   ar
     5     5     9    1
     6     9    10    1
     7    10    11    1
     8    11    12    2
     9    12    13    1
    10    13    14    1
    11    14    15    1
    12     5     6   ar
    13     6     7   ar
    14     7     8    1
    15     7     2   ar
    16    15     9    1
    17    14    16    1
@<TRIPOS>MOLECULE
*****
 16 17 0 0 0
SMALL
GASTEIGER

@<TRIPOS>ATOM
      1 CL         -5.4039  -14.8912   26.4748 Cl      1  UNL1       -0.0814
      2 C          -6.4861  -15.3798   25.5583 C.ar    1  UNL1        0.0682
      3 C          -7.8947  -15.5021   26.0593 C.ar    1  UNL1        0.0119
      4 C          -8.9769  -15.9908   25.1427 C.ar    1  UNL1       -0.0033
      5 C          -8.6506  -16.3570   23.7253 C.ar    1  UNL1       -0.0199
      6 C          -7.2420  -16.2347   23.2243 C.ar    1  UNL1        0.0080
      7 C          -6.1597  -15.7461   24.1408 C.ar    1  UNL1        0.0679
      8 CL         -4.7512  -15.6237   23.6398 Cl      1  UNL1       -0.0814
      9 C          -9.7328  -16.8457   22.8087 C.3     1  UNL1        0.0424
     10 C         -11.1369  -16.6610   23.3031 C.3     1  UNL1        0.0315
     11 C         -12.4229  -17.0394   22.6298 C.2     1  UNL1       -0.0289
     12 C         -12.6222  -17.6958   21.2960 C.2     1  UNL1       -0.0136
     13 C         -11.5850  -18.1361   20.3059 C.3     1  UNL1        0.0950
     14 N         -10.0922  -18.0286   20.4051 N.3     1  UNL1       -0.2935
     15 C          -9.2679  -17.4543   21.5190 C.3     1  UNL1        0.0735
     16 H          -9.8194  -17.4913   19.5821 H       1  UNL1        0.1236
@<TRIPOS>BOND
     1     1     2    1
     2     2     3   ar
     3     3     4   ar
     4     4     5   ar
     5     5     9    1
     6     9    10    1
     7    10    11    1
     8    11    12    2
     9    12    13    1
    10    13    14    1
    11    14    15    1
    12     5     6   ar
    13     6     7   ar
    14     7     8    1
    15     7     2   ar
    16    15     9    1
    17    14    16    1
@<TRIPOS>MOLECULE
*****
 16 17 0 0 0
SMALL
GASTEIGER

@<TRIPOS>ATOM
      1 CL         -3.3087  -20.1544   20.9157 Cl      1  UNL1       -0.0814
      2 C          -4.7161  -19.6658   21.0895 C.ar    1  UNL1        0.0682
      3 C          -5.7775  -20.0725   20.1107 C.ar    1  UNL1        0.0119
      4 C          -7.1851  -19.5837   20.2845 C.ar    1  UNL1       -0.0033
      5 C          -7.5311  -18.6884   21.4372 C.ar    1  UNL1       -0.0199
      6 C          -6.4697  -18.2818   22.4160 C.ar    1  UNL1        0.0080
      7 C          -5.0622  -18.7704   22.2422 C.ar    1  UNL1        0.0679
      8 CL         -4.0008  -18.3638   23.2210 Cl      1  UNL1       -0.0814
      9 C          -8.9385  -18.1997   21.6111 C.3     1  UNL1        0.0424
     10 C         -10.0162  -19.1981   21.3079 C.3     1  UNL1        0.0315
     11 C         -11.5038  -19.0206   21.3839 C.2     1  UNL1       -0.0289
     12 C         -12.2810  -17.8011   21.7818 C.2     1  UNL1       -0.0136
     13 C         -11.7627  -16.4576   22.2021 C.3     1  UNL1        0.0950
     14 N         -10.3391  -16.0020   22.3281 N.3     1  UNL1       -0.2935
     15 C          -9.0823  -16.7774   22.0651 C.3     1  UNL1        0.0735
     16 H         -10.2532  -15.6975   23.2978 H       1  UNL1        0.1236
@<TRIPOS>BOND
     1     1     2    1
     2     2     3   ar
     3     3     4   ar
     4     4     5   ar
     5     5     9    1
     6     9    10    1
     7    10    11    1
     8    11    12    2
     9    12    13    1
    10    13    14    1
    11    14    15    1
    12     5     6   ar
    13     6     7   ar
    14     7     8    1
    15     7     2   ar
    16    15     9    1
    17    14    16    1
@<TRIPOS>MOLECULE
*****
 16 17 0 0 0
SMALL
GASTEIGER

@<TRIPOS>ATOM
      1 CL         -5.1353  -19.5412   19.6627 Cl      1  UNL1       -0.0814
      2 C          -6.4396  -19.3249   20.3711 C.ar    1  UNL1        0.0682
      3 C          -7.7329  -19.5884   19.6583 C.ar    1  UNL1        0.0119
      4 C          -9.0373  -19.3721   20.3667 C.ar    1  UNL1       -0.0033
      5 C          -9.0484  -18.8924   21.7879 C.ar    1  UNL1       -0.0199
      6 C          -7.7552  -18.6290   22.5006 C.ar    1  UNL1        0.0080
      7 C          -6.4508  -18.8452   21.7923 C.ar    1  UNL1        0.0679
      8 CL         -5.1575  -18.5818   22.5051 Cl      1  UNL1       -0.0814
      9 C         -10.3528  -18.6761   22.4963 C.3     1  UNL1        0.0424
     10 C         -11.4506  -18.0751   21.6694 C.3     1  UNL1        0.0315
     11 C         -12.8537  -17.7390   22.0799 C.2     1  UNL1       -0.0289
     12 C         -13.5054  -17.9208   23.4186 C.2     1  UNL1       -0.0136
     13 C         -12.9151  -18.4836   24.6775 C.3     1  UNL1        0.0950
     14 N         -11.5272  -19.0037   24.9086 N.3     1  UNL1       -0.2935
     15 C         -10.3869  -19.0893   23.9378 C.3     1  UNL1        0.0735
     16 H         -11.6636  -19.9628   25.2278 H       1  UNL1        0.1236
@<TRIPOS>BOND
     1     1     2    1
     2     2     3   ar
     3     3     4   ar
     4     4     5   ar
     5     5     9    1
     6     9    10    1
     7    10    11    1
     8    11    12    2
     9    12    13    1
    10    13    14    1
    11    14    15    1
    12     5     6   ar
    13     6     7   ar
    14     7     8    1
    15     7     2   ar
    16    15     9    1
    17    14    16    1
@<TRIPOS>MOLECULE
*****
 16 17 0 0 0
SMALL
GASTEIGER

@<TRIPOS>ATOM
      1 CL         -8.4977  -15.0900   27.0791 Cl      1  UNL1       -0.0814
      2 C          -7.4368  -15.5307   26.1147 C.ar    1  UNL1        0.0682
      3 C          -5.9931  -15.4963   26.5206 C.ar    1  UNL1        0.0119
      4 C          -4.9321  -15.9370   25.5561 C.ar    1  UNL1       -0.0033
      5 C          -5.3148  -16.4122   24.1859 C.ar    1  UNL1       -0.0199
      6 C          -6.7585  -16.4466   23.7800 C.ar    1  UNL1        0.0080
      7 C          -7.8195  -16.0059   24.7444 C.ar    1  UNL1        0.0679
      8 CL         -9.2631  -16.0403   24.3385 Cl      1  UNL1       -0.0814
      9 C          -4.2539  -16.8530   23.2214 C.3     1  UNL1        0.0424
     10 C          -4.1416  -18.3337   23.0095 C.3     1  UNL1        0.0315
     11 C          -3.1932  -19.0820   22.1202 C.2     1  UNL1       -0.0289
     12 C          -2.1231  -18.5343   21.2233 C.2     1  UNL1       -0.0136
     13 C          -1.7368  -17.1031   20.9939 C.3     1  UNL1        0.0950
     14 N          -2.3255  -15.8662   21.6050 N.3     1  UNL1       -0.2935
     15 C          -3.4457  -15.7549   22.5963 C.3     1  UNL1        0.0735
     16 H          -2.6333  -15.3090   20.8079 H       1  UNL1        0.1236
@<TRIPOS>BOND
     1     1     2    1
     2     2     3   ar
     3     3     4   ar
     4     4     5   ar
     5     5     9    1
     6     9    10    1
     7    10    11    1
     8    11    12    2
     9    12    13    1
    10    13    14    1
    11    14    15    1
    12     5     6   ar
    13     6     7   ar
    14     7     8    1
    15     7     2   ar
    16    15     9    1
    17    14    16    1
@<TRIPOS>MOLECULE
*****
 16 17 0 0 0
SMALL
GASTEIGER

@<TRIPOS>ATOM
      1 CL         -3.4231  -18.0085   22.9542 Cl      1  UNL1       -0.0814
      2 C          -4.9150  -17.8635   22.8999 C.ar    1  UNL1        0.0682
      3 C          -5.7458  -18.9085   22.2161 C.ar    1  UNL1        0.0119
      4 C          -7.2378  -18.7634   22.1618 C.ar    1  UNL1       -0.0033
      5 C          -7.8990  -17.5733   22.7913 C.ar    1  UNL1       -0.0199
      6 C          -7.0682  -16.5282   23.4751 C.ar    1  UNL1        0.0080
      7 C          -5.5762  -16.6732   23.5295 C.ar    1  UNL1        0.0679
      8 CL         -4.7454  -15.6282   24.2133 Cl      1  UNL1       -0.0814
      9 C          -9.3910  -17.4281   22.7371 C.3     1  UNL1        0.0424
     10 C         -10.1743  -18.4864   23.4558 C.3     1  UNL1        0.0315
     11 C         -11.6625  -18.6219   23.5863 C.2     1  UNL1       -0.0289
     12 C         -12.7348  -17.7326   23.0303 C.2     1  UNL1       -0.0136
     13 C         -12.5839  -16.4881   22.2065 C.3     1  UNL1        0.0950
     14 N         -11.3233  -15.8257   21.7352 N.3     1  UNL1       -0.2935
     15 C          -9.9023  -16.2441   21.9714 C.3     1  UNL1        0.0735
     16 H         -11.3766  -14.8787   22.1105 H       1  UNL1        0.1236
@<TRIPOS>BOND
     1     1     2    1
     2     2     3   ar
     3     3     4   ar
     4     4     5   ar
     5     5     9    1
     6     9    10    1
     7    10    11    1
     8    11    12    2
     9    12    13    1
    10    13    14    1
    11    14    15    1
    12     5     6   ar
    13     6     7   ar
    14     7     8    1
    15     7     2   ar
    16    15     9    1
    17    14    16    1
@<TRIPOS>MOLECULE
*****
 16 17 0 0 0
SMALL
GASTEIGER

@<TRIPOS>ATOM
      1 CL         -6.9674  -15.1391   27.2295 Cl      1  UNL1       -0.0814
      2 C          -7.4511  -15.7976   25.9716 C.ar    1  UNL1        0.0682
      3 C          -8.8032  -16.4461   25.9367 C.ar    1  UNL1        0.0119
      4 C          -9.2870  -17.1046   24.6787 C.ar    1  UNL1       -0.0033
      5 C          -8.4186  -17.1147   23.4558 C.ar    1  UNL1       -0.0199
      6 C          -7.0665  -16.4662   23.4906 C.ar    1  UNL1        0.0080
      7 C          -6.5827  -15.8077   24.7486 C.ar    1  UNL1        0.0679
      8 CL         -5.2305  -15.1592   24.7834 Cl      1  UNL1       -0.0814
      9 C          -8.9023  -17.7732   22.1978 C.3     1  UNL1        0.0424
     10 C          -7.8987  -18.6299   21.4844 C.3     1  UNL1        0.0315
     11 C          -8.0705  -19.4130   20.2165 C.2     1  UNL1       -0.0289
     12 C          -9.2883  -19.5326   19.3491 C.2     1  UNL1       -0.0136
     13 C         -10.6351  -18.8989   19.5351 C.3     1  UNL1        0.0950
     14 N         -11.0966  -17.9889   20.6345 N.3     1  UNL1       -0.2935
     15 C         -10.3254  -17.4880   21.8196 C.3     1  UNL1        0.0735
     16 H         -11.9041  -18.4643   21.0376 H       1  UNL1        0.1236
@<TRIPOS>BOND
     1     1     2    1
     2     2     3   ar
     3     3     4   ar
     4     4     5   ar
     5     5     9    1
     6     9    10    1
     7    10    11    1
     8    11    12    2
     9    12    13    1
    10    13    14    1
    11    14    15    1
    12     5     6   ar
    13     6     7   ar
    14     7     8    1
    15     7     2   ar
    16    15     9    1
    17    14    16    1
