@<TRIPOS>MOLECULE
*****
 34 38 0 0 0
SMALL
GASTEIGER

@<TRIPOS>ATOM
      1 N           2.3022    1.5791   32.3316 N.ar    1  UNL1       -0.2937
      2 C           1.9109    2.4653   33.4768 C.ar    1  UNL1        0.1798
      3 N           2.6822    2.0272   34.6864 N.ar    1  UNL1       -0.2195
      4 C           3.5502    0.8702   34.2888 C.ar    1  UNL1        0.1483
      5 C           4.5240    0.0331   35.0640 C.ar    1  UNL1        0.1516
      6 N           5.2630   -1.0810   34.3837 N.ar    1  UNL1       -0.2031
      7 C           5.0281   -1.3580   32.9283 C.ar    1  UNL1        0.2094
      8 N           4.0542   -0.5208   32.1532 N.ar    1  UNL1       -0.2003
      9 C           3.3153    0.5932   32.8335 C.ar    1  UNL1        0.1678
     10 C           0.9127    2.5401   28.8372 C.3     1  UNL1        0.0977
     11 C           0.9316    3.9817   29.2511 C.3     1  UNL1        0.0136
     12 C           1.3870    2.9205   30.2085 C.3     1  UNL1        0.0344
     13 C           1.7732    1.6638   30.9306 C.3     1  UNL1        0.1180
     14 C           1.5376    0.5066   30.0057 C.3     1  UNL1        0.1582
     15 O           1.7895   -0.9384   30.3194 O.3     1  UNL1       -0.3800
     16 C           1.0057    1.0482   28.7118 C.3     1  UNL1        0.1471
     17 O           0.6325    0.2399   27.5047 O.3     1  UNL1       -0.3814
     18 H           1.5547   -1.4818   29.5510 H       1  UNL1        0.2105
     19 H           0.7875   -0.7005   27.6848 H       1  UNL1        0.2105
     20 C          -1.6393    3.0110   25.8346 C.3     1  UNL1        0.1107
     21 N          -1.1035    2.7709   27.2149 N.am    1  UNL1       -0.3026
     22 C           0.3769    2.7803   27.4568 C.2     1  UNL1        0.2240
     23 O           1.3214    3.0298   26.3186 O.2     1  UNL1       -0.2750
     24 H          -1.7234    2.6071   27.9620 H       1  UNL1        0.1495
     25 N           4.7589    0.3101   36.5193 N.pl3   1  UNL1       -0.3153
     26 C           5.6621    1.4341   36.9326 C.3     1  UNL1        0.1097
     27 H           4.3203   -0.2459   37.2033 H       1  UNL1        0.1483
     28 C           5.7670   -2.4721   32.2481 C.1     1  UNL1       -0.0180
     29 C           6.5059   -3.5862   31.5678 C.1     1  UNL1       -0.0196
     30 C           7.2449   -4.7003   30.8875 C.ar    1  UNL1        0.1874
     31 C           6.8292   -5.3905   29.6223 C.ar    1  UNL1        0.0494
     32 C           7.8567   -6.4365   29.3058 C.ar    1  UNL1        0.0445
     33 C           8.9074   -6.3928   30.3755 C.ar    1  UNL1        0.1806
     34 O           8.5292   -5.3197   31.3530 O.2     1  UNL1       -0.4423
@<TRIPOS>BOND
     1    20    21    1
     2    21    22   am
     3    22    23    2
     4    10    22    1
     5    10    11    1
     6    12    11    1
     7    12    13    1
     8    13     1    1
     9     1     2   ar
    10     2     3   ar
    11     3     4   ar
    12     4     5   ar
    13     5    25    1
    14    25    26    1
    15     5     6   ar
    16     6     7   ar
    17     7    28    1
    18    28    29    3
    19    29    30    1
    20    30    31   ar
    21    31    32   ar
    22    32    33   ar
    23    33    34   ar
    24     7     8   ar
    25     8     9   ar
    26    13    14    1
    27    14    15    1
    28    14    16    1
    29    16    17    1
    30    12    10    1
    31     9     1   ar
    32    16    10    1
    33     9     4   ar
    34    34    30   ar
    35    21    24    1
    36    25    27    1
    37    15    18    1
    38    17    19    1
@<TRIPOS>MOLECULE
*****
 34 38 0 0 0
SMALL
GASTEIGER

@<TRIPOS>ATOM
      1 N          -0.3786    2.7858   23.9872 N.ar    1  UNL1       -0.2937
      2 C          -1.3072    3.9346   23.7263 C.ar    1  UNL1        0.1798
      3 N          -1.5075    4.0412   22.2436 N.ar    1  UNL1       -0.2195
      4 C          -0.7028    2.9583   21.5881 C.ar    1  UNL1        0.1483
      5 C          -0.5152    2.5785   20.1491 C.ar    1  UNL1        0.1516
      6 N           0.3701    1.4227   19.7878 N.ar    1  UNL1       -0.2031
      7 C           1.0679    0.6468   20.8654 C.ar    1  UNL1        0.2094
      8 N           0.8802    1.0267   22.3043 N.ar    1  UNL1       -0.2003
      9 C          -0.0051    2.1824   22.6657 C.ar    1  UNL1        0.1678
     10 C           0.1174    1.6458   27.6640 C.3     1  UNL1        0.0977
     11 C          -1.3553    1.8164   27.8919 C.3     1  UNL1        0.0136
     12 C          -0.7659    2.1104   26.5443 C.3     1  UNL1        0.0344
     13 C           0.0935    2.3219   25.3332 C.3     1  UNL1        0.1180
     14 C           1.5080    1.9879   25.7044 C.3     1  UNL1        0.1582
     15 O           2.6986    2.0592   24.7949 O.3     1  UNL1       -0.3800
     16 C           1.5228    1.5700   27.1451 C.3     1  UNL1        0.1471
     17 O           2.7307    1.1501   27.9289 O.3     1  UNL1       -0.3814
     18 H           3.4938    1.7912   25.2815 H       1  UNL1        0.2105
     19 H           3.5150    1.1885   27.3595 H       1  UNL1        0.2105
     20 C           1.1475    1.7432   31.4955 C.3     1  UNL1        0.1107
     21 N           0.8248    2.1968   30.1025 N.am    1  UNL1       -0.3026
     22 C           0.4401    1.1923   29.0570 C.2     1  UNL1        0.2240
     23 O           0.3781   -0.2656   29.4044 O.2     1  UNL1       -0.2750
     24 H           0.8654    3.1536   29.8745 H       1  UNL1        0.1495
     25 N          -1.2129    3.3543   19.0715 N.pl3   1  UNL1       -0.3153
     26 C          -0.5428    3.5664   17.7464 C.3     1  UNL1        0.1097
     27 H          -2.1106    3.7244   19.2340 H       1  UNL1        0.1483
     28 C           1.9532   -0.5088   20.5041 C.1     1  UNL1       -0.0180
     29 C           2.8385   -1.6645   20.1427 C.1     1  UNL1       -0.0196
     30 C           3.7238   -2.8202   19.7814 C.ar    1  UNL1        0.1874
     31 C           3.2921   -4.0787   19.0887 C.ar    1  UNL1        0.0494
     32 C           4.4978   -4.9566   18.9285 C.ar    1  UNL1        0.0445
     33 C           5.6747   -4.2407   19.5222 C.ar    1  UNL1        0.1806
     34 O           5.1963   -2.9203   20.0493 O.2     1  UNL1       -0.4423
@<TRIPOS>BOND
     1    20    21    1
     2    21    22   am
     3    22    23    2
     4    10    22    1
     5    10    11    1
     6    12    11    1
     7    12    13    1
     8    13     1    1
     9     1     2   ar
    10     2     3   ar
    11     3     4   ar
    12     4     5   ar
    13     5    25    1
    14    25    26    1
    15     5     6   ar
    16     6     7   ar
    17     7    28    1
    18    28    29    3
    19    29    30    1
    20    30    31   ar
    21    31    32   ar
    22    32    33   ar
    23    33    34   ar
    24     7     8   ar
    25     8     9   ar
    26    13    14    1
    27    14    15    1
    28    14    16    1
    29    16    17    1
    30    12    10    1
    31     9     1   ar
    32    16    10    1
    33     9     4   ar
    34    34    30   ar
    35    21    24    1
    36    25    27    1
    37    15    18    1
    38    17    19    1
@<TRIPOS>MOLECULE
*****
 34 38 0 0 0
SMALL
GASTEIGER

@<TRIPOS>ATOM
      1 N           6.8810   -4.4303   24.9169 N.ar    1  UNL1       -0.2937
      2 C           7.7310   -5.2860   24.0252 C.ar    1  UNL1        0.1798
      3 N           7.3778   -4.9669   22.6027 N.ar    1  UNL1       -0.2195
      4 C           6.3095   -3.9139   22.6154 C.ar    1  UNL1        0.1483
      5 C           5.5767   -3.2143   21.5093 C.ar    1  UNL1        0.1516
      6 N           4.5368   -2.1830   21.8334 N.ar    1  UNL1       -0.2031
      7 C           4.2297   -1.8514   23.2637 C.ar    1  UNL1        0.2094
      8 N           4.9626   -2.5511   24.3698 N.ar    1  UNL1       -0.2003
      9 C           6.0024   -3.5823   24.0456 C.ar    1  UNL1        0.1678
     10 C           7.1382   -3.6895   28.7183 C.3     1  UNL1        0.0977
     11 C           7.5161   -2.2746   28.3940 C.3     1  UNL1        0.0136
     12 C           7.2362   -3.2484   27.2880 C.3     1  UNL1        0.0344
     13 C           6.9052   -4.4237   26.4167 C.3     1  UNL1        0.1180
     14 C           6.6026   -5.5912   27.3086 C.3     1  UNL1        0.1582
     15 O           6.2228   -6.9704   26.8572 O.3     1  UNL1       -0.3800
     16 C           6.7467   -5.1375   28.7311 C.3     1  UNL1        0.1471
     17 O           6.5361   -5.9832   29.9518 O.3     1  UNL1       -0.3814
     18 H           6.0812   -7.5366   27.6319 H       1  UNL1        0.2105
     19 H           6.2890   -6.8820   29.6838 H       1  UNL1        0.2105
     20 C           6.0700   -2.8790   32.4536 C.3     1  UNL1        0.1107
     21 N           6.0050   -3.0369   30.9633 N.am    1  UNL1       -0.3026
     22 C           7.2032   -3.5316   30.2086 C.2     1  UNL1        0.2240
     23 O           8.4664   -3.8684   30.9441 O.2     1  UNL1       -0.2750
     24 H           5.1759   -2.8158   30.4805 H       1  UNL1        0.1495
     25 N           5.8838   -3.5459   20.0790 N.pl3   1  UNL1       -0.3153
     26 C           4.8768   -4.2837   19.2473 C.3     1  UNL1        0.1097
     27 H           6.7462   -3.2794   19.6861 H       1  UNL1        0.1483
     28 C           3.1898   -0.8201   23.5879 C.1     1  UNL1       -0.0180
     29 C           2.1500    0.2111   23.9121 C.1     1  UNL1       -0.0196
     30 C           1.1101    1.2425   24.2364 C.ar    1  UNL1        0.1874
     31 C           0.1619    1.2036   25.3980 C.ar    1  UNL1        0.0494
     32 C          -0.6983    2.4309   25.3354 C.ar    1  UNL1        0.0445
     33 C          -0.2818    3.2282   24.1350 C.ar    1  UNL1        0.1806
     34 O           0.8359    2.4937   23.4558 O.2     1  UNL1       -0.4423
@<TRIPOS>BOND
     1    20    21    1
     2    21    22   am
     3    22    23    2
     4    10    22    1
     5    10    11    1
     6    12    11    1
     7    12    13    1
     8    13     1    1
     9     1     2   ar
    10     2     3   ar
    11     3     4   ar
    12     4     5   ar
    13     5    25    1
    14    25    26    1
    15     5     6   ar
    16     6     7   ar
    17     7    28    1
    18    28    29    3
    19    29    30    1
    20    30    31   ar
    21    31    32   ar
    22    32    33   ar
    23    33    34   ar
    24     7     8   ar
    25     8     9   ar
    26    13    14    1
    27    14    15    1
    28    14    16    1
    29    16    17    1
    30    12    10    1
    31     9     1   ar
    32    16    10    1
    33     9     4   ar
    34    34    30   ar
    35    21    24    1
    36    25    27    1
    37    15    18    1
    38    17    19    1
@<TRIPOS>MOLECULE
*****
 34 38 0 0 0
SMALL
GASTEIGER

@<TRIPOS>ATOM
      1 N           0.3133    2.4657   19.3072 N.ar    1  UNL1       -0.2937
      2 C          -0.2549    3.2721   18.1773 C.ar    1  UNL1        0.1798
      3 N          -1.2483    4.2384   18.7512 N.ar    1  UNL1       -0.2195
      4 C          -1.2940    4.0293   20.2359 C.ar    1  UNL1        0.1483
      5 C          -2.0898    4.6949   21.3192 C.ar    1  UNL1        0.1516
      6 N          -1.9204    4.2649   22.7463 N.ar    1  UNL1       -0.2031
      7 C          -0.9552    3.1693   23.0899 C.ar    1  UNL1        0.2094
      8 N          -0.1594    2.5037   22.0065 N.ar    1  UNL1       -0.2003
      9 C          -0.3289    2.9337   20.5795 C.ar    1  UNL1        0.1678
     10 C           3.3751    0.1811   18.6210 C.3     1  UNL1        0.0977
     11 C           4.0367    1.3211   17.9050 C.3     1  UNL1        0.0136
     12 C           2.6725    1.5010   18.5020 C.3     1  UNL1        0.0344
     13 C           1.3430    1.3817   19.1862 C.3     1  UNL1        0.1180
     14 C           1.2239   -0.0119   19.7281 C.3     1  UNL1        0.1582
     15 O           0.0543   -0.5662   20.4862 O.3     1  UNL1       -0.3800
     16 C           2.4799   -0.7540   19.3788 C.3     1  UNL1        0.1471
     17 O           2.7867   -2.1805   19.7263 O.3     1  UNL1       -0.3814
     18 H           0.2305   -1.4904   20.7222 H       1  UNL1        0.2105
     19 H           2.0422   -2.5607   20.2184 H       1  UNL1        0.2105
     20 C           6.6651   -1.9396   19.2765 C.3     1  UNL1        0.1107
     21 N           5.5474   -0.9591   19.4761 N.am    1  UNL1       -0.3026
     22 C           4.4928   -0.7993   18.4214 C.2     1  UNL1        0.2240
     23 O           4.5558   -1.6198   17.1673 O.2     1  UNL1       -0.2750
     24 H           5.5061   -0.4206   20.2992 H       1  UNL1        0.1495
     25 N          -3.0549    5.7905   20.9756 N.pl3   1  UNL1       -0.3153
     26 C          -4.4112    5.4519   20.4314 C.3     1  UNL1        0.1097
     27 H          -2.7983    6.7318   21.1072 H       1  UNL1        0.1483
     28 C          -0.7858    2.7393   24.5169 C.1     1  UNL1       -0.0180
     29 C          -0.6164    2.3093   25.9439 C.1     1  UNL1       -0.0196
     30 C          -0.4470    1.8792   27.3710 C.ar    1  UNL1        0.1874
     31 C          -0.9649    0.6082   27.9762 C.ar    1  UNL1        0.0494
     32 C          -0.5679    0.5881   29.4226 C.ar    1  UNL1        0.0445
     33 C           0.1954    1.8468   29.7113 C.ar    1  UNL1        0.1806
     34 O           0.2702    2.6446   28.4433 O.2     1  UNL1       -0.4423
@<TRIPOS>BOND
     1    20    21    1
     2    21    22   am
     3    22    23    2
     4    10    22    1
     5    10    11    1
     6    12    11    1
     7    12    13    1
     8    13     1    1
     9     1     2   ar
    10     2     3   ar
    11     3     4   ar
    12     4     5   ar
    13     5    25    1
    14    25    26    1
    15     5     6   ar
    16     6     7   ar
    17     7    28    1
    18    28    29    3
    19    29    30    1
    20    30    31   ar
    21    31    32   ar
    22    32    33   ar
    23    33    34   ar
    24     7     8   ar
    25     8     9   ar
    26    13    14    1
    27    14    15    1
    28    14    16    1
    29    16    17    1
    30    12    10    1
    31     9     1   ar
    32    16    10    1
    33     9     4   ar
    34    34    30   ar
    35    21    24    1
    36    25    27    1
    37    15    18    1
    38    17    19    1
@<TRIPOS>MOLECULE
*****
 34 38 0 0 0
SMALL
GASTEIGER

@<TRIPOS>ATOM
      1 N           7.5623   -4.7706   29.9187 N.ar    1  UNL1       -0.2937
      2 C           8.4931   -5.7696   30.5397 C.ar    1  UNL1        0.1798
      3 N           9.0339   -6.6417   29.4457 N.ar    1  UNL1       -0.2195
      4 C           8.4373   -6.1818   28.1485 C.ar    1  UNL1        0.1483
      5 C           8.6048   -6.6665   26.7390 C.ar    1  UNL1        0.1516
      6 N           7.8627   -5.9949   25.6217 N.ar    1  UNL1       -0.2031
      7 C           6.9532   -4.8384   25.9140 C.ar    1  UNL1        0.2094
      8 N           6.7858   -4.3537   27.3237 N.ar    1  UNL1       -0.2003
      9 C           7.5278   -5.0253   28.4409 C.ar    1  UNL1        0.1678
     10 C           5.7375   -1.5919   31.1960 C.3     1  UNL1        0.0977
     11 C           6.1133   -0.8924   29.9235 C.3     1  UNL1        0.0136
     12 C           6.5313   -2.3152   30.1487 C.3     1  UNL1        0.0344
     13 C           6.7998   -3.7041   30.6475 C.3     1  UNL1        0.1180
     14 C           6.1720   -3.8393   32.0031 C.3     1  UNL1        0.1582
     15 O           6.1965   -5.0647   32.8679 O.3     1  UNL1       -0.3800
     16 C           5.5154   -2.5338   32.3421 C.3     1  UNL1        0.1471
     17 O           4.7681   -2.2247   33.6053 O.3     1  UNL1       -0.3814
     18 H           5.7178   -4.8879   33.6928 H       1  UNL1        0.2105
     19 H           4.7707   -3.0048   34.1817 H       1  UNL1        0.2105
     20 C           2.7946    0.8862   32.1699 C.3     1  UNL1        0.1107
     21 N           3.5298   -0.2730   31.5649 N.am    1  UNL1       -0.3026
     22 C           5.0024   -0.4328   31.8011 C.2     1  UNL1        0.2240
     23 O           5.7399    0.5664   32.6423 O.2     1  UNL1       -0.2750
     24 H           3.0457   -0.9288   31.0127 H       1  UNL1        0.1495
     25 N           9.5143   -7.8230   26.4466 N.pl3   1  UNL1       -0.3153
     26 C           9.3775   -9.0995   27.2225 C.3     1  UNL1        0.1097
     27 H          10.2010   -7.7442   25.7455 H       1  UNL1        0.1483
     28 C           6.2112   -4.1668   24.7968 C.1     1  UNL1       -0.0180
     29 C           5.4691   -3.4951   23.6796 C.1     1  UNL1       -0.0196
     30 C           4.7271   -2.8234   22.5623 C.ar    1  UNL1        0.1874
     31 C           3.8468   -1.6155   22.6894 C.ar    1  UNL1        0.0494
     32 C           3.3108   -1.2873   21.3274 C.ar    1  UNL1        0.0445
     33 C           3.8597   -2.2924   20.3586 C.ar    1  UNL1        0.1806
     34 O           4.7351   -3.2417   21.1218 O.2     1  UNL1       -0.4423
@<TRIPOS>BOND
     1    20    21    1
     2    21    22   am
     3    22    23    2
     4    10    22    1
     5    10    11    1
     6    12    11    1
     7    12    13    1
     8    13     1    1
     9     1     2   ar
    10     2     3   ar
    11     3     4   ar
    12     4     5   ar
    13     5    25    1
    14    25    26    1
    15     5     6   ar
    16     6     7   ar
    17     7    28    1
    18    28    29    3
    19    29    30    1
    20    30    31   ar
    21    31    32   ar
    22    32    33   ar
    23    33    34   ar
    24     7     8   ar
    25     8     9   ar
    26    13    14    1
    27    14    15    1
    28    14    16    1
    29    16    17    1
    30    12    10    1
    31     9     1   ar
    32    16    10    1
    33     9     4   ar
    34    34    30   ar
    35    21    24    1
    36    25    27    1
    37    15    18    1
    38    17    19    1
@<TRIPOS>MOLECULE
*****
 34 38 0 0 0
SMALL
GASTEIGER

@<TRIPOS>ATOM
      1 N           6.7963   -4.0454   30.7648 N.ar    1  UNL1       -0.2937
      2 C           7.3885   -5.0340   31.7249 C.ar    1  UNL1        0.1798
      3 N           7.9251   -6.1876   30.9303 N.ar    1  UNL1       -0.2195
      4 C           7.6645   -5.9119   29.4791 C.ar    1  UNL1        0.1483
      5 C           7.9723   -6.6954   28.2376 C.ar    1  UNL1        0.1516
      6 N           7.5825   -6.1550   26.8937 N.ar    1  UNL1       -0.2031
      7 C           6.8849   -4.8310   26.7913 C.ar    1  UNL1        0.2094
      8 N           6.5771   -4.0475   28.0329 N.ar    1  UNL1       -0.2003
      9 C           6.9669   -4.5880   29.3767 C.ar    1  UNL1        0.1678
     10 C           4.8555   -1.0560   32.3016 C.3     1  UNL1        0.0977
     11 C           4.4164   -1.9478   33.4249 C.3     1  UNL1        0.0136
     12 C           5.2913   -2.4909   32.3342 C.3     1  UNL1        0.0344
     13 C           6.1475   -2.7429   31.1287 C.3     1  UNL1        0.1180
     14 C           6.2409   -1.4637   30.3509 C.3     1  UNL1        0.1582
     15 O           6.9996   -1.2624   29.0727 O.3     1  UNL1       -0.3800
     16 C           5.4424   -0.4210   31.0758 C.3     1  UNL1        0.1471
     17 O           5.2625    1.0058   30.6498 O.3     1  UNL1       -0.3814
     18 H           6.8975   -0.3442   28.7772 H       1  UNL1        0.2105
     19 H           5.7457    1.1597   29.8229 H       1  UNL1        0.2105
     20 C           2.0458    1.6983   32.8208 C.3     1  UNL1        0.1107
     21 N           2.7525    0.4693   32.3307 N.am    1  UNL1       -0.3026
     22 C           4.1489    0.1731   32.7916 C.2     1  UNL1        0.2240
     23 O           4.8386    1.1059   33.7425 O.2     1  UNL1       -0.2750
     24 H           2.2998   -0.1430   31.7066 H       1  UNL1        0.1495
     25 N           8.6699   -8.0194   28.3399 N.pl3   1  UNL1       -0.3153
     26 C           8.2075   -9.1772   27.5058 C.3     1  UNL1        0.1097
     27 H           9.4313   -8.1284   28.9545 H       1  UNL1        0.1483
     28 C           6.4951   -4.2906   25.4475 C.1     1  UNL1       -0.0180
     29 C           6.1052   -3.7501   24.1037 C.1     1  UNL1       -0.0196
     30 C           5.7154   -3.2096   22.7598 C.ar    1  UNL1        0.1874
     31 C           4.3187   -2.9132   22.3001 C.ar    1  UNL1        0.0494
     32 C           4.3939   -2.3911   20.8959 C.ar    1  UNL1        0.0445
     33 C           5.8371   -2.3648   20.4878 C.ar    1  UNL1        0.1806
     34 O           6.6538   -2.8707   21.6398 O.2     1  UNL1       -0.4423
@<TRIPOS>BOND
     1    20    21    1
     2    21    22   am
     3    22    23    2
     4    10    22    1
     5    10    11    1
     6    12    11    1
     7    12    13    1
     8    13     1    1
     9     1     2   ar
    10     2     3   ar
    11     3     4   ar
    12     4     5   ar
    13     5    25    1
    14    25    26    1
    15     5     6   ar
    16     6     7   ar
    17     7    28    1
    18    28    29    3
    19    29    30    1
    20    30    31   ar
    21    31    32   ar
    22    32    33   ar
    23    33    34   ar
    24     7     8   ar
    25     8     9   ar
    26    13    14    1
    27    14    15    1
    28    14    16    1
    29    16    17    1
    30    12    10    1
    31     9     1   ar
    32    16    10    1
    33     9     4   ar
    34    34    30   ar
    35    21    24    1
    36    25    27    1
    37    15    18    1
    38    17    19    1
@<TRIPOS>MOLECULE
*****
 34 38 0 0 0
SMALL
GASTEIGER

@<TRIPOS>ATOM
      1 N           8.1123   -3.2664   31.2963 N.ar    1  UNL1       -0.2937
      2 C           9.1876   -3.0758   32.3246 C.ar    1  UNL1        0.1798
      3 N           8.7809   -1.9396   33.2154 N.ar    1  UNL1       -0.2195
      4 C           7.4542   -1.4280   32.7378 C.ar    1  UNL1        0.1483
      5 C           6.5691   -0.3214   33.2297 C.ar    1  UNL1        0.1516
      6 N           5.2707   -0.0347   32.5354 N.ar    1  UNL1       -0.2031
      7 C           4.8574   -0.8547   31.3493 C.ar    1  UNL1        0.2094
      8 N           5.7426   -1.9613   30.8574 N.ar    1  UNL1       -0.2003
      9 C           7.0410   -2.2479   31.5517 C.ar    1  UNL1        0.1678
     10 C           8.1279   -5.3316   28.0100 C.3     1  UNL1        0.0977
     11 C           8.1765   -4.0503   27.2316 C.3     1  UNL1        0.0136
     12 C           8.1463   -4.0163   28.7309 C.3     1  UNL1        0.0344
     13 C           8.1088   -4.2948   30.2044 C.3     1  UNL1        0.1180
     14 C           8.0671   -5.7821   30.3941 C.3     1  UNL1        0.1582
     15 O           8.0216   -6.5022   31.7092 O.3     1  UNL1       -0.3800
     16 C           8.0789   -6.4230   29.0379 C.3     1  UNL1        0.1471
     17 O           8.0473   -7.8963   28.7587 O.3     1  UNL1       -0.3814
     18 H           8.0005   -7.4594   31.5531 H       1  UNL1        0.2105
     19 H           8.0175   -8.3837   29.5968 H       1  UNL1        0.2105
     20 C           9.4311   -7.6101   25.0333 C.3     1  UNL1        0.1107
     21 N           9.4294   -6.7013   26.2268 N.am    1  UNL1       -0.3026
     22 C           8.1295   -6.2403   26.8165 C.2     1  UNL1        0.2240
     23 O           6.8314   -6.6880   26.2129 O.2     1  UNL1       -0.2750
     24 H          10.2815   -6.4075   26.6230 H       1  UNL1        0.1495
     25 N           6.9824    0.4986   34.4158 N.pl3   1  UNL1       -0.3153
     26 C           6.6588    0.0275   35.8027 C.3     1  UNL1        0.1097
     27 H           7.4660    1.3460   34.2840 H       1  UNL1        0.1483
     28 C           3.5590   -0.5680   30.6550 C.1     1  UNL1       -0.0180
     29 C           2.2607   -0.2814   29.9608 C.1     1  UNL1       -0.0196
     30 C           0.9622    0.0052   29.2665 C.ar    1  UNL1        0.1874
     31 C           0.7759    0.9064   28.0820 C.ar    1  UNL1        0.0494
     32 C          -0.6793    0.8991   27.7184 C.ar    1  UNL1        0.0445
     33 C          -1.3925   -0.0066   28.6782 C.ar    1  UNL1        0.1806
     34 O          -0.3779   -0.5591   29.6350 O.2     1  UNL1       -0.4423
@<TRIPOS>BOND
     1    20    21    1
     2    21    22   am
     3    22    23    2
     4    10    22    1
     5    10    11    1
     6    12    11    1
     7    12    13    1
     8    13     1    1
     9     1     2   ar
    10     2     3   ar
    11     3     4   ar
    12     4     5   ar
    13     5    25    1
    14    25    26    1
    15     5     6   ar
    16     6     7   ar
    17     7    28    1
    18    28    29    3
    19    29    30    1
    20    30    31   ar
    21    31    32   ar
    22    32    33   ar
    23    33    34   ar
    24     7     8   ar
    25     8     9   ar
    26    13    14    1
    27    14    15    1
    28    14    16    1
    29    16    17    1
    30    12    10    1
    31     9     1   ar
    32    16    10    1
    33     9     4   ar
    34    34    30   ar
    35    21    24    1
    36    25    27    1
    37    15    18    1
    38    17    19    1
@<TRIPOS>MOLECULE
*****
 34 38 0 0 0
SMALL
GASTEIGER

@<TRIPOS>ATOM
      1 N           5.7734   -2.2745   31.8102 N.ar    1  UNL1       -0.2937
      2 C           6.2377   -2.2355   33.2360 C.ar    1  UNL1        0.1798
      3 N           5.4656   -1.1630   33.9456 N.ar    1  UNL1       -0.2195
      4 C           4.5241   -0.5392   32.9584 C.ar    1  UNL1        0.1483
      5 C           3.5182    0.5656   33.0908 C.ar    1  UNL1        0.1516
      6 N           2.7025    0.9835   31.9032 N.ar    1  UNL1       -0.2031
      7 C           2.8928    0.2965   30.5834 C.ar    1  UNL1        0.2094
      8 N           3.8988   -0.8083   30.4511 N.ar    1  UNL1       -0.2003
      9 C           4.7144   -1.2261   31.6386 C.ar    1  UNL1        0.1678
     10 C           7.0250   -4.0644   28.6016 C.3     1  UNL1        0.0977
     11 C           6.8554   -2.7798   27.8460 C.3     1  UNL1        0.0136
     12 C           6.5235   -2.8397   29.3076 C.3     1  UNL1        0.0344
     13 C           6.2794   -3.1995   30.7432 C.3     1  UNL1        0.1180
     14 C           6.6300   -4.6466   30.9245 C.3     1  UNL1        0.1582
     15 O           6.5362   -5.4229   32.2046 O.3     1  UNL1       -0.3800
     16 C           7.0909   -5.1812   29.6009 C.3     1  UNL1        0.1471
     17 O           7.5388   -6.5859   29.3250 O.3     1  UNL1       -0.3814
     18 H           6.8218   -6.3369   32.0501 H       1  UNL1        0.2105
     19 H           7.4865   -7.1080   30.1408 H       1  UNL1        0.2105
     20 C           9.4825   -5.6995   25.9487 C.3     1  UNL1        0.1107
     21 N           8.9862   -4.8963   27.1144 N.am    1  UNL1       -0.3026
     22 C           7.5213   -4.8677   27.4360 C.2     1  UNL1        0.2240
     23 O           6.5528   -5.6421   26.5921 O.2     1  UNL1       -0.2750
     24 H           9.6218   -4.3880   27.6683 H       1  UNL1        0.1495
     25 N           3.3279    1.2525   34.4106 N.pl3   1  UNL1       -0.3153
     26 C           2.4435    2.4603   34.5068 C.3     1  UNL1        0.1097
     27 H           3.7835    0.9108   35.2136 H       1  UNL1        0.1483
     28 C           2.0772    0.7144   29.3960 C.1     1  UNL1       -0.0180
     29 C           1.2615    1.1322   28.2085 C.1     1  UNL1       -0.0196
     30 C           0.4459    1.5500   27.0209 C.ar    1  UNL1        0.1874
     31 C          -0.8906    2.2297   27.0643 C.ar    1  UNL1        0.0494
     32 C          -1.3388    2.4613   25.6517 C.ar    1  UNL1        0.0445
     33 C          -0.2794    1.9247   24.7353 C.ar    1  UNL1        0.1806
     34 O           0.8236    1.3616   25.5815 O.2     1  UNL1       -0.4423
@<TRIPOS>BOND
     1    20    21    1
     2    21    22   am
     3    22    23    2
     4    10    22    1
     5    10    11    1
     6    12    11    1
     7    12    13    1
     8    13     1    1
     9     1     2   ar
    10     2     3   ar
    11     3     4   ar
    12     4     5   ar
    13     5    25    1
    14    25    26    1
    15     5     6   ar
    16     6     7   ar
    17     7    28    1
    18    28    29    3
    19    29    30    1
    20    30    31   ar
    21    31    32   ar
    22    32    33   ar
    23    33    34   ar
    24     7     8   ar
    25     8     9   ar
    26    13    14    1
    27    14    15    1
    28    14    16    1
    29    16    17    1
    30    12    10    1
    31     9     1   ar
    32    16    10    1
    33     9     4   ar
    34    34    30   ar
    35    21    24    1
    36    25    27    1
    37    15    18    1
    38    17    19    1
@<TRIPOS>MOLECULE
*****
 34 38 0 0 0
SMALL
GASTEIGER

@<TRIPOS>ATOM
      1 N           5.1342   -1.1875   32.4448 N.ar    1  UNL1       -0.2937
      2 C           5.4267   -1.0810   33.9121 C.ar    1  UNL1        0.1798
      3 N           4.4818   -0.0759   34.5012 N.ar    1  UNL1       -0.2195
      4 C           3.6054    0.4387   33.3980 C.ar    1  UNL1        0.1483
      5 C           2.4923    1.4441   33.3865 C.ar    1  UNL1        0.1516
      6 N           1.7824    1.7625   32.1040 N.ar    1  UNL1       -0.2031
      7 C           2.1857    1.0755   30.8330 C.ar    1  UNL1        0.2094
      8 N           3.2988    0.0700   30.8446 N.ar    1  UNL1       -0.2003
      9 C           4.0086   -0.2483   32.1270 C.ar    1  UNL1        0.1678
     10 C           6.9925   -3.9774   30.4880 C.3     1  UNL1        0.0977
     11 C           6.9604   -4.8318   31.7204 C.3     1  UNL1        0.0136
     12 C           6.3549   -3.4597   31.7432 C.3     1  UNL1        0.0344
     13 C           5.8430   -2.0771   31.4668 C.3     1  UNL1        0.1180
     14 C           6.1643   -1.7402   30.0409 C.3     1  UNL1        0.1582
     15 O           5.8332   -0.4547   29.3425 O.3     1  UNL1       -0.3800
     16 C           6.8747   -2.9147   29.4359 C.3     1  UNL1        0.1471
     17 O           7.3788   -3.0098   28.0264 O.3     1  UNL1       -0.3814
     18 H           6.1506   -0.4932   28.4267 H       1  UNL1        0.2105
     19 H           7.1754   -2.1873   27.5541 H       1  UNL1        0.2105
     20 C           7.6445   -6.9431   27.9327 C.3     1  UNL1        0.1107
     21 N           6.9273   -5.9473   28.7954 N.am    1  UNL1       -0.3026
     22 C           7.7097   -4.9732   29.6254 C.2     1  UNL1        0.2240
     23 O           9.2092   -4.9948   29.5928 O.2     1  UNL1       -0.2750
     24 H           5.9431   -5.9331   28.8168 H       1  UNL1        0.1495
     25 N           2.0891    2.1311   34.6575 N.pl3   1  UNL1       -0.3153
     26 C           2.0978    3.6291   34.7357 C.3     1  UNL1        0.1097
     27 H           1.8187    1.5989   35.4404 H       1  UNL1        0.1483
     28 C           1.4758    1.3938   29.5506 C.1     1  UNL1       -0.0180
     29 C           0.7660    1.7122   28.2681 C.1     1  UNL1       -0.0196
     30 C           0.0562    2.0306   26.9856 C.ar    1  UNL1        0.1874
     31 C           0.5100    1.6478   25.6081 C.ar    1  UNL1        0.0494
     32 C          -0.4978    2.1683   24.6266 C.ar    1  UNL1        0.0445
     33 C          -1.5746    2.8729   25.3975 C.ar    1  UNL1        0.1806
     34 O          -1.2322    2.7878   26.8554 O.2     1  UNL1       -0.4423
@<TRIPOS>BOND
     1    20    21    1
     2    21    22   am
     3    22    23    2
     4    10    22    1
     5    10    11    1
     6    12    11    1
     7    12    13    1
     8    13     1    1
     9     1     2   ar
    10     2     3   ar
    11     3     4   ar
    12     4     5   ar
    13     5    25    1
    14    25    26    1
    15     5     6   ar
    16     6     7   ar
    17     7    28    1
    18    28    29    3
    19    29    30    1
    20    30    31   ar
    21    31    32   ar
    22    32    33   ar
    23    33    34   ar
    24     7     8   ar
    25     8     9   ar
    26    13    14    1
    27    14    15    1
    28    14    16    1
    29    16    17    1
    30    12    10    1
    31     9     1   ar
    32    16    10    1
    33     9     4   ar
    34    34    30   ar
    35    21    24    1
    36    25    27    1
    37    15    18    1
    38    17    19    1
