@<TRIPOS>MOLECULE
*****
 32 36 0 0 0
SMALL
GASTEIGER

@<TRIPOS>ATOM
      1 N          -9.4529  -18.3172   23.7722 N.3     1  UNL1       -0.2692
      2 C         -10.8679  -18.0414   23.3578 C.3     1  UNL1        0.0978
      3 C         -12.0055  -18.5078   24.2169 C.3     1  UNL1        0.0224
      4 C         -13.4205  -18.2321   23.8025 C.3     1  UNL1        0.0065
      5 C         -13.6978  -17.4899   22.5288 C.3     1  UNL1        0.0277
      6 C         -12.5602  -17.0236   21.6696 C.ar    1  UNL1       -0.0073
      7 C         -12.8375  -16.2814   20.3959 C.ar    1  UNL1       -0.0015
      8 C         -11.6999  -15.8150   19.5367 C.ar    1  UNL1        0.0203
      9 C         -10.2849  -16.0908   19.9511 C.ar    1  UNL1        0.0985
     10 N         -10.0076  -16.8329   21.2248 N.ar    1  UNL1       -0.2471
     11 C         -11.1452  -17.2993   22.0841 C.ar    1  UNL1        0.0695
     12 N          -6.6097  -14.5220   27.4481 N.3     1  UNL1       -0.3222
     13 C          -7.3205  -15.4708   26.5292 C.3     1  UNL1        0.0509
     14 C          -8.2467  -16.5077   27.0920 C.3     1  UNL1        0.0169
     15 C          -8.9575  -17.4565   26.1731 C.3     1  UNL1        0.0173
     16 C          -8.7421  -17.3684   24.6912 C.3     1  UNL1        0.0579
     17 C          -7.8159  -16.3314   24.1283 C.3     1  UNL1        0.0173
     18 C          -7.1051  -15.3826   25.0474 C.3     1  UNL1        0.0169
     19 H          -6.8712  -14.7234   28.4132 H       1  UNL1        0.1188
     20 H          -6.8729  -13.5639   27.2174 H       1  UNL1        0.1188
     21 C          -8.7487  -19.5417   23.2678 C.3     1  UNL1        0.0885
     22 C          -7.6205  -19.4082   22.2882 C.3     1  UNL1        0.0748
     23 C          -6.2004  -19.4575   22.7685 C.3     1  UNL1        0.0432
     24 C          -5.0722  -19.3239   21.7890 C.ar    1  UNL1       -0.0234
     25 C          -3.6521  -19.3732   22.2693 C.ar    1  UNL1       -0.0045
     26 C          -2.5240  -19.2396   21.2898 C.ar    1  UNL1       -0.0003
     27 C          -2.8161  -19.0567   19.8299 C.ar    1  UNL1       -0.0003
     28 C          -4.2362  -19.0074   19.3495 C.ar    1  UNL1       -0.0032
     29 C          -5.3643  -19.1410   20.3291 C.ar    1  UNL1       -0.0103
     30 C          -6.7845  -19.0917   19.8488 C.3     1  UNL1        0.0953
     31 N          -7.9126  -19.2253   20.8283 N.3     1  UNL1       -0.2934
     32 H          -8.4633  -20.0321   20.5349 H       1  UNL1        0.1236
@<TRIPOS>BOND
     1    13    12    1
     2    13    14    1
     3    14    15    1
     4    15    16    1
     5    16     1    1
     6     1    21    1
     7    22    21    1
     8    22    23    1
     9    23    24    1
    10    24    25   ar
    11    25    26   ar
    12    26    27   ar
    13    27    28   ar
    14    28    29   ar
    15    29    30    1
    16    30    31    1
    17     2     1    1
    18     2     3    1
    19     3     4    1
    20     4     5    1
    21     5     6    1
    22     6     7   ar
    23     7     8   ar
    24     8     9   ar
    25     9    10   ar
    26    10    11   ar
    27    16    17    1
    28    17    18    1
    29    18    13    1
    30    31    22    1
    31    11     2    1
    32    29    24   ar
    33    11     6   ar
    34    12    19    1
    35    12    20    1
    36    31    32    1
@<TRIPOS>MOLECULE
*****
 32 36 0 0 0
SMALL
GASTEIGER

@<TRIPOS>ATOM
      1 N          -8.7473  -18.2153   22.8035 N.3     1  UNL1       -0.2692
      2 C          -8.6179  -17.6731   24.1961 C.3     1  UNL1        0.0978
      3 C          -9.5881  -18.0963   25.2589 C.3     1  UNL1        0.0224
      4 C          -9.4587  -17.5541   26.6515 C.3     1  UNL1        0.0065
      5 C          -8.3590  -16.5888   26.9813 C.3     1  UNL1        0.0277
      6 C          -7.3888  -16.1656   25.9185 C.ar    1  UNL1       -0.0073
      7 C          -6.2890  -15.2002   26.2483 C.ar    1  UNL1       -0.0015
      8 C          -5.3188  -14.7771   25.1855 C.ar    1  UNL1        0.0203
      9 C          -5.4482  -15.3193   23.7929 C.ar    1  UNL1        0.0985
     10 N          -6.5479  -16.2846   23.4631 N.ar    1  UNL1       -0.2471
     11 C          -7.5182  -16.7078   24.5259 C.ar    1  UNL1        0.0695
     12 N         -12.4003  -15.5370   18.8689 N.3     1  UNL1       -0.3222
     13 C         -11.4870  -16.2065   19.8525 C.3     1  UNL1        0.0509
     14 C         -10.6750  -15.3799   20.8050 C.3     1  UNL1        0.0169
     15 C          -9.7617  -16.0494   21.7886 C.3     1  UNL1        0.0173
     16 C          -9.6605  -17.5458   21.8199 C.3     1  UNL1        0.0579
     17 C         -10.4726  -18.3724   20.8674 C.3     1  UNL1        0.0173
     18 C         -11.3859  -17.7028   19.8837 C.3     1  UNL1        0.0169
     19 H         -12.3442  -14.5254   18.9869 H       1  UNL1        0.1188
     20 H         -13.3590  -15.8455   19.0305 H       1  UNL1        0.1188
     21 C          -7.9635  -19.4271   22.3946 C.3     1  UNL1        0.0885
     22 C          -6.6861  -19.2693   21.6243 C.3     1  UNL1        0.0748
     23 C          -5.3896  -19.0756   22.3534 C.3     1  UNL1        0.0432
     24 C          -4.1122  -18.9178   21.5831 C.ar    1  UNL1       -0.0234
     25 C          -2.8157  -18.7241   22.3122 C.ar    1  UNL1       -0.0045
     26 C          -1.5384  -18.5663   21.5419 C.ar    1  UNL1       -0.0003
     27 C          -1.5575  -18.6022   20.0424 C.ar    1  UNL1       -0.0003
     28 C          -2.8539  -18.7958   19.3133 C.ar    1  UNL1       -0.0032
     29 C          -4.1313  -18.9536   20.0836 C.ar    1  UNL1       -0.0103
     30 C          -5.4278  -19.1473   19.3545 C.3     1  UNL1        0.0953
     31 N          -6.7052  -19.3051   20.1248 N.3     1  UNL1       -0.2934
     32 H          -7.1012  -20.2060   19.8569 H       1  UNL1        0.1236
@<TRIPOS>BOND
     1    13    12    1
     2    13    14    1
     3    14    15    1
     4    15    16    1
     5    16     1    1
     6     1    21    1
     7    22    21    1
     8    22    23    1
     9    23    24    1
    10    24    25   ar
    11    25    26   ar
    12    26    27   ar
    13    27    28   ar
    14    28    29   ar
    15    29    30    1
    16    30    31    1
    17     2     1    1
    18     2     3    1
    19     3     4    1
    20     4     5    1
    21     5     6    1
    22     6     7   ar
    23     7     8   ar
    24     8     9   ar
    25     9    10   ar
    26    10    11   ar
    27    16    17    1
    28    17    18    1
    29    18    13    1
    30    31    22    1
    31    11     2    1
    32    29    24   ar
    33    11     6   ar
    34    12    19    1
    35    12    20    1
    36    31    32    1
@<TRIPOS>MOLECULE
*****
 32 36 0 0 0
SMALL
GASTEIGER

@<TRIPOS>ATOM
      1 N          -8.7559  -17.8070   23.1676 N.3     1  UNL1       -0.2692
      2 C         -10.0085  -17.3758   22.4641 C.3     1  UNL1        0.0978
      3 C          -9.9206  -16.6323   21.1643 C.3     1  UNL1        0.0224
      4 C         -11.1733  -16.2011   20.4608 C.3     1  UNL1        0.0065
      5 C         -12.5138  -16.5134   21.0570 C.3     1  UNL1        0.0277
      6 C         -12.6016  -17.2569   22.3568 C.ar    1  UNL1       -0.0073
      7 C         -13.9421  -17.5692   22.9531 C.ar    1  UNL1       -0.0015
      8 C         -14.0300  -18.3127   24.2529 C.ar    1  UNL1        0.0203
      9 C         -12.7773  -18.7439   24.9564 C.ar    1  UNL1        0.0985
     10 N         -11.4369  -18.4316   24.3602 N.ar    1  UNL1       -0.2471
     11 C         -11.3490  -17.6881   23.0603 C.ar    1  UNL1        0.0695
     12 N          -6.4559  -14.4136   27.5488 N.3     1  UNL1       -0.3222
     13 C          -7.0309  -15.2619   26.4535 C.3     1  UNL1        0.0509
     14 C          -6.4679  -15.1778   25.0657 C.3     1  UNL1        0.0169
     15 C          -7.0429  -16.0262   23.9704 C.3     1  UNL1        0.0173
     16 C          -8.1809  -16.9587   24.2629 C.3     1  UNL1        0.0579
     17 C          -8.7439  -17.0428   25.6507 C.3     1  UNL1        0.0173
     18 C          -8.1688  -16.1944   26.7460 C.3     1  UNL1        0.0169
     19 H          -5.6960  -13.8450   27.1751 H       1  UNL1        0.1188
     20 H          -6.0978  -15.0141   28.2915 H       1  UNL1        0.1188
     21 C          -8.0782  -19.0865   22.7759 C.3     1  UNL1        0.0885
     22 C          -6.8470  -19.0516   21.9196 C.3     1  UNL1        0.0748
     23 C          -5.5031  -18.8282   22.5472 C.3     1  UNL1        0.0432
     24 C          -4.2719  -18.7932   21.6910 C.ar    1  UNL1       -0.0234
     25 C          -2.9280  -18.5698   22.3186 C.ar    1  UNL1       -0.0045
     26 C          -1.6969  -18.5348   21.4623 C.ar    1  UNL1       -0.0003
     27 C          -1.8098  -18.7233   19.9785 C.ar    1  UNL1       -0.0003
     28 C          -3.1537  -18.9467   19.3509 C.ar    1  UNL1       -0.0032
     29 C          -4.3848  -18.9817   20.2071 C.ar    1  UNL1       -0.0103
     30 C          -5.7288  -19.2051   19.5796 C.3     1  UNL1        0.0953
     31 N          -6.9599  -19.2401   20.4358 N.3     1  UNL1       -0.2934
     32 H          -7.3964  -20.1498   20.2869 H       1  UNL1        0.1236
@<TRIPOS>BOND
     1    13    12    1
     2    13    14    1
     3    14    15    1
     4    15    16    1
     5    16     1    1
     6     1    21    1
     7    22    21    1
     8    22    23    1
     9    23    24    1
    10    24    25   ar
    11    25    26   ar
    12    26    27   ar
    13    27    28   ar
    14    28    29   ar
    15    29    30    1
    16    30    31    1
    17     2     1    1
    18     2     3    1
    19     3     4    1
    20     4     5    1
    21     5     6    1
    22     6     7   ar
    23     7     8   ar
    24     8     9   ar
    25     9    10   ar
    26    10    11   ar
    27    16    17    1
    28    17    18    1
    29    18    13    1
    30    31    22    1
    31    11     2    1
    32    29    24   ar
    33    11     6   ar
    34    12    19    1
    35    12    20    1
    36    31    32    1
@<TRIPOS>MOLECULE
*****
 32 36 0 0 0
SMALL
GASTEIGER

@<TRIPOS>ATOM
      1 N          -8.5557  -18.0822   22.8242 N.3     1  UNL1       -0.2692
      2 C         -10.0536  -18.0069   22.8484 C.3     1  UNL1        0.0978
      3 C         -10.8215  -18.6917   23.9398 C.3     1  UNL1        0.0224
      4 C         -12.3194  -18.6164   23.9640 C.3     1  UNL1        0.0065
      5 C         -13.0495  -17.8563   22.8967 C.3     1  UNL1        0.0277
      6 C         -12.2816  -17.1715   21.8052 C.ar    1  UNL1       -0.0073
      7 C         -13.0116  -16.4113   20.7378 C.ar    1  UNL1       -0.0015
      8 C         -12.2438  -15.7264   19.6464 C.ar    1  UNL1        0.0203
      9 C         -10.7459  -15.8017   19.6222 C.ar    1  UNL1        0.0985
     10 N         -10.0158  -16.5619   20.6895 N.ar    1  UNL1       -0.2471
     11 C         -10.7837  -17.2468   21.7811 C.ar    1  UNL1        0.0695
     12 N          -5.3064  -14.2652   26.1214 N.3     1  UNL1       -0.3222
     13 C          -6.1187  -15.2194   25.2971 C.3     1  UNL1        0.0509
     14 C          -5.6252  -15.6539   23.9489 C.3     1  UNL1        0.0169
     15 C          -6.4375  -16.6081   23.1246 C.3     1  UNL1        0.0173
     16 C          -7.7434  -17.1280   23.6485 C.3     1  UNL1        0.0579
     17 C          -8.2369  -16.6935   24.9967 C.3     1  UNL1        0.0173
     18 C          -7.4245  -15.7392   25.8210 C.3     1  UNL1        0.0169
     19 H          -4.4562  -14.0173   25.6153 H       1  UNL1        0.1188
     20 H          -5.0585  -14.7067   27.0069 H       1  UNL1        0.1188
     21 C          -7.8701  -19.1117   21.9757 C.3     1  UNL1        0.0885
     22 C          -6.3810  -19.0683   21.8003 C.3     1  UNL1        0.0748
     23 C          -5.7929  -18.7023   20.4699 C.3     1  UNL1        0.0432
     24 C          -4.3037  -18.6588   20.2945 C.ar    1  UNL1       -0.0234
     25 C          -3.7156  -18.2928   18.9641 C.ar    1  UNL1       -0.0045
     26 C          -2.2266  -18.2494   18.7887 C.ar    1  UNL1       -0.0003
     27 C          -1.3256  -18.5720   19.9438 C.ar    1  UNL1       -0.0003
     28 C          -1.9137  -18.9380   21.2743 C.ar    1  UNL1       -0.0032
     29 C          -3.4028  -18.9814   21.4496 C.ar    1  UNL1       -0.0103
     30 C          -3.9910  -19.3474   22.7801 C.3     1  UNL1        0.0953
     31 N          -5.4800  -19.3908   22.9554 N.3     1  UNL1       -0.2934
     32 H          -5.7082  -18.7319   23.6998 H       1  UNL1        0.1236
@<TRIPOS>BOND
     1    13    12    1
     2    13    14    1
     3    14    15    1
     4    15    16    1
     5    16     1    1
     6     1    21    1
     7    22    21    1
     8    22    23    1
     9    23    24    1
    10    24    25   ar
    11    25    26   ar
    12    26    27   ar
    13    27    28   ar
    14    28    29   ar
    15    29    30    1
    16    30    31    1
    17     2     1    1
    18     2     3    1
    19     3     4    1
    20     4     5    1
    21     5     6    1
    22     6     7   ar
    23     7     8   ar
    24     8     9   ar
    25     9    10   ar
    26    10    11   ar
    27    16    17    1
    28    17    18    1
    29    18    13    1
    30    31    22    1
    31    11     2    1
    32    29    24   ar
    33    11     6   ar
    34    12    19    1
    35    12    20    1
    36    31    32    1
@<TRIPOS>MOLECULE
*****
 32 36 0 0 0
SMALL
GASTEIGER

@<TRIPOS>ATOM
      1 N         -12.6938   -4.2719   16.9605 N.3     1  UNL1       -0.2692
      2 C         -12.2607   -2.8381   16.8775 C.3     1  UNL1        0.0978
      3 C         -11.0390   -2.4681   16.0898 C.3     1  UNL1        0.0224
      4 C         -10.6059   -1.0344   16.0067 C.3     1  UNL1        0.0065
      5 C         -11.3946    0.0293   16.7113 C.3     1  UNL1        0.0277
      6 C         -12.6163   -0.3407   17.4989 C.ar    1  UNL1       -0.0073
      7 C         -13.4051    0.7230   18.2035 C.ar    1  UNL1       -0.0015
      8 C         -14.6268    0.3530   18.9912 C.ar    1  UNL1        0.0203
      9 C         -15.0599   -1.0807   19.0743 C.ar    1  UNL1        0.0985
     10 N         -14.2712   -2.1444   18.3697 N.ar    1  UNL1       -0.2471
     11 C         -13.0494   -1.7744   17.5820 C.ar    1  UNL1        0.0695
     12 N          -8.9829   -8.3994   19.2391 N.3     1  UNL1       -0.3222
     13 C          -9.9106   -7.3675   18.6695 C.3     1  UNL1        0.0509
     14 C          -9.9827   -6.0019   19.2858 C.3     1  UNL1        0.0169
     15 C         -10.9104   -4.9700   18.7162 C.3     1  UNL1        0.0173
     16 C         -11.7661   -5.3037   17.5302 C.3     1  UNL1        0.0579
     17 C         -11.6940   -6.6694   16.9139 C.3     1  UNL1        0.0173
     18 C         -10.7662   -7.7013   17.4836 C.3     1  UNL1        0.0169
     19 H          -8.4825   -8.0043   20.0353 H       1  UNL1        0.1188
     20 H          -8.3133   -8.6859   18.5250 H       1  UNL1        0.1188
     21 C         -14.0545   -4.6737   16.4740 C.3     1  UNL1        0.0885
     22 C         -14.9687   -5.4592   17.3670 C.3     1  UNL1        0.0748
     23 C         -15.1358   -6.9350   17.1576 C.3     1  UNL1        0.0432
     24 C         -16.0499   -7.7205   18.0506 C.ar    1  UNL1       -0.0234
     25 C         -16.2171   -9.1964   17.8412 C.ar    1  UNL1       -0.0045
     26 C         -17.1312   -9.9818   18.7342 C.ar    1  UNL1       -0.0003
     27 C         -17.8781   -9.2914   19.8367 C.ar    1  UNL1       -0.0003
     28 C         -17.7109   -7.8155   20.0462 C.ar    1  UNL1       -0.0032
     29 C         -16.7968   -7.0301   19.1531 C.ar    1  UNL1       -0.0103
     30 C         -16.6296   -5.5542   19.3625 C.3     1  UNL1        0.0953
     31 N         -15.7156   -4.7688   18.4695 N.3     1  UNL1       -0.2934
     32 H         -15.0163   -4.3350   19.0722 H       1  UNL1        0.1236
@<TRIPOS>BOND
     1    13    12    1
     2    13    14    1
     3    14    15    1
     4    15    16    1
     5    16     1    1
     6     1    21    1
     7    22    21    1
     8    22    23    1
     9    23    24    1
    10    24    25   ar
    11    25    26   ar
    12    26    27   ar
    13    27    28   ar
    14    28    29   ar
    15    29    30    1
    16    30    31    1
    17     2     1    1
    18     2     3    1
    19     3     4    1
    20     4     5    1
    21     5     6    1
    22     6     7   ar
    23     7     8   ar
    24     8     9   ar
    25     9    10   ar
    26    10    11   ar
    27    16    17    1
    28    17    18    1
    29    18    13    1
    30    31    22    1
    31    11     2    1
    32    29    24   ar
    33    11     6   ar
    34    12    19    1
    35    12    20    1
    36    31    32    1
@<TRIPOS>MOLECULE
*****
 32 36 0 0 0
SMALL
GASTEIGER

@<TRIPOS>ATOM
      1 N          -6.5377  -16.7032   22.8941 N.3     1  UNL1       -0.2692
      2 C          -5.4306  -17.6661   22.5823 C.3     1  UNL1        0.0978
      3 C          -4.0768  -17.4778   23.2000 C.3     1  UNL1        0.0224
      4 C          -2.9697  -18.4407   22.8882 C.3     1  UNL1        0.0065
      5 C          -3.2164  -19.5918   21.9587 C.3     1  UNL1        0.0277
      6 C          -4.5703  -19.7801   21.3410 C.ar    1  UNL1       -0.0073
      7 C          -4.8171  -20.9312   20.4114 C.ar    1  UNL1       -0.0015
      8 C          -6.1709  -21.1194   19.7937 C.ar    1  UNL1        0.0203
      9 C          -7.2780  -20.1566   20.1055 C.ar    1  UNL1        0.0985
     10 N          -7.0313  -19.0055   21.0350 N.ar    1  UNL1       -0.2471
     11 C          -5.6774  -18.8172   21.6528 C.ar    1  UNL1        0.0695
     12 N          -6.9086  -14.2207   28.3438 N.3     1  UNL1       -0.3222
     13 C          -6.8158  -14.8413   26.9814 C.3     1  UNL1        0.0509
     14 C          -5.5082  -14.8455   26.2465 C.3     1  UNL1        0.0169
     15 C          -5.4155  -15.4662   24.8841 C.3     1  UNL1        0.0173
     16 C          -6.6305  -16.0826   24.2565 C.3     1  UNL1        0.0579
     17 C          -7.9381  -16.0784   24.9913 C.3     1  UNL1        0.0173
     18 C          -8.0308  -15.4577   26.3538 C.3     1  UNL1        0.0169
     19 H          -5.9958  -13.8534   28.6129 H       1  UNL1        0.1188
     20 H          -7.2040  -14.9257   29.0191 H       1  UNL1        0.1188
     21 C          -7.5521  -16.3610   21.8435 C.3     1  UNL1        0.0885
     22 C          -9.0143  -16.5419   22.1254 C.3     1  UNL1        0.0748
     23 C          -9.4614  -17.5269   23.1645 C.3     1  UNL1        0.0432
     24 C         -10.9236  -17.7078   23.4465 C.ar    1  UNL1       -0.0234
     25 C         -11.3708  -18.6928   24.4856 C.ar    1  UNL1       -0.0045
     26 C         -12.8329  -18.8737   24.7675 C.ar    1  UNL1       -0.0003
     27 C         -13.8478  -18.0696   24.0103 C.ar    1  UNL1       -0.0003
     28 C         -13.4006  -17.0846   22.9712 C.ar    1  UNL1       -0.0032
     29 C         -11.9385  -16.9037   22.6893 C.ar    1  UNL1       -0.0103
     30 C         -11.4913  -15.9187   21.6501 C.3     1  UNL1        0.0953
     31 N         -10.0292  -15.7378   21.3682 N.3     1  UNL1       -0.2934
     32 H          -9.8153  -14.7556   21.5412 H       1  UNL1        0.1236
@<TRIPOS>BOND
     1    13    12    1
     2    13    14    1
     3    14    15    1
     4    15    16    1
     5    16     1    1
     6     1    21    1
     7    22    21    1
     8    22    23    1
     9    23    24    1
    10    24    25   ar
    11    25    26   ar
    12    26    27   ar
    13    27    28   ar
    14    28    29   ar
    15    29    30    1
    16    30    31    1
    17     2     1    1
    18     2     3    1
    19     3     4    1
    20     4     5    1
    21     5     6    1
    22     6     7   ar
    23     7     8   ar
    24     8     9   ar
    25     9    10   ar
    26    10    11   ar
    27    16    17    1
    28    17    18    1
    29    18    13    1
    30    31    22    1
    31    11     2    1
    32    29    24   ar
    33    11     6   ar
    34    12    19    1
    35    12    20    1
    36    31    32    1
@<TRIPOS>MOLECULE
*****
 32 36 0 0 0
SMALL
GASTEIGER

@<TRIPOS>ATOM
      1 N          -5.7630  -18.9218   22.2153 N.3     1  UNL1       -0.2692
      2 C          -4.6749  -19.1454   21.2073 C.3     1  UNL1        0.0978
      3 C          -4.7472  -20.3165   20.2729 C.3     1  UNL1        0.0224
      4 C          -3.6591  -20.5400   19.2649 C.3     1  UNL1        0.0065
      5 C          -2.4986  -19.5925   19.1914 C.3     1  UNL1        0.0277
      6 C          -2.4263  -18.4214   20.1258 C.ar    1  UNL1       -0.0073
      7 C          -1.2658  -17.4738   20.0523 C.ar    1  UNL1       -0.0015
      8 C          -1.1934  -16.3027   20.9868 C.ar    1  UNL1        0.0203
      9 C          -2.2815  -16.0792   21.9948 C.ar    1  UNL1        0.0985
     10 N          -3.4420  -17.0267   22.0683 N.ar    1  UNL1       -0.2471
     11 C          -3.5144  -18.1978   21.1338 C.ar    1  UNL1        0.0695
     12 N          -5.4085  -14.3125   26.0400 N.3     1  UNL1       -0.3222
     13 C          -5.4971  -15.4648   25.0839 C.3     1  UNL1        0.0509
     14 C          -4.5131  -16.5932   25.1759 C.3     1  UNL1        0.0169
     15 C          -4.6017  -17.7455   24.2197 C.3     1  UNL1        0.0173
     16 C          -5.6744  -17.7695   23.1715 C.3     1  UNL1        0.0579
     17 C          -6.6584  -16.6411   23.0794 C.3     1  UNL1        0.0173
     18 C          -6.5698  -15.4888   24.0356 C.3     1  UNL1        0.0169
     19 H          -4.6271  -14.4601   26.6788 H       1  UNL1        0.1188
     20 H          -6.2755  -14.2456   26.5731 H       1  UNL1        0.1188
     21 C          -6.9397  -19.8505   22.2671 C.3     1  UNL1        0.0885
     22 C          -8.3330  -19.3012   22.1832 C.3     1  UNL1        0.0748
     23 C          -9.2489  -19.3953   23.3674 C.3     1  UNL1        0.0432
     24 C         -10.6422  -18.8459   23.2835 C.ar    1  UNL1       -0.0234
     25 C         -11.5580  -18.9401   24.4677 C.ar    1  UNL1       -0.0045
     26 C         -12.9513  -18.3907   24.3838 C.ar    1  UNL1       -0.0003
     27 C         -13.4287  -17.7473   23.1157 C.ar    1  UNL1       -0.0003
     28 C         -12.5128  -17.6532   21.9315 C.ar    1  UNL1       -0.0032
     29 C         -11.1196  -18.2025   22.0155 C.ar    1  UNL1       -0.0103
     30 C         -10.2037  -18.1084   20.8312 C.3     1  UNL1        0.0953
     31 N          -8.8104  -18.6577   20.9151 N.3     1  UNL1       -0.2934
     32 H          -8.1762  -17.8828   20.7213 H       1  UNL1        0.1236
@<TRIPOS>BOND
     1    13    12    1
     2    13    14    1
     3    14    15    1
     4    15    16    1
     5    16     1    1
     6     1    21    1
     7    22    21    1
     8    22    23    1
     9    23    24    1
    10    24    25   ar
    11    25    26   ar
    12    26    27   ar
    13    27    28   ar
    14    28    29   ar
    15    29    30    1
    16    30    31    1
    17     2     1    1
    18     2     3    1
    19     3     4    1
    20     4     5    1
    21     5     6    1
    22     6     7   ar
    23     7     8   ar
    24     8     9   ar
    25     9    10   ar
    26    10    11   ar
    27    16    17    1
    28    17    18    1
    29    18    13    1
    30    31    22    1
    31    11     2    1
    32    29    24   ar
    33    11     6   ar
    34    12    19    1
    35    12    20    1
    36    31    32    1
@<TRIPOS>MOLECULE
*****
 32 36 0 0 0
SMALL
GASTEIGER

@<TRIPOS>ATOM
      1 N           5.2508   -1.9596   22.5394 N.3     1  UNL1       -0.2692
      2 C           4.7695   -2.5269   21.2369 C.3     1  UNL1        0.0978
      3 C           4.3028   -3.9506   21.1657 C.3     1  UNL1        0.0224
      4 C           3.8215   -4.5179   19.8632 C.3     1  UNL1        0.0065
      5 C           3.8069   -3.6615   18.6318 C.3     1  UNL1        0.0277
      6 C           4.2735   -2.2377   18.7030 C.ar    1  UNL1       -0.0073
      7 C           4.2589   -1.3812   17.4716 C.ar    1  UNL1       -0.0015
      8 C           4.7256    0.0426   17.5428 C.ar    1  UNL1        0.0203
      9 C           5.2069    0.6099   18.8453 C.ar    1  UNL1        0.0985
     10 N           5.2215   -0.2466   20.0766 N.ar    1  UNL1       -0.2471
     11 C           4.7548   -1.6704   20.0055 C.ar    1  UNL1        0.0695
     12 N           1.4234    0.9162   26.1560 N.3     1  UNL1       -0.3222
     13 C           2.3802    0.1973   25.2518 C.3     1  UNL1        0.0509
     14 C           2.1462    0.1843   23.7703 C.3     1  UNL1        0.0169
     15 C           3.1031   -0.5346   22.8661 C.3     1  UNL1        0.0173
     16 C           4.2940   -1.2406   23.4435 C.3     1  UNL1        0.0579
     17 C           4.5280   -1.2277   24.9251 C.3     1  UNL1        0.0173
     18 C           3.5711   -0.5087   25.8293 C.3     1  UNL1        0.0169
     19 H           0.6791    1.3357   25.5988 H       1  UNL1        0.1188
     20 H           1.9205    1.6473   26.6648 H       1  UNL1        0.1188
     21 C           6.6889   -2.1112   22.9377 C.3     1  UNL1        0.0885
     22 C           7.2216   -3.4587   23.3258 C.3     1  UNL1        0.0748
     23 C           6.8480   -4.0605   24.6480 C.3     1  UNL1        0.0432
     24 C           7.3807   -5.4080   25.0362 C.ar    1  UNL1       -0.0234
     25 C           7.0070   -6.0098   26.3584 C.ar    1  UNL1       -0.0045
     26 C           7.5397   -7.3572   26.7464 C.ar    1  UNL1       -0.0003
     27 C           8.4460   -8.1028   25.8123 C.ar    1  UNL1       -0.0003
     28 C           8.8197   -7.5011   24.4901 C.ar    1  UNL1       -0.0032
     29 C           8.2870   -6.1537   24.1021 C.ar    1  UNL1       -0.0103
     30 C           8.6606   -5.5518   22.7798 C.3     1  UNL1        0.0953
     31 N           8.1279   -4.2044   22.3917 N.3     1  UNL1       -0.2934
     32 H           7.6130   -4.3311   21.5204 H       1  UNL1        0.1236
@<TRIPOS>BOND
     1    13    12    1
     2    13    14    1
     3    14    15    1
     4    15    16    1
     5    16     1    1
     6     1    21    1
     7    22    21    1
     8    22    23    1
     9    23    24    1
    10    24    25   ar
    11    25    26   ar
    12    26    27   ar
    13    27    28   ar
    14    28    29   ar
    15    29    30    1
    16    30    31    1
    17     2     1    1
    18     2     3    1
    19     3     4    1
    20     4     5    1
    21     5     6    1
    22     6     7   ar
    23     7     8   ar
    24     8     9   ar
    25     9    10   ar
    26    10    11   ar
    27    16    17    1
    28    17    18    1
    29    18    13    1
    30    31    22    1
    31    11     2    1
    32    29    24   ar
    33    11     6   ar
    34    12    19    1
    35    12    20    1
    36    31    32    1
@<TRIPOS>MOLECULE
*****
 32 36 0 0 0
SMALL
GASTEIGER

@<TRIPOS>ATOM
      1 N           0.0115    3.2228   20.0493 N.3     1  UNL1       -0.2692
      2 C          -1.0161    3.5825   19.0174 C.3     1  UNL1        0.0978
      3 C          -0.5844    3.9997   17.6428 C.3     1  UNL1        0.0224
      4 C          -1.6120    4.3595   16.6109 C.3     1  UNL1        0.0065
      5 C          -3.0711    4.3021   16.9537 C.3     1  UNL1        0.0277
      6 C          -3.5027    3.8849   18.3283 C.ar    1  UNL1       -0.0073
      7 C          -4.9620    3.8274   18.6711 C.ar    1  UNL1       -0.0015
      8 C          -5.3936    3.4103   20.0457 C.ar    1  UNL1        0.0203
      9 C          -4.3661    3.0505   21.0776 C.ar    1  UNL1        0.0985
     10 N          -2.9069    3.1079   20.7348 N.ar    1  UNL1       -0.2471
     11 C          -2.4752    3.5251   19.3601 C.ar    1  UNL1        0.0695
     12 N           3.0405   -1.9365   19.5953 N.3     1  UNL1       -0.3222
     13 C           2.2833   -0.6467   19.7088 C.3     1  UNL1        0.0509
     14 C           0.9147   -0.6320   20.3225 C.3     1  UNL1        0.0169
     15 C           0.1574    0.6578   20.4360 C.3     1  UNL1        0.0173
     16 C           0.7687    1.9330   19.9358 C.3     1  UNL1        0.0579
     17 C           2.1373    1.9183   19.3220 C.3     1  UNL1        0.0173
     18 C           2.8946    0.6284   19.2085 C.3     1  UNL1        0.0169
     19 H           2.4793   -2.6954   19.9819 H       1  UNL1        0.1188
     20 H           3.9162   -1.8633   20.1131 H       1  UNL1        0.1188
     21 C           0.2817    4.1528   21.1946 C.3     1  UNL1        0.0885
     22 C          -0.2367    3.8268   22.5640 C.3     1  UNL1        0.0748
     23 C           0.4707    2.8114   23.4116 C.3     1  UNL1        0.0432
     24 C          -0.0477    2.4853   24.7809 C.ar    1  UNL1       -0.0234
     25 C           0.6597    1.4699   25.6285 C.ar    1  UNL1       -0.0045
     26 C           0.1412    1.1439   26.9978 C.ar    1  UNL1       -0.0003
     27 C          -1.0846    1.8333   27.5194 C.ar    1  UNL1       -0.0003
     28 C          -1.7920    2.8487   26.6718 C.ar    1  UNL1       -0.0032
     29 C          -1.2735    3.1747   25.3026 C.ar    1  UNL1       -0.0103
     30 C          -1.9809    4.1901   24.4548 C.3     1  UNL1        0.0953
     31 N          -1.4625    4.5162   23.0856 N.3     1  UNL1       -0.2934
     32 H          -1.2641    5.5166   23.0764 H       1  UNL1        0.1236
@<TRIPOS>BOND
     1    13    12    1
     2    13    14    1
     3    14    15    1
     4    15    16    1
     5    16     1    1
     6     1    21    1
     7    22    21    1
     8    22    23    1
     9    23    24    1
    10    24    25   ar
    11    25    26   ar
    12    26    27   ar
    13    27    28   ar
    14    28    29   ar
    15    29    30    1
    16    30    31    1
    17     2     1    1
    18     2     3    1
    19     3     4    1
    20     4     5    1
    21     5     6    1
    22     6     7   ar
    23     7     8   ar
    24     8     9   ar
    25     9    10   ar
    26    10    11   ar
    27    16    17    1
    28    17    18    1
    29    18    13    1
    30    31    22    1
    31    11     2    1
    32    29    24   ar
    33    11     6   ar
    34    12    19    1
    35    12    20    1
    36    31    32    1
