@<TRIPOS>MOLECULE
*****
 25 27 0 0 0
SMALL
GASTEIGER

@<TRIPOS>ATOM
      1 C          -7.3857  -18.6699   21.9885 C.3     1  UNL1        0.1753
      2 O          -8.1296  -19.8911   21.5357 O.3     1  UNL1       -0.3460
      3 C          -9.6119  -19.8275   21.3149 C.3     1  UNL1        0.1685
      4 C         -10.3503  -18.5425   21.5469 C.ar    1  UNL1        0.0067
      5 C         -11.8325  -18.4789   21.3262 C.ar    1  UNL1       -0.0021
      6 C         -12.5708  -17.1940   21.5582 C.ar    1  UNL1       -0.0003
      7 C         -11.8269  -15.9727   22.0111 C.ar    1  UNL1       -0.0002
      8 C         -10.3446  -16.0364   22.2318 C.ar    1  UNL1       -0.0010
      9 C          -9.6063  -17.3213   21.9998 C.ar    1  UNL1        0.0181
     10 C          -8.1240  -17.3850   22.2206 C.3     1  UNL1        0.2161
     11 C          -5.9033  -18.7336   22.2093 C.3     1  UNL1        0.1027
     12 C          -3.5304  -18.9472   21.1733 C.3     1  UNL1        0.0859
     13 N          -4.9640  -18.5208   21.0594 N.3     1  UNL1       -0.2942
     14 H          -5.3572  -19.0201   20.2616 H       1  UNL1        0.1234
     15 O          -7.3800  -16.1637   22.6734 O.3     1  UNL1       -0.4722
     16 C          -7.1663  -15.9155   24.1372 C.ar    1  UNL1        0.1428
     17 C          -8.3448  -15.7966   25.0576 C.ar    1  UNL1        0.0369
     18 C          -8.1311  -15.5484   26.5214 C.ar    1  UNL1        0.0031
     19 C          -6.7390  -15.4189   27.0648 C.ar    1  UNL1        0.0001
     20 C          -5.5605  -15.5378   26.1444 C.ar    1  UNL1        0.0069
     21 C          -5.7742  -15.7860   24.6805 C.ar    1  UNL1        0.1053
     22 C          -4.5958  -15.9049   23.7602 C.3     1  UNL1        0.4214
     23 F          -3.4173  -16.0237   22.8398 F       1  UNL1       -0.1657
     24 F          -4.9437  -14.5823   23.1439 F       1  UNL1       -0.1657
     25 F          -4.2478  -17.2274   24.3764 F       1  UNL1       -0.1657
@<TRIPOS>BOND
     1    12    13    1
     2    13    11    1
     3     1    11    1
     4     1     2    1
     5     2     3    1
     6     3     4    1
     7     4     5   ar
     8     5     6   ar
     9     6     7   ar
    10     7     8   ar
    11     8     9   ar
    12     9    10    1
    13    10    15    1
    14    15    16    1
    15    16    17   ar
    16    17    18   ar
    17    18    19   ar
    18    19    20   ar
    19    20    21   ar
    20    21    22    1
    21    22    23    1
    22    22    24    1
    23    22    25    1
    24    10     1    1
    25    21    16   ar
    26     9     4   ar
    27    13    14    1
@<TRIPOS>MOLECULE
*****
 25 27 0 0 0
SMALL
GASTEIGER

@<TRIPOS>ATOM
      1 C          -6.7169  -16.5213   23.2132 C.3     1  UNL1        0.1753
      2 O          -5.2817  -16.8912   23.4440 O.3     1  UNL1       -0.3460
      3 C          -4.6922  -18.0808   22.7461 C.3     1  UNL1        0.1685
      4 C          -5.5380  -18.9007   21.8173 C.ar    1  UNL1        0.0067
      5 C          -4.9485  -20.0903   21.1193 C.ar    1  UNL1       -0.0021
      6 C          -5.7942  -20.9101   20.1906 C.ar    1  UNL1       -0.0003
      7 C          -7.2294  -20.5402   19.9597 C.ar    1  UNL1       -0.0002
      8 C          -7.8189  -19.3506   20.6577 C.ar    1  UNL1       -0.0010
      9 C          -6.9732  -18.5308   21.5864 C.ar    1  UNL1        0.0181
     10 C          -7.5627  -17.3411   22.2844 C.3     1  UNL1        0.2161
     11 C          -7.3064  -15.3315   23.9112 C.3     1  UNL1        0.1027
     12 C          -6.0727  -15.1241   26.1881 C.3     1  UNL1        0.0859
     13 N          -6.4713  -14.5336   24.8682 N.3     1  UNL1       -0.2942
     14 H          -5.6083  -14.2966   24.3789 H       1  UNL1        0.1234
     15 O          -8.9979  -16.9712   22.0536 O.3     1  UNL1       -0.4722
     16 C         -10.0773  -17.5994   22.8843 C.ar    1  UNL1        0.1428
     17 C          -9.7179  -18.3923   24.1060 C.ar    1  UNL1        0.0369
     18 C         -10.7972  -19.0205   24.9367 C.ar    1  UNL1        0.0031
     19 C         -12.2360  -18.8560   24.5459 C.ar    1  UNL1        0.0001
     20 C         -12.5955  -18.0632   23.3244 C.ar    1  UNL1        0.0069
     21 C         -11.5161  -17.4349   22.4936 C.ar    1  UNL1        0.1053
     22 C         -11.8756  -16.6421   21.2720 C.3     1  UNL1        0.4214
     23 F         -12.2350  -15.8492   20.0504 F       1  UNL1       -0.1657
     24 F         -11.5510  -17.8250   20.4088 F       1  UNL1       -0.1657
     25 F         -12.2001  -15.4592   22.1353 F       1  UNL1       -0.1657
@<TRIPOS>BOND
     1    12    13    1
     2    13    11    1
     3     1    11    1
     4     1     2    1
     5     2     3    1
     6     3     4    1
     7     4     5   ar
     8     5     6   ar
     9     6     7   ar
    10     7     8   ar
    11     8     9   ar
    12     9    10    1
    13    10    15    1
    14    15    16    1
    15    16    17   ar
    16    17    18   ar
    17    18    19   ar
    18    19    20   ar
    19    20    21   ar
    20    21    22    1
    21    22    23    1
    22    22    24    1
    23    22    25    1
    24    10     1    1
    25    21    16   ar
    26     9     4   ar
    27    13    14    1
@<TRIPOS>MOLECULE
*****
 25 27 0 0 0
SMALL
GASTEIGER

@<TRIPOS>ATOM
      1 C          -6.7198  -18.8673   21.3355 C.3     1  UNL1        0.1753
      2 O          -5.2863  -19.0121   21.7529 O.3     1  UNL1       -0.3460
      3 C          -4.7125  -18.0980   22.7946 C.3     1  UNL1        0.1685
      4 C          -5.5722  -17.0391   23.4190 C.ar    1  UNL1        0.0067
      5 C          -4.9984  -16.1250   24.4606 C.ar    1  UNL1       -0.0021
      6 C          -5.8581  -15.0662   25.0850 C.ar    1  UNL1       -0.0003
      7 C          -7.2916  -14.9215   24.6676 C.ar    1  UNL1       -0.0002
      8 C          -7.8654  -15.8356   23.6260 C.ar    1  UNL1       -0.0010
      9 C          -7.0057  -16.8944   23.0016 C.ar    1  UNL1        0.0181
     10 C          -7.5795  -17.8085   21.9599 C.3     1  UNL1        0.2161
     11 C          -7.2936  -19.7815   20.2938 C.3     1  UNL1        0.1027
     12 C          -9.5247  -19.9462   18.9729 C.3     1  UNL1        0.0859
     13 N          -8.2317  -19.2406   19.2558 N.3     1  UNL1       -0.2942
     14 H          -8.4707  -18.2909   19.5413 H       1  UNL1        0.1234
     15 O          -9.0130  -17.6638   21.5425 O.3     1  UNL1       -0.4722
     16 C         -10.1120  -18.0444   22.4898 C.ar    1  UNL1        0.1428
     17 C          -9.8143  -18.9191   23.6715 C.ar    1  UNL1        0.0369
     18 C         -10.9133  -19.2997   24.6187 C.ar    1  UNL1        0.0031
     19 C         -12.3100  -18.8056   24.3844 C.ar    1  UNL1        0.0001
     20 C         -12.6078  -17.9309   23.2028 C.ar    1  UNL1        0.0069
     21 C         -11.5087  -17.5503   22.2554 C.ar    1  UNL1        0.1053
     22 C         -11.8065  -16.6756   21.0738 C.3     1  UNL1        0.4214
     23 F         -12.1043  -15.8008   19.8922 F       1  UNL1       -0.1657
     24 F         -11.9259  -17.8916   20.2038 F       1  UNL1       -0.1657
     25 F         -11.6871  -15.4596   21.9439 F       1  UNL1       -0.1657
@<TRIPOS>BOND
     1    12    13    1
     2    13    11    1
     3     1    11    1
     4     1     2    1
     5     2     3    1
     6     3     4    1
     7     4     5   ar
     8     5     6   ar
     9     6     7   ar
    10     7     8   ar
    11     8     9   ar
    12     9    10    1
    13    10    15    1
    14    15    16    1
    15    16    17   ar
    16    17    18   ar
    17    18    19   ar
    18    19    20   ar
    19    20    21   ar
    20    21    22    1
    21    22    23    1
    22    22    24    1
    23    22    25    1
    24    10     1    1
    25    21    16   ar
    26     9     4   ar
    27    13    14    1
@<TRIPOS>MOLECULE
*****
 25 27 0 0 0
SMALL
GASTEIGER

@<TRIPOS>ATOM
      1 C          -6.5861  -16.7442   23.4889 C.3     1  UNL1        0.1753
      2 O          -5.0947  -16.6005   23.4176 O.3     1  UNL1       -0.3460
      3 C          -4.2876  -17.5577   22.5916 C.3     1  UNL1        0.1685
      4 C          -4.9719  -18.6587   21.8368 C.ar    1  UNL1        0.0067
      5 C          -4.1648  -19.6159   21.0108 C.ar    1  UNL1       -0.0021
      6 C          -4.8492  -20.7168   20.2561 C.ar    1  UNL1       -0.0003
      7 C          -6.3405  -20.8605   20.3274 C.ar    1  UNL1       -0.0002
      8 C          -7.1476  -19.9033   21.1534 C.ar    1  UNL1       -0.0010
      9 C          -6.4633  -18.8024   21.9081 C.ar    1  UNL1        0.0181
     10 C          -7.2704  -17.8451   22.7342 C.3     1  UNL1        0.2161
     11 C          -7.3931  -15.7870   24.3150 C.3     1  UNL1        0.1027
     12 C          -6.0666  -15.2105   26.4731 C.3     1  UNL1        0.0859
     13 N          -6.7017  -14.7791   25.1845 N.3     1  UNL1       -0.2942
     14 H          -5.9642  -14.3589   24.6189 H       1  UNL1        0.1234
     15 O          -8.7618  -17.9889   22.8055 O.3     1  UNL1       -0.4722
     16 C          -9.6296  -17.3199   21.7811 C.ar    1  UNL1        0.1428
     17 C          -9.3915  -15.8839   21.4189 C.ar    1  UNL1        0.0369
     18 C         -10.2592  -15.2150   20.3945 C.ar    1  UNL1        0.0031
     19 C         -11.3651  -15.9820   19.7322 C.ar    1  UNL1        0.0001
     20 C         -11.6032  -17.4180   20.0943 C.ar    1  UNL1        0.0069
     21 C         -10.7354  -18.0870   21.1188 C.ar    1  UNL1        0.1053
     22 C         -10.9736  -19.5230   21.4809 C.3     1  UNL1        0.4214
     23 F         -11.2117  -20.9591   21.8431 F       1  UNL1       -0.1657
     24 F         -10.2838  -19.9551   20.2210 F       1  UNL1       -0.1657
     25 F         -11.6633  -19.0909   22.7409 F       1  UNL1       -0.1657
@<TRIPOS>BOND
     1    12    13    1
     2    13    11    1
     3     1    11    1
     4     1     2    1
     5     2     3    1
     6     3     4    1
     7     4     5   ar
     8     5     6   ar
     9     6     7   ar
    10     7     8   ar
    11     8     9   ar
    12     9    10    1
    13    10    15    1
    14    15    16    1
    15    16    17   ar
    16    17    18   ar
    17    18    19   ar
    18    19    20   ar
    19    20    21   ar
    20    21    22    1
    21    22    23    1
    22    22    24    1
    23    22    25    1
    24    10     1    1
    25    21    16   ar
    26     9     4   ar
    27    13    14    1
@<TRIPOS>MOLECULE
*****
 25 27 0 0 0
SMALL
GASTEIGER

@<TRIPOS>ATOM
      1 C          -6.3818  -18.7126   22.0105 C.3     1  UNL1        0.1753
      2 O          -5.4078  -19.8260   21.7622 O.3     1  UNL1       -0.3460
      3 C          -5.6856  -20.8412   20.6936 C.3     1  UNL1        0.1685
      4 C          -6.9375  -20.7431   19.8731 C.ar    1  UNL1        0.0067
      5 C          -7.2153  -21.7584   18.8045 C.ar    1  UNL1       -0.0021
      6 C          -8.4672  -21.6603   17.9841 C.ar    1  UNL1       -0.0003
      7 C          -9.4413  -20.5469   18.2323 C.ar    1  UNL1       -0.0002
      8 C          -9.1634  -19.5316   19.3009 C.ar    1  UNL1       -0.0010
      9 C          -7.9116  -19.6298   20.1213 C.ar    1  UNL1        0.0181
     10 C          -7.6337  -18.6145   21.1900 C.3     1  UNL1        0.2161
     11 C          -6.1039  -17.6973   23.0791 C.3     1  UNL1        0.1027
     12 C          -6.2496  -15.2558   23.9553 C.3     1  UNL1        0.0859
     13 N          -6.5507  -16.2768   22.8985 N.3     1  UNL1       -0.2942
     14 H          -6.1239  -15.9414   22.0350 H       1  UNL1        0.1234
     15 O          -8.6077  -17.5011   21.4382 O.3     1  UNL1       -0.4722
     16 C          -9.8768  -17.7689   22.1917 C.ar    1  UNL1        0.1428
     17 C          -9.8392  -18.5545   23.4690 C.ar    1  UNL1        0.0369
     18 C         -11.1083  -18.8223   24.2224 C.ar    1  UNL1        0.0031
     19 C         -12.4150  -18.3045   23.6986 C.ar    1  UNL1        0.0001
     20 C         -12.4526  -17.5189   22.4214 C.ar    1  UNL1        0.0069
     21 C         -11.1835  -17.2510   21.6679 C.ar    1  UNL1        0.1053
     22 C         -11.2211  -16.4654   20.3907 C.3     1  UNL1        0.4214
     23 F         -11.2588  -15.6797   19.1134 F       1  UNL1       -0.1657
     24 F         -11.7493  -17.6681   19.6664 F       1  UNL1       -0.1657
     25 F         -10.6930  -15.2627   21.1149 F       1  UNL1       -0.1657
@<TRIPOS>BOND
     1    12    13    1
     2    13    11    1
     3     1    11    1
     4     1     2    1
     5     2     3    1
     6     3     4    1
     7     4     5   ar
     8     5     6   ar
     9     6     7   ar
    10     7     8   ar
    11     8     9   ar
    12     9    10    1
    13    10    15    1
    14    15    16    1
    15    16    17   ar
    16    17    18   ar
    17    18    19   ar
    18    19    20   ar
    19    20    21   ar
    20    21    22    1
    21    22    23    1
    22    22    24    1
    23    22    25    1
    24    10     1    1
    25    21    16   ar
    26     9     4   ar
    27    13    14    1
@<TRIPOS>MOLECULE
*****
 25 27 0 0 0
SMALL
GASTEIGER

@<TRIPOS>ATOM
      1 C          -7.5305  -16.5382   22.8500 C.3     1  UNL1        0.1753
      2 O          -6.1878  -16.5914   23.5166 O.3     1  UNL1       -0.3460
      3 C          -5.2069  -17.6628   23.1428 C.3     1  UNL1        0.1685
      4 C          -5.5686  -18.6811   22.1024 C.ar    1  UNL1        0.0067
      5 C          -4.5876  -19.7525   21.7286 C.ar    1  UNL1       -0.0021
      6 C          -4.9493  -20.7706   20.6883 C.ar    1  UNL1       -0.0003
      7 C          -6.2920  -20.7174   20.0217 C.ar    1  UNL1       -0.0002
      8 C          -7.2730  -19.6460   20.3954 C.ar    1  UNL1       -0.0010
      9 C          -6.9113  -18.6278   21.4358 C.ar    1  UNL1        0.0181
     10 C          -7.8922  -17.5564   21.8096 C.3     1  UNL1        0.2161
     11 C          -8.5115  -15.4667   23.2238 C.3     1  UNL1        0.1027
     12 C          -8.4257  -15.5008   25.8202 C.3     1  UNL1        0.0859
     13 N          -9.2171  -15.5241   24.5462 N.3     1  UNL1       -0.2942
     14 H          -9.8493  -14.7242   24.5776 H       1  UNL1        0.1234
     15 O          -9.2349  -17.5031   21.1430 O.3     1  UNL1       -0.4722
     16 C         -10.4844  -17.4927   21.9729 C.ar    1  UNL1        0.1428
     17 C         -11.5087  -16.4152   21.7728 C.ar    1  UNL1        0.0369
     18 C         -12.7581  -16.4047   22.6027 C.ar    1  UNL1        0.0031
     19 C         -12.9834  -17.4717   23.6326 C.ar    1  UNL1        0.0001
     20 C         -11.9592  -18.5492   23.8327 C.ar    1  UNL1        0.0069
     21 C         -10.7096  -18.5597   23.0028 C.ar    1  UNL1        0.1053
     22 C          -9.6855  -19.6371   23.2029 C.3     1  UNL1        0.4214
     23 F          -8.6612  -20.7146   23.4030 F       1  UNL1       -0.1657
     24 F          -9.1944  -18.9410   24.4376 F       1  UNL1       -0.1657
     25 F         -10.1765  -20.3332   21.9683 F       1  UNL1       -0.1657
@<TRIPOS>BOND
     1    12    13    1
     2    13    11    1
     3     1    11    1
     4     1     2    1
     5     2     3    1
     6     3     4    1
     7     4     5   ar
     8     5     6   ar
     9     6     7   ar
    10     7     8   ar
    11     8     9   ar
    12     9    10    1
    13    10    15    1
    14    15    16    1
    15    16    17   ar
    16    17    18   ar
    17    18    19   ar
    18    19    20   ar
    19    20    21   ar
    20    21    22    1
    21    22    23    1
    22    22    24    1
    23    22    25    1
    24    10     1    1
    25    21    16   ar
    26     9     4   ar
    27    13    14    1
@<TRIPOS>MOLECULE
*****
 25 27 0 0 0
SMALL
GASTEIGER

@<TRIPOS>ATOM
      1 C          -7.4766  -15.9608   24.3347 C.3     1  UNL1        0.1753
      2 O          -5.9961  -15.7333   24.2553 O.3     1  UNL1       -0.3460
      3 C          -5.1321  -16.6821   23.4786 C.3     1  UNL1        0.1685
      4 C          -5.7486  -17.8584   22.7813 C.ar    1  UNL1        0.0067
      5 C          -4.8846  -18.8072   22.0046 C.ar    1  UNL1       -0.0021
      6 C          -5.5011  -19.9834   21.3073 C.ar    1  UNL1       -0.0003
      7 C          -6.9817  -20.2109   21.3867 C.ar    1  UNL1       -0.0002
      8 C          -7.8457  -19.2622   22.1634 C.ar    1  UNL1       -0.0010
      9 C          -7.2291  -18.0859   22.8607 C.ar    1  UNL1        0.0181
     10 C          -8.0932  -17.1371   23.6374 C.3     1  UNL1        0.2161
     11 C          -8.3406  -15.0119   25.1114 C.3     1  UNL1        0.1027
     12 C          -8.1393  -16.3652   27.3200 C.3     1  UNL1        0.0859
     13 N          -8.3480  -15.0602   26.6106 N.3     1  UNL1       -0.2942
     14 H          -7.6111  -14.4308   26.9291 H       1  UNL1        0.1234
     15 O          -9.5737  -17.3645   23.7168 O.3     1  UNL1       -0.4722
     16 C         -10.4525  -16.9946   22.5589 C.ar    1  UNL1        0.1428
     17 C          -9.8975  -16.1845   21.4249 C.ar    1  UNL1        0.0369
     18 C         -10.7763  -15.8146   20.2670 C.ar    1  UNL1        0.0031
     19 C         -12.2101  -16.2547   20.2430 C.ar    1  UNL1        0.0001
     20 C         -12.7651  -17.0647   21.3769 C.ar    1  UNL1        0.0069
     21 C         -11.8862  -17.4347   22.5349 C.ar    1  UNL1        0.1053
     22 C         -12.4412  -18.2448   23.6687 C.3     1  UNL1        0.4214
     23 F         -12.9962  -19.0549   24.8027 F       1  UNL1       -0.1657
     24 F         -13.4639  -17.1790   23.9296 F       1  UNL1       -0.1657
     25 F         -11.4185  -19.3106   23.4079 F       1  UNL1       -0.1657
@<TRIPOS>BOND
     1    12    13    1
     2    13    11    1
     3     1    11    1
     4     1     2    1
     5     2     3    1
     6     3     4    1
     7     4     5   ar
     8     5     6   ar
     9     6     7   ar
    10     7     8   ar
    11     8     9   ar
    12     9    10    1
    13    10    15    1
    14    15    16    1
    15    16    17   ar
    16    17    18   ar
    17    18    19   ar
    18    19    20   ar
    19    20    21   ar
    20    21    22    1
    21    22    23    1
    22    22    24    1
    23    22    25    1
    24    10     1    1
    25    21    16   ar
    26     9     4   ar
    27    13    14    1
@<TRIPOS>MOLECULE
*****
 25 27 0 0 0
SMALL
GASTEIGER

@<TRIPOS>ATOM
      1 C          -5.3366  -18.2417   21.7682 C.3     1  UNL1        0.1753
      2 O          -4.0664  -17.9957   22.5273 O.3     1  UNL1       -0.3460
      3 C          -4.0779  -17.1196   23.7447 C.3     1  UNL1        0.1685
      4 C          -5.3596  -16.4893   24.2031 C.ar    1  UNL1        0.0067
      5 C          -5.3711  -15.6131   25.4205 C.ar    1  UNL1       -0.0021
      6 C          -6.6528  -14.9829   25.8789 C.ar    1  UNL1       -0.0003
      7 C          -7.9230  -15.2288   25.1198 C.ar    1  UNL1       -0.0002
      8 C          -7.9115  -16.1050   23.9024 C.ar    1  UNL1       -0.0010
      9 C          -6.6298  -16.7352   23.4441 C.ar    1  UNL1        0.0181
     10 C          -6.6183  -17.6115   22.2266 C.3     1  UNL1        0.2161
     11 C          -5.3251  -19.1179   20.5508 C.3     1  UNL1        0.1027
     12 C          -3.0983  -18.7651   19.2597 C.3     1  UNL1        0.0859
     13 N          -4.5947  -18.6777   19.3168 N.3     1  UNL1       -0.2942
     14 H          -4.9522  -19.2419   18.5460 H       1  UNL1        0.1234
     15 O          -7.8884  -17.8574   21.4675 O.3     1  UNL1       -0.4722
     16 C          -9.0252  -18.5840   22.1230 C.ar    1  UNL1        0.1428
     17 C          -8.7466  -19.7070   23.0777 C.ar    1  UNL1        0.0369
     18 C          -9.8833  -20.4336   23.7332 C.ar    1  UNL1        0.0031
     19 C         -11.2988  -20.0372   23.4341 C.ar    1  UNL1        0.0001
     20 C         -11.5774  -18.9143   22.4795 C.ar    1  UNL1        0.0069
     21 C         -10.4406  -18.1877   21.8239 C.ar    1  UNL1        0.1053
     22 C         -10.7193  -17.0648   20.8693 C.3     1  UNL1        0.4214
     23 F         -10.9980  -15.9418   19.9146 F       1  UNL1       -0.1657
     24 F         -10.6726  -16.0870   22.0058 F       1  UNL1       -0.1657
     25 F         -10.7660  -18.0425   19.7328 F       1  UNL1       -0.1657
@<TRIPOS>BOND
     1    12    13    1
     2    13    11    1
     3     1    11    1
     4     1     2    1
     5     2     3    1
     6     3     4    1
     7     4     5   ar
     8     5     6   ar
     9     6     7   ar
    10     7     8   ar
    11     8     9   ar
    12     9    10    1
    13    10    15    1
    14    15    16    1
    15    16    17   ar
    16    17    18   ar
    17    18    19   ar
    18    19    20   ar
    19    20    21   ar
    20    21    22    1
    21    22    23    1
    22    22    24    1
    23    22    25    1
    24    10     1    1
    25    21    16   ar
    26     9     4   ar
    27    13    14    1
@<TRIPOS>MOLECULE
*****
 25 27 0 0 0
SMALL
GASTEIGER

@<TRIPOS>ATOM
      1 C          -6.7910  -18.8787   21.2867 C.3     1  UNL1        0.1753
      2 O          -5.4525  -19.0311   21.9464 O.3     1  UNL1       -0.3460
      3 C          -5.0481  -18.0960   23.0473 C.3     1  UNL1        0.1685
      4 C          -5.9823  -17.0084   23.4885 C.ar    1  UNL1        0.0067
      5 C          -5.5779  -16.0732   24.5894 C.ar    1  UNL1       -0.0021
      6 C          -6.5120  -14.9857   25.0305 C.ar    1  UNL1       -0.0003
      7 C          -7.8505  -14.8333   24.3708 C.ar    1  UNL1       -0.0002
      8 C          -8.2549  -15.7684   23.2700 C.ar    1  UNL1       -0.0010
      9 C          -7.3208  -16.8560   22.8288 C.ar    1  UNL1        0.0181
     10 C          -7.7251  -17.7912   21.7279 C.3     1  UNL1        0.2161
     11 C          -7.1954  -19.8139   20.1858 C.3     1  UNL1        0.1027
     12 C          -9.1380  -20.3276   18.5390 C.3     1  UNL1        0.0859
     13 N          -8.1582  -19.3577   19.1300 N.3     1  UNL1       -0.2942
     14 H          -8.7046  -18.5990   19.5378 H       1  UNL1        0.1234
     15 O          -9.0636  -17.6388   21.0682 O.3     1  UNL1       -0.4722
     16 C         -10.3058  -17.5483   21.9041 C.ar    1  UNL1        0.1428
     17 C         -11.2795  -16.4291   21.6818 C.ar    1  UNL1        0.0369
     18 C         -12.5217  -16.3386   22.5176 C.ar    1  UNL1        0.0031
     19 C         -12.7902  -17.3672   23.5759 C.ar    1  UNL1        0.0001
     20 C         -11.8166  -18.4864   23.7982 C.ar    1  UNL1        0.0069
     21 C         -10.5743  -18.5769   22.9623 C.ar    1  UNL1        0.1053
     22 C          -9.6007  -19.6960   23.1846 C.3     1  UNL1        0.4214
     23 F          -8.6269  -20.8152   23.4070 F       1  UNL1       -0.1657
     24 F         -10.0492  -20.3402   21.9065 F       1  UNL1       -0.1657
     25 F          -9.1521  -19.0519   24.4628 F       1  UNL1       -0.1657
@<TRIPOS>BOND
     1    12    13    1
     2    13    11    1
     3     1    11    1
     4     1     2    1
     5     2     3    1
     6     3     4    1
     7     4     5   ar
     8     5     6   ar
     9     6     7   ar
    10     7     8   ar
    11     8     9   ar
    12     9    10    1
    13    10    15    1
    14    15    16    1
    15    16    17   ar
    16    17    18   ar
    17    18    19   ar
    18    19    20   ar
    19    20    21   ar
    20    21    22    1
    21    22    23    1
    22    22    24    1
    23    22    25    1
    24    10     1    1
    25    21    16   ar
    26     9     4   ar
    27    13    14    1
