@<TRIPOS>MOLECULE
*****
 27 29 0 0 0
SMALL
GASTEIGER

@<TRIPOS>ATOM
      1 C          -6.9067  -18.7297   20.9219 C.2     1  UNL1        0.2420
      2 O          -8.3252  -18.9119   20.4696 O.2     1  UNL1       -0.2734
      3 N          -6.6123  -17.9624   22.1768 N.am    1  UNL1       -0.2760
      4 C          -5.1938  -17.7802   22.6291 C.3     1  UNL1        0.0983
      5 C          -4.8993  -17.0129   23.8839 C.3     1  UNL1        0.0477
      6 C          -6.0235  -16.4278   24.6864 C.ar    1  UNL1       -0.0206
      7 C          -5.7291  -15.6605   25.9412 C.ar    1  UNL1        0.0252
      8 C          -6.8532  -15.0754   26.7437 C.ar    1  UNL1        0.1398
      9 F          -6.5588  -14.3081   27.9986 F       1  UNL1       -0.2042
     10 C          -8.2717  -15.2576   26.2914 C.ar    1  UNL1        0.0293
     11 C          -8.5661  -16.0249   25.0366 C.ar    1  UNL1       -0.0007
     12 C          -7.4420  -16.6100   24.2341 C.ar    1  UNL1       -0.0080
     13 C          -7.7364  -17.3773   22.9792 C.3     1  UNL1        0.0975
     14 C          -9.1549  -17.5595   22.5269 C.3     1  UNL1        0.0224
     15 C          -9.8026  -16.5254   21.6545 C.3     1  UNL1        0.0020
     16 C         -11.2212  -16.7076   21.2021 C.3     1  UNL1        0.0001
     17 C         -11.9920  -17.9239   21.6223 C.3     1  UNL1        0.0000
     18 C         -11.3443  -18.9580   22.4948 C.3     1  UNL1        0.0001
     19 C          -9.9257  -18.7758   22.9471 C.3     1  UNL1        0.0020
     20 C          -5.7826  -19.3148   20.1194 C.3     1  UNL1        0.1552
     21 N          -4.7695  -18.4128   19.4791 N.3     1  UNL1       -0.2878
     22 H          -5.1089  -18.2095   18.5389 H       1  UNL1        0.1238
     23 C          -3.3462  -18.8647   19.3374 C.3     1  UNL1        0.0985
     24 C          -2.0305  -17.0519   20.6536 C.3     1  UNL1        0.0332
     25 C          -2.2310  -17.8641   19.4086 C.3     1  UNL1        0.1263
     26 O          -1.3164  -17.6756   18.2347 O.3     1  UNL1       -0.3830
     27 H          -1.5824  -18.2732   17.5184 H       1  UNL1        0.2104
@<TRIPOS>BOND
     1    25    24    1
     2    25    26    1
     3    25    23    1
     4    23    21    1
     5    21    20    1
     6    20     1    1
     7     1     2    2
     8     1     3   am
     9     3     4    1
    10     4     5    1
    11     5     6    1
    12     6     7   ar
    13     7     8   ar
    14     8     9    1
    15     8    10   ar
    16    10    11   ar
    17    11    12   ar
    18    12    13    1
    19    13    14    1
    20    14    15    1
    21    15    16    1
    22    16    17    1
    23    17    18    1
    24    18    19    1
    25    13     3    1
    26    19    14    1
    27    12     6   ar
    28    26    27    1
    29    21    22    1
@<TRIPOS>MOLECULE
*****
 27 29 0 0 0
SMALL
GASTEIGER

@<TRIPOS>ATOM
      1 C         -10.8161  -17.1507   21.8285 C.2     1  UNL1        0.2420
      2 O         -10.6738  -16.2625   23.0289 O.2     1  UNL1       -0.2734
      3 N          -9.6449  -17.9552   21.3477 N.am    1  UNL1       -0.2760
      4 C          -9.7872  -18.8434   20.1473 C.3     1  UNL1        0.0983
      5 C          -8.6161  -19.6479   19.6665 C.3     1  UNL1        0.0477
      6 C          -7.3026  -19.5642   20.3861 C.ar    1  UNL1       -0.0206
      7 C          -6.1314  -20.3687   19.9053 C.ar    1  UNL1        0.0252
      8 C          -4.8180  -20.2850   20.6249 C.ar    1  UNL1        0.1398
      9 F          -3.6468  -21.0895   20.1440 F       1  UNL1       -0.2042
     10 C          -4.6757  -19.3969   21.8252 C.ar    1  UNL1        0.0293
     11 C          -5.8468  -18.5924   22.3060 C.ar    1  UNL1       -0.0007
     12 C          -7.1602  -18.6761   21.5865 C.ar    1  UNL1       -0.0080
     13 C          -8.3314  -17.8715   22.0673 C.3     1  UNL1        0.0975
     14 C          -8.1891  -16.9834   23.2677 C.3     1  UNL1        0.0224
     15 C          -7.5508  -15.6329   23.1300 C.3     1  UNL1        0.0020
     16 C          -7.4085  -14.7447   24.3303 C.3     1  UNL1        0.0001
     17 C          -7.9045  -15.2070   25.6684 C.3     1  UNL1        0.0000
     18 C          -8.5428  -16.5574   25.8060 C.3     1  UNL1        0.0001
     19 C          -8.6851  -17.4456   24.6057 C.3     1  UNL1        0.0020
     20 C         -12.1295  -17.2344   21.1090 C.3     1  UNL1        0.1552
     21 N         -13.3215  -17.8372   21.7915 N.3     1  UNL1       -0.2878
     22 H         -14.1248  -17.6661   21.1867 H       1  UNL1        0.1238
     23 C         -13.7094  -17.3798   23.1664 C.3     1  UNL1        0.0985
     24 C         -12.1747  -18.9080   24.6013 C.3     1  UNL1        0.0332
     25 C         -13.5172  -18.2913   24.3421 C.3     1  UNL1        0.1263
     26 O         -14.6675  -18.5860   25.2585 O.3     1  UNL1       -0.3830
     27 H         -15.4557  -18.1116   24.9509 H       1  UNL1        0.2104
@<TRIPOS>BOND
     1    25    24    1
     2    25    26    1
     3    25    23    1
     4    23    21    1
     5    21    20    1
     6    20     1    1
     7     1     2    2
     8     1     3   am
     9     3     4    1
    10     4     5    1
    11     5     6    1
    12     6     7   ar
    13     7     8   ar
    14     8     9    1
    15     8    10   ar
    16    10    11   ar
    17    11    12   ar
    18    12    13    1
    19    13    14    1
    20    14    15    1
    21    15    16    1
    22    16    17    1
    23    17    18    1
    24    18    19    1
    25    13     3    1
    26    19    14    1
    27    12     6   ar
    28    26    27    1
    29    21    22    1
@<TRIPOS>MOLECULE
*****
 27 29 0 0 0
SMALL
GASTEIGER

@<TRIPOS>ATOM
      1 C         -13.7169   -7.4858   17.9098 C.2     1  UNL1        0.2420
      2 O         -12.2632   -7.4929   17.5402 O.2     1  UNL1       -0.2734
      3 N         -14.3814   -6.2036   18.3155 N.am    1  UNL1       -0.2760
      4 C         -15.8352   -6.1966   18.6850 C.3     1  UNL1        0.0983
      5 C         -16.4997   -4.9145   19.0907 C.3     1  UNL1        0.0477
      6 C         -15.7105   -3.6394   19.1268 C.ar    1  UNL1       -0.0206
      7 C         -16.3750   -2.3573   19.5324 C.ar    1  UNL1        0.0252
      8 C         -15.5858   -1.0822   19.5684 C.ar    1  UNL1        0.1398
      9 F         -16.2503    0.2000   19.9741 F       1  UNL1       -0.2042
     10 C         -14.1321   -1.0893   19.1988 C.ar    1  UNL1        0.0293
     11 C         -13.4676   -2.3714   18.7932 C.ar    1  UNL1       -0.0007
     12 C         -14.2568   -3.6464   18.7572 C.ar    1  UNL1       -0.0080
     13 C         -13.5922   -4.9286   18.3515 C.3     1  UNL1        0.0975
     14 C         -12.1385   -4.9356   17.9819 C.3     1  UNL1        0.0224
     15 C         -11.0958   -5.1276   19.0431 C.3     1  UNL1        0.0020
     16 C          -9.6420   -5.1346   18.6735 C.3     1  UNL1        0.0001
     17 C          -9.2310   -4.9497   17.2427 C.3     1  UNL1        0.0000
     18 C         -10.2737   -4.7578   16.1817 C.3     1  UNL1        0.0001
     19 C         -11.7275   -4.7508   16.5513 C.3     1  UNL1        0.0020
     20 C         -14.5061   -8.7609   17.8738 C.3     1  UNL1        0.1552
     21 N         -14.8515   -9.4655   19.1521 N.3     1  UNL1       -0.2878
     22 H         -14.4479  -10.4003   19.0914 H       1  UNL1        0.1238
     23 C         -16.2878   -9.6389   19.5486 C.3     1  UNL1        0.0985
     24 C         -18.2441  -10.2502   17.9521 C.3     1  UNL1        0.0332
     25 C         -17.1341  -10.6734   18.8679 C.3     1  UNL1        0.1263
     26 O         -16.8704  -12.1312   19.1029 O.3     1  UNL1       -0.3830
     27 H         -16.1249  -12.2303   19.7155 H       1  UNL1        0.2104
@<TRIPOS>BOND
     1    25    24    1
     2    25    26    1
     3    25    23    1
     4    23    21    1
     5    21    20    1
     6    20     1    1
     7     1     2    2
     8     1     3   am
     9     3     4    1
    10     4     5    1
    11     5     6    1
    12     6     7   ar
    13     7     8   ar
    14     8     9    1
    15     8    10   ar
    16    10    11   ar
    17    11    12   ar
    18    12    13    1
    19    13    14    1
    20    14    15    1
    21    15    16    1
    22    16    17    1
    23    17    18    1
    24    18    19    1
    25    13     3    1
    26    19    14    1
    27    12     6   ar
    28    26    27    1
    29    21    22    1
@<TRIPOS>MOLECULE
*****
 27 29 0 0 0
SMALL
GASTEIGER

@<TRIPOS>ATOM
      1 C          -4.6468  -17.8322   23.1629 C.2     1  UNL1        0.2420
      2 O          -5.1234  -16.8995   24.2366 O.2     1  UNL1       -0.2734
      3 N          -5.6146  -18.3647   22.1481 N.am    1  UNL1       -0.2760
      4 C          -5.1380  -19.2975   21.0744 C.3     1  UNL1        0.0983
      5 C          -6.1058  -19.8300   20.0596 C.3     1  UNL1        0.0477
      6 C          -7.5503  -19.4298   20.1186 C.ar    1  UNL1       -0.0206
      7 C          -8.5181  -19.9623   19.1038 C.ar    1  UNL1        0.0252
      8 C          -9.9625  -19.5621   19.1628 C.ar    1  UNL1        0.1398
      9 F         -10.9304  -20.0946   18.1480 F       1  UNL1       -0.2042
     10 C         -10.4391  -18.6294   20.2365 C.ar    1  UNL1        0.0293
     11 C          -9.4713  -18.0968   21.2512 C.ar    1  UNL1       -0.0007
     12 C          -8.0269  -18.4971   21.1923 C.ar    1  UNL1       -0.0080
     13 C          -7.0590  -17.9645   22.2070 C.3     1  UNL1        0.0975
     14 C          -7.5356  -17.0318   23.2807 C.3     1  UNL1        0.0224
     15 C          -8.2727  -17.5717   24.4704 C.3     1  UNL1        0.0020
     16 C          -8.7493  -16.6390   25.5441 C.3     1  UNL1        0.0001
     17 C          -8.4888  -15.1663   25.4281 C.3     1  UNL1        0.0000
     18 C          -7.7518  -14.6264   24.2385 C.3     1  UNL1        0.0001
     19 C          -7.2752  -15.5591   23.1648 C.3     1  UNL1        0.0020
     20 C          -3.2024  -18.2324   23.1039 C.3     1  UNL1        0.1552
     21 N          -2.1458  -17.1949   22.8650 N.3     1  UNL1       -0.2878
     22 H          -2.2256  -16.5141   23.6203 H       1  UNL1        0.1238
     23 C          -2.1338  -16.4183   21.5816 C.3     1  UNL1        0.0985
     24 C          -0.5414  -17.7141   19.9894 C.3     1  UNL1        0.0332
     25 C          -1.8892  -17.1236   20.2806 C.3     1  UNL1        0.1263
     26 O          -2.9923  -17.2383   19.2707 O.3     1  UNL1       -0.3830
     27 H          -3.7907  -16.8069   19.6135 H       1  UNL1        0.2104
@<TRIPOS>BOND
     1    25    24    1
     2    25    26    1
     3    25    23    1
     4    23    21    1
     5    21    20    1
     6    20     1    1
     7     1     2    2
     8     1     3   am
     9     3     4    1
    10     4     5    1
    11     5     6    1
    12     6     7   ar
    13     7     8   ar
    14     8     9    1
    15     8    10   ar
    16    10    11   ar
    17    11    12   ar
    18    12    13    1
    19    13    14    1
    20    14    15    1
    21    15    16    1
    22    16    17    1
    23    17    18    1
    24    18    19    1
    25    13     3    1
    26    19    14    1
    27    12     6   ar
    28    26    27    1
    29    21    22    1
@<TRIPOS>MOLECULE
*****
 27 29 0 0 0
SMALL
GASTEIGER

@<TRIPOS>ATOM
      1 C         -10.3023  -18.2212   22.0285 C.2     1  UNL1        0.2420
      2 O         -10.5096  -17.2949   23.1900 O.2     1  UNL1       -0.2734
      3 N          -8.9170  -18.6627   21.6593 N.am    1  UNL1       -0.2760
      4 C          -8.7097  -19.5889   20.4978 C.3     1  UNL1        0.0983
      5 C          -7.3246  -20.0304   20.1285 C.3     1  UNL1        0.0477
      6 C          -6.1467  -19.5457   20.9207 C.ar    1  UNL1       -0.0206
      7 C          -4.7615  -19.9872   20.5515 C.ar    1  UNL1        0.0252
      8 C          -3.5837  -19.5024   21.3437 C.ar    1  UNL1        0.1398
      9 F          -2.1984  -19.9439   20.9744 F       1  UNL1       -0.2042
     10 C          -3.7910  -18.5762   22.5052 C.ar    1  UNL1        0.0293
     11 C          -5.1761  -18.1347   22.8745 C.ar    1  UNL1       -0.0007
     12 C          -6.3540  -18.6194   22.0822 C.ar    1  UNL1       -0.0080
     13 C          -7.7392  -18.1779   22.4515 C.3     1  UNL1        0.0975
     14 C          -7.9465  -17.2517   23.6130 C.3     1  UNL1        0.0224
     15 C          -7.6212  -15.7936   23.4769 C.3     1  UNL1        0.0020
     16 C          -7.8285  -14.8674   24.6384 C.3     1  UNL1        0.0001
     17 C          -8.3611  -15.3991   25.9360 C.3     1  UNL1        0.0000
     18 C          -8.6864  -16.8571   26.0720 C.3     1  UNL1        0.0001
     19 C          -8.4791  -17.7833   24.9105 C.3     1  UNL1        0.0020
     20 C         -11.4801  -18.7059   21.2363 C.3     1  UNL1        0.1552
     21 N         -12.5383  -17.7378   20.7973 N.3     1  UNL1       -0.2878
     22 H         -12.6996  -17.9080   19.8046 H       1  UNL1        0.1238
     23 C         -12.3164  -16.2625   20.9532 C.3     1  UNL1        0.0985
     24 C         -11.3266  -15.3161   18.7455 C.3     1  UNL1        0.0332
     25 C         -11.1974  -15.5901   20.2145 C.3     1  UNL1        0.1263
     26 O          -9.9492  -15.1918   20.9449 O.3     1  UNL1       -0.3830
     27 H         -10.0286  -15.4390   21.8795 H       1  UNL1        0.2104
@<TRIPOS>BOND
     1    25    24    1
     2    25    26    1
     3    25    23    1
     4    23    21    1
     5    21    20    1
     6    20     1    1
     7     1     2    2
     8     1     3   am
     9     3     4    1
    10     4     5    1
    11     5     6    1
    12     6     7   ar
    13     7     8   ar
    14     8     9    1
    15     8    10   ar
    16    10    11   ar
    17    11    12   ar
    18    12    13    1
    19    13    14    1
    20    14    15    1
    21    15    16    1
    22    16    17    1
    23    17    18    1
    24    18    19    1
    25    13     3    1
    26    19    14    1
    27    12     6   ar
    28    26    27    1
    29    21    22    1
@<TRIPOS>MOLECULE
*****
 27 29 0 0 0
SMALL
GASTEIGER

@<TRIPOS>ATOM
      1 C          -5.9849  -18.3971   22.0299 C.2     1  UNL1        0.2420
      2 O          -5.4886  -17.5457   23.1607 O.2     1  UNL1       -0.2734
      3 N          -7.4523  -18.4576   21.7246 N.am    1  UNL1       -0.2760
      4 C          -7.9486  -19.3090   20.5938 C.3     1  UNL1        0.0983
      5 C          -9.4159  -19.3695   20.2885 C.3     1  UNL1        0.0477
      6 C         -10.3871  -18.5787   21.1142 C.ar    1  UNL1       -0.0206
      7 C         -11.8544  -18.6393   20.8090 C.ar    1  UNL1        0.0252
      8 C         -12.8254  -17.8486   21.6346 C.ar    1  UNL1        0.1398
      9 F         -14.2929  -17.9091   21.3294 F       1  UNL1       -0.2042
     10 C         -12.3291  -16.9972   22.7655 C.ar    1  UNL1        0.0293
     11 C         -10.8618  -16.9366   23.0707 C.ar    1  UNL1       -0.0007
     12 C          -9.8908  -17.7274   22.2451 C.ar    1  UNL1       -0.0080
     13 C          -8.4233  -17.6668   22.5503 C.3     1  UNL1        0.0975
     14 C          -7.9270  -16.8155   23.6812 C.3     1  UNL1        0.0224
     15 C          -7.1255  -15.5804   23.3944 C.3     1  UNL1        0.0020
     16 C          -6.6292  -14.7290   24.5253 C.3     1  UNL1        0.0001
     17 C          -6.9344  -15.1128   25.9429 C.3     1  UNL1        0.0000
     18 C          -7.7359  -16.3478   26.2296 C.3     1  UNL1        0.0001
     19 C          -8.2322  -17.1992   25.0988 C.3     1  UNL1        0.0020
     20 C          -5.0139  -19.1878   21.2042 C.3     1  UNL1        0.1552
     21 N          -4.4410  -18.5974   19.9500 N.3     1  UNL1       -0.2878
     22 H          -5.0798  -18.8391   19.1924 H       1  UNL1        0.1238
     23 C          -3.0652  -18.9879   19.4975 C.3     1  UNL1        0.0985
     24 C          -1.7396  -17.0237   20.5624 C.3     1  UNL1        0.0332
     25 C          -1.9824  -17.9536   19.4108 C.3     1  UNL1        0.1263
     26 O          -1.1424  -17.8491   18.1725 O.3     1  UNL1       -0.3830
     27 H          -1.4280  -18.5180   17.5306 H       1  UNL1        0.2104
@<TRIPOS>BOND
     1    25    24    1
     2    25    26    1
     3    25    23    1
     4    23    21    1
     5    21    20    1
     6    20     1    1
     7     1     2    2
     8     1     3   am
     9     3     4    1
    10     4     5    1
    11     5     6    1
    12     6     7   ar
    13     7     8   ar
    14     8     9    1
    15     8    10   ar
    16    10    11   ar
    17    11    12   ar
    18    12    13    1
    19    13    14    1
    20    14    15    1
    21    15    16    1
    22    16    17    1
    23    17    18    1
    24    18    19    1
    25    13     3    1
    26    19    14    1
    27    12     6   ar
    28    26    27    1
    29    21    22    1
@<TRIPOS>MOLECULE
*****
 27 29 0 0 0
SMALL
GASTEIGER

@<TRIPOS>ATOM
      1 C          -7.6912  -18.2062   21.8536 C.2     1  UNL1        0.2420
      2 O          -9.1326  -18.5961   21.7117 O.2     1  UNL1       -0.2734
      3 N          -7.2495  -17.3803   23.0254 N.am    1  UNL1       -0.2760
      4 C          -5.8080  -16.9904   23.1673 C.3     1  UNL1        0.0983
      5 C          -5.3663  -16.1646   24.3389 C.3     1  UNL1        0.0477
      6 C          -6.3661  -15.7286   25.3688 C.ar    1  UNL1       -0.0206
      7 C          -5.9244  -14.9027   26.5404 C.ar    1  UNL1        0.0252
      8 C          -6.9241  -14.4668   27.5701 C.ar    1  UNL1        0.1398
      9 F          -6.4824  -13.6409   28.7419 F       1  UNL1       -0.2042
     10 C          -8.3656  -14.8567   27.4282 C.ar    1  UNL1        0.0293
     11 C          -8.8073  -15.6826   26.2566 C.ar    1  UNL1       -0.0007
     12 C          -7.8075  -16.1185   25.2268 C.ar    1  UNL1       -0.0080
     13 C          -8.2492  -16.9444   24.0551 C.3     1  UNL1        0.0975
     14 C          -9.6907  -17.3343   23.9132 C.3     1  UNL1        0.0224
     15 C         -10.6157  -16.4970   23.0804 C.3     1  UNL1        0.0020
     16 C         -12.0571  -16.8869   22.9385 C.3     1  UNL1        0.0001
     17 C         -12.5736  -18.1141   23.6293 C.3     1  UNL1        0.0000
     18 C         -11.6487  -18.9514   24.4620 C.3     1  UNL1        0.0001
     19 C         -10.2072  -18.5615   24.6040 C.3     1  UNL1        0.0020
     20 C          -6.6914  -18.6421   20.8239 C.3     1  UNL1        0.1552
     21 N          -7.1445  -18.9795   19.4344 N.3     1  UNL1       -0.2878
     22 H          -7.8732  -18.3085   19.1912 H       1  UNL1        0.1238
     23 C          -7.6940  -20.3428   19.1349 C.3     1  UNL1        0.0985
     24 C         -10.2196  -19.7532   18.9823 C.3     1  UNL1        0.0332
     25 C          -9.0215  -20.4828   18.4509 C.3     1  UNL1        0.1263
     26 O          -9.1511  -21.3522   17.2354 O.3     1  UNL1       -0.3830
     27 H          -8.2899  -21.7472   17.0272 H       1  UNL1        0.2104
@<TRIPOS>BOND
     1    25    24    1
     2    25    26    1
     3    25    23    1
     4    23    21    1
     5    21    20    1
     6    20     1    1
     7     1     2    2
     8     1     3   am
     9     3     4    1
    10     4     5    1
    11     5     6    1
    12     6     7   ar
    13     7     8   ar
    14     8     9    1
    15     8    10   ar
    16    10    11   ar
    17    11    12   ar
    18    12    13    1
    19    13    14    1
    20    14    15    1
    21    15    16    1
    22    16    17    1
    23    17    18    1
    24    18    19    1
    25    13     3    1
    26    19    14    1
    27    12     6   ar
    28    26    27    1
    29    21    22    1
@<TRIPOS>MOLECULE
*****
 27 29 0 0 0
SMALL
GASTEIGER

@<TRIPOS>ATOM
      1 C          -9.4517  -18.4917   20.6859 C.2     1  UNL1        0.2420
      2 O          -8.6439  -19.5455   19.9880 O.2     1  UNL1       -0.2734
      3 N          -8.8170  -17.6381   21.7435 N.am    1  UNL1       -0.2760
      4 C          -9.6247  -16.5843   22.4414 C.3     1  UNL1        0.0983
      5 C          -8.9901  -15.7307   23.4990 C.3     1  UNL1        0.0477
      6 C          -7.5476  -15.9308   23.8587 C.ar    1  UNL1       -0.0206
      7 C          -6.9130  -15.0771   24.9162 C.ar    1  UNL1        0.0252
      8 C          -5.4706  -15.2773   25.2759 C.ar    1  UNL1        0.1398
      9 F          -4.8359  -14.4236   26.3335 F       1  UNL1       -0.2042
     10 C          -4.6628  -16.3310   24.5780 C.ar    1  UNL1        0.0293
     11 C          -5.2975  -17.1847   23.5204 C.ar    1  UNL1       -0.0007
     12 C          -6.7399  -16.9845   23.1608 C.ar    1  UNL1       -0.0080
     13 C          -7.3746  -17.8382   22.1031 C.3     1  UNL1        0.0975
     14 C          -6.5668  -18.8920   21.4052 C.3     1  UNL1        0.0224
     15 C          -5.7103  -18.5245   20.2299 C.3     1  UNL1        0.0020
     16 C          -4.9025  -19.5783   19.5319 C.3     1  UNL1        0.0001
     17 C          -4.9513  -20.9995   20.0094 C.3     1  UNL1        0.0000
     18 C          -5.8078  -21.3669   21.1847 C.3     1  UNL1        0.0001
     19 C          -6.6155  -20.3131   21.8826 C.3     1  UNL1        0.0020
     20 C         -10.8941  -18.2916   20.3263 C.3     1  UNL1        0.1552
     21 N         -11.9716  -18.8206   21.2257 N.3     1  UNL1       -0.2878
     22 H         -12.6272  -19.3291   20.6323 H       1  UNL1        0.1238
     23 C         -12.7852  -17.8744   22.0582 C.3     1  UNL1        0.0985
     24 C         -11.7842  -18.6579   24.3240 C.3     1  UNL1        0.0332
     25 C         -12.9344  -18.1103   23.5320 C.3     1  UNL1        0.1263
     26 O         -14.2336  -17.7987   24.2137 O.3     1  UNL1       -0.3830
     27 H         -14.8660  -17.4557   23.5631 H       1  UNL1        0.2104
@<TRIPOS>BOND
     1    25    24    1
     2    25    26    1
     3    25    23    1
     4    23    21    1
     5    21    20    1
     6    20     1    1
     7     1     2    2
     8     1     3   am
     9     3     4    1
    10     4     5    1
    11     5     6    1
    12     6     7   ar
    13     7     8   ar
    14     8     9    1
    15     8    10   ar
    16    10    11   ar
    17    11    12   ar
    18    12    13    1
    19    13    14    1
    20    14    15    1
    21    15    16    1
    22    16    17    1
    23    17    18    1
    24    18    19    1
    25    13     3    1
    26    19    14    1
    27    12     6   ar
    28    26    27    1
    29    21    22    1
@<TRIPOS>MOLECULE
*****
 27 29 0 0 0
SMALL
GASTEIGER

@<TRIPOS>ATOM
      1 C         -13.4537   -7.5805   18.0204 C.2     1  UNL1        0.2420
      2 O         -14.2233   -8.8658   17.9433 O.2     1  UNL1       -0.2734
      3 N         -14.1486   -6.3132   18.4219 N.am    1  UNL1       -0.2760
      4 C         -13.3790   -5.0280   18.4990 C.3     1  UNL1        0.0983
      5 C         -14.0738   -3.7607   18.9005 C.3     1  UNL1        0.0477
      6 C         -15.5383   -3.7786   19.2248 C.ar    1  UNL1       -0.0206
      7 C         -16.2331   -2.5113   19.6263 C.ar    1  UNL1        0.0252
      8 C         -17.6975   -2.5293   19.9506 C.ar    1  UNL1        0.1398
      9 F         -18.3924   -1.2620   20.3521 F       1  UNL1       -0.2042
     10 C         -18.4670   -3.8145   19.8735 C.ar    1  UNL1        0.0293
     11 C         -17.7722   -5.0818   19.4720 C.ar    1  UNL1       -0.0007
     12 C         -16.3079   -5.0638   19.1477 C.ar    1  UNL1       -0.0080
     13 C         -15.6130   -6.3312   18.7462 C.3     1  UNL1        0.0975
     14 C         -16.3825   -7.6164   18.6691 C.3     1  UNL1        0.0224
     15 C         -17.0845   -7.9952   17.3986 C.3     1  UNL1        0.0020
     16 C         -17.8540   -9.2804   17.3215 C.3     1  UNL1        0.0001
     17 C         -17.9217  -10.1869   18.5148 C.3     1  UNL1        0.0000
     18 C         -17.2198   -9.8081   19.7851 C.3     1  UNL1        0.0001
     19 C         -16.4502   -8.5228   19.8623 C.3     1  UNL1        0.0020
     20 C         -11.9893   -7.5626   17.6961 C.3     1  UNL1        0.1552
     21 N         -10.9759   -7.6270   18.8000 N.3     1  UNL1       -0.2878
     22 H         -11.4189   -7.2324   19.6298 H       1  UNL1        0.1238
     23 C          -9.6534   -6.9362   18.6453 C.3     1  UNL1        0.0985
     24 C          -9.5913   -4.9205   17.0074 C.3     1  UNL1        0.0332
     25 C          -9.6036   -5.4558   18.4085 C.3     1  UNL1        0.1263
     26 O          -9.5662   -4.5109   19.5729 O.3     1  UNL1       -0.3830
     27 H          -9.5799   -5.0168   20.4004 H       1  UNL1        0.2104
@<TRIPOS>BOND
     1    25    24    1
     2    25    26    1
     3    25    23    1
     4    23    21    1
     5    21    20    1
     6    20     1    1
     7     1     2    2
     8     1     3   am
     9     3     4    1
    10     4     5    1
    11     5     6    1
    12     6     7   ar
    13     7     8   ar
    14     8     9    1
    15     8    10   ar
    16    10    11   ar
    17    11    12   ar
    18    12    13    1
    19    13    14    1
    20    14    15    1
    21    15    16    1
    22    16    17    1
    23    17    18    1
    24    18    19    1
    25    13     3    1
    26    19    14    1
    27    12     6   ar
    28    26    27    1
    29    21    22    1
