@<TRIPOS>MOLECULE
*****
 31 34 0 0 0
SMALL
GASTEIGER

@<TRIPOS>ATOM
      1 C         -13.9738   -4.9026   18.6889 C.2     1  UNL1        0.0049
      2 C         -15.0450   -5.9360   18.5021 C.2     1  UNL1        0.0131
      3 C         -14.6782   -7.3871   18.4034 C.3     1  UNL1        0.1542
      4 C         -16.1161   -6.9693   18.3154 C.3     1  UNL1        0.0614
      5 C         -17.1872   -8.0026   18.1287 C.3     1  UNL1        0.0725
      6 N         -16.8204   -9.4537   18.0299 N.3     1  UNL1       -0.2972
      7 C         -15.3825   -9.8715   18.1179 C.3     1  UNL1        0.0725
      8 C         -14.3114   -8.8382   18.3047 C.3     1  UNL1        0.0614
      9 O         -13.2402   -7.8048   18.4914 O.3     1  UNL1       -0.4785
     10 C         -12.1691   -6.7715   18.6781 C.ar    1  UNL1        0.1386
     11 C         -10.7311   -7.1893   18.7662 C.ar    1  UNL1        0.0369
     12 C          -9.6599   -6.1560   18.9529 C.ar    1  UNL1        0.0031
     13 C         -10.0267   -4.7049   19.0516 C.ar    1  UNL1        0.0002
     14 C         -11.4646   -4.2871   18.9636 C.ar    1  UNL1        0.0030
     15 C         -12.5359   -5.3204   18.7769 C.ar    1  UNL1        0.0339
     16 H         -17.1688   -9.7849   17.1303 H       1  UNL1        0.1233
     17 C         -15.0742   -0.5493   18.9850 C.ar    1  UNL1        0.0566
     18 C         -14.8003   -1.1641   17.6446 C.ar    1  UNL1        0.0047
     19 C         -14.4335   -2.6153   17.5458 C.ar    1  UNL1        0.0031
     20 C         -14.3406   -3.4515   18.7876 C.ar    1  UNL1        0.0336
     21 C         -14.6145   -2.8367   20.1281 C.ar    1  UNL1        0.1337
     22 O         -14.5216   -3.6730   21.3699 O.3     1  UNL1       -0.5055
     23 C         -14.9813   -1.3856   20.2269 C.ar    1  UNL1        0.0411
     24 H         -14.2924   -4.5794   21.3082 H       1  UNL1        0.2922
     25 N         -16.8839    1.3110   19.1040 N.am    1  UNL1       -0.2761
     26 C         -15.4409    0.9018   19.0838 C.2     1  UNL1        0.2491
     27 O         -14.3647    1.9438   19.1622 O.2     1  UNL1       -0.2699
     28 C         -17.3134    3.4302   20.5443 C.3     1  UNL1        0.0233
     29 C         -17.2507    2.7621   19.2027 C.3     1  UNL1        0.0938
     30 C         -17.9601    0.2690   19.0255 C.3     1  UNL1        0.0938
     31 C         -18.6105   -0.2334   20.2802 C.3     1  UNL1        0.0233
@<TRIPOS>BOND
     1    28    29    1
     2    29    25    1
     3    25    30    1
     4    30    31    1
     5    25    26   am
     6    26    27    2
     7    26    17    1
     8    17    18   ar
     9    18    19   ar
    10    19    20   ar
    11    20     1    1
    12     1     2    2
    13     2     3    1
    14     3     4    1
    15     4     5    1
    16     5     6    1
    17     6     7    1
    18     7     8    1
    19     3     9    1
    20     9    10    1
    21    10    11   ar
    22    11    12   ar
    23    12    13   ar
    24    13    14   ar
    25    14    15   ar
    26    20    21   ar
    27    21    22    1
    28    21    23   ar
    29    23    17   ar
    30    15     1    1
    31     8     3    1
    32    15    10   ar
    33     6    16    1
    34    22    24    1
@<TRIPOS>MOLECULE
*****
 31 34 0 0 0
SMALL
GASTEIGER

@<TRIPOS>ATOM
      1 C           6.7432   -3.7880   25.2651 C.2     1  UNL1        0.0049
      2 C           6.4248   -3.1655   26.5922 C.2     1  UNL1        0.0131
      3 C           6.7681   -3.8880   27.8611 C.3     1  UNL1        0.1542
      4 C           6.1064   -2.5431   27.9193 C.3     1  UNL1        0.0614
      5 C           5.7880   -1.9207   29.2464 C.3     1  UNL1        0.0725
      6 N           6.1313   -2.6432   30.5153 N.3     1  UNL1       -0.2972
      7 C           6.7930   -3.9880   30.4571 C.3     1  UNL1        0.0725
      8 C           7.1114   -4.6104   29.1301 C.3     1  UNL1        0.0614
      9 O           7.4298   -5.2329   27.8029 O.3     1  UNL1       -0.4785
     10 C           7.7482   -5.8553   26.4759 C.ar    1  UNL1        0.1386
     11 C           8.4099   -7.2003   26.4177 C.ar    1  UNL1        0.0369
     12 C           8.7283   -7.8227   25.0906 C.ar    1  UNL1        0.0031
     13 C           8.3850   -7.1002   23.8217 C.ar    1  UNL1        0.0002
     14 C           7.7233   -5.7553   23.8798 C.ar    1  UNL1        0.0030
     15 C           7.4049   -5.1329   25.2069 C.ar    1  UNL1        0.0339
     16 H           5.2589   -2.7662   31.0293 H       1  UNL1        0.1233
     17 C           5.7133   -1.6206   21.4583 C.ar    1  UNL1        0.0566
     18 C           4.6693   -2.4338   22.1643 C.ar    1  UNL1        0.0047
     19 C           5.0126   -3.1563   23.4332 C.ar    1  UNL1        0.0031
     20 C           6.3999   -3.0655   23.9961 C.ar    1  UNL1        0.0336
     21 C           7.4441   -2.2522   23.2901 C.ar    1  UNL1        0.1337
     22 O           8.8315   -2.1615   23.8531 O.3     1  UNL1       -0.5055
     23 C           7.1008   -1.5298   22.0212 C.ar    1  UNL1        0.0411
     24 H           9.0459   -2.6128   24.6457 H       1  UNL1        0.2922
     25 N           5.4284   -1.6201   18.8759 N.am    1  UNL1       -0.2761
     26 C           5.3701   -0.8981   20.1893 C.2     1  UNL1        0.2491
     27 O           4.9684    0.5465   20.2339 O.2     1  UNL1       -0.2699
     28 C           3.6547   -0.7917   17.1677 C.3     1  UNL1        0.0233
     29 C           5.0851   -0.8977   17.6070 C.3     1  UNL1        0.0938
     30 C           5.8300   -3.0647   18.8313 C.3     1  UNL1        0.0938
     31 C           4.7795   -4.1338   18.7728 C.3     1  UNL1        0.0233
@<TRIPOS>BOND
     1    28    29    1
     2    29    25    1
     3    25    30    1
     4    30    31    1
     5    25    26   am
     6    26    27    2
     7    26    17    1
     8    17    18   ar
     9    18    19   ar
    10    19    20   ar
    11    20     1    1
    12     1     2    2
    13     2     3    1
    14     3     4    1
    15     4     5    1
    16     5     6    1
    17     6     7    1
    18     7     8    1
    19     3     9    1
    20     9    10    1
    21    10    11   ar
    22    11    12   ar
    23    12    13   ar
    24    13    14   ar
    25    14    15   ar
    26    20    21   ar
    27    21    22    1
    28    21    23   ar
    29    23    17   ar
    30    15     1    1
    31     8     3    1
    32    15    10   ar
    33     6    16    1
    34    22    24    1
@<TRIPOS>MOLECULE
*****
 31 34 0 0 0
SMALL
GASTEIGER

@<TRIPOS>ATOM
      1 C           4.5708   -0.3349   33.2406 C.2     1  UNL1        0.0049
      2 C           4.6970    0.1135   34.6665 C.2     1  UNL1        0.0131
      3 C           3.7794    1.1714   35.2040 C.3     1  UNL1        0.1542
      4 C           4.8232    0.5620   36.0923 C.3     1  UNL1        0.0614
      5 C           4.9494    1.0104   37.5181 C.3     1  UNL1        0.0725
      6 N           4.0318    2.0683   38.0556 N.3     1  UNL1       -0.2972
      7 C           2.9880    2.6777   37.1673 C.3     1  UNL1        0.0725
      8 C           2.8618    2.2293   35.7415 C.3     1  UNL1        0.0614
      9 O           2.7356    1.7808   34.3157 O.3     1  UNL1       -0.4785
     10 C           2.6094    1.3324   32.8899 C.ar    1  UNL1        0.1386
     11 C           1.5656    1.9418   32.0015 C.ar    1  UNL1        0.0369
     12 C           1.4394    1.4933   30.5757 C.ar    1  UNL1        0.0031
     13 C           2.3570    0.4355   30.0382 C.ar    1  UNL1        0.0002
     14 C           3.4007   -0.1740   30.9265 C.ar    1  UNL1        0.0030
     15 C           3.5270    0.2745   32.3524 C.ar    1  UNL1        0.0339
     16 H           4.6230    2.8325   38.3824 H       1  UNL1        0.1233
     17 C           7.3235   -3.5086   31.6281 C.ar    1  UNL1        0.0566
     18 C           7.6569   -2.0587   31.4368 C.ar    1  UNL1        0.0047
     19 C           6.7393   -1.0009   31.9743 C.ar    1  UNL1        0.0031
     20 C           5.4883   -1.3928   32.7031 C.ar    1  UNL1        0.0336
     21 C           5.1548   -2.8428   32.8945 C.ar    1  UNL1        0.1337
     22 O           3.9038   -3.2348   33.6234 O.3     1  UNL1       -0.5055
     23 C           6.0724   -3.9007   32.3570 C.ar    1  UNL1        0.0411
     24 H           3.3307   -2.5739   33.9591 H       1  UNL1        0.2922
     25 N           7.8666   -5.3255   29.8522 N.am    1  UNL1       -0.2761
     26 C           8.2411   -4.5665   31.0906 C.2     1  UNL1        0.2491
     27 O           9.5332   -4.8654   31.7916 O.2     1  UNL1       -0.2699
     28 C           8.2880   -7.3533   28.2836 C.3     1  UNL1        0.0233
     29 C           8.7842   -6.3834   29.3147 C.3     1  UNL1        0.0938
     30 C           6.5746   -5.0266   29.1513 C.3     1  UNL1        0.0938
     31 C           6.5553   -4.0865   27.9826 C.3     1  UNL1        0.0233
@<TRIPOS>BOND
     1    28    29    1
     2    29    25    1
     3    25    30    1
     4    30    31    1
     5    25    26   am
     6    26    27    2
     7    26    17    1
     8    17    18   ar
     9    18    19   ar
    10    19    20   ar
    11    20     1    1
    12     1     2    2
    13     2     3    1
    14     3     4    1
    15     4     5    1
    16     5     6    1
    17     6     7    1
    18     7     8    1
    19     3     9    1
    20     9    10    1
    21    10    11   ar
    22    11    12   ar
    23    12    13   ar
    24    13    14   ar
    25    14    15   ar
    26    20    21   ar
    27    21    22    1
    28    21    23   ar
    29    23    17   ar
    30    15     1    1
    31     8     3    1
    32    15    10   ar
    33     6    16    1
    34    22    24    1
@<TRIPOS>MOLECULE
*****
 31 34 0 0 0
SMALL
GASTEIGER

@<TRIPOS>ATOM
      1 C           6.8868   -3.9856   24.6550 C.2     1  UNL1        0.0049
      2 C           6.4587   -3.1733   25.8412 C.2     1  UNL1        0.0131
      3 C           6.7356   -3.6696   27.2294 C.3     1  UNL1        0.1542
      4 C           6.0306   -2.3611   27.0274 C.3     1  UNL1        0.0614
      5 C           5.6025   -1.5490   28.2136 C.3     1  UNL1        0.0725
      6 N           5.8794   -2.0453   29.6018 N.3     1  UNL1       -0.2972
      7 C           6.5844   -3.3538   29.8037 C.3     1  UNL1        0.0725
      8 C           7.0125   -4.1659   28.6176 C.3     1  UNL1        0.0614
      9 O           7.4406   -4.9782   27.4314 O.3     1  UNL1       -0.4785
     10 C           7.8687   -5.7904   26.2452 C.ar    1  UNL1        0.1386
     11 C           8.5737   -7.0989   26.4471 C.ar    1  UNL1        0.0369
     12 C           9.0018   -7.9111   25.2610 C.ar    1  UNL1        0.0031
     13 C           8.7249   -7.4148   23.8728 C.ar    1  UNL1        0.0002
     14 C           8.0199   -6.1063   23.6708 C.ar    1  UNL1        0.0030
     15 C           7.5918   -5.2941   24.8570 C.ar    1  UNL1        0.0339
     16 H           4.9778   -2.1208   30.0728 H       1  UNL1        0.1233
     17 C           6.0562   -2.4967   20.4905 C.ar    1  UNL1        0.0566
     18 C           5.0274   -3.3142   21.2138 C.ar    1  UNL1        0.0047
     19 C           5.3043   -3.8105   22.6020 C.ar    1  UNL1        0.0031
     20 C           6.6099   -3.4893   23.2668 C.ar    1  UNL1        0.0336
     21 C           7.6388   -2.6717   22.5435 C.ar    1  UNL1        0.1337
     22 O           8.9444   -2.3504   23.2084 O.3     1  UNL1       -0.5055
     23 C           7.3619   -2.1754   21.1554 C.ar    1  UNL1        0.0411
     24 H           9.1173   -2.6604   24.0755 H       1  UNL1        0.2922
     25 N           5.0195   -0.7229   18.9002 N.am    1  UNL1       -0.2761
     26 C           5.7793   -2.0004   19.1023 C.2     1  UNL1        0.2491
     27 O           6.2622   -2.7816   17.9163 O.2     1  UNL1       -0.2699
     28 C           3.6360   -0.8371   16.7040 C.3     1  UNL1        0.0233
     29 C           4.7427   -0.2266   17.5120 C.3     1  UNL1        0.0938
     30 C           4.5366    0.0582   20.0862 C.3     1  UNL1        0.0938
     31 C           3.1299   -0.1159   20.5767 C.3     1  UNL1        0.0233
@<TRIPOS>BOND
     1    28    29    1
     2    29    25    1
     3    25    30    1
     4    30    31    1
     5    25    26   am
     6    26    27    2
     7    26    17    1
     8    17    18   ar
     9    18    19   ar
    10    19    20   ar
    11    20     1    1
    12     1     2    2
    13     2     3    1
    14     3     4    1
    15     4     5    1
    16     5     6    1
    17     6     7    1
    18     7     8    1
    19     3     9    1
    20     9    10    1
    21    10    11   ar
    22    11    12   ar
    23    12    13   ar
    24    13    14   ar
    25    14    15   ar
    26    20    21   ar
    27    21    22    1
    28    21    23   ar
    29    23    17   ar
    30    15     1    1
    31     8     3    1
    32    15    10   ar
    33     6    16    1
    34    22    24    1
@<TRIPOS>MOLECULE
*****
 31 34 0 0 0
SMALL
GASTEIGER

@<TRIPOS>ATOM
      1 C         -14.3937   -4.3504   18.8825 C.2     1  UNL1        0.0049
      2 C         -12.8978   -4.4441   18.8206 C.2     1  UNL1        0.0131
      3 C         -12.2282   -5.7858   18.8599 C.3     1  UNL1        0.1542
      4 C         -11.4021   -4.5379   18.7588 C.3     1  UNL1        0.0614
      5 C          -9.9063   -4.6317   18.6970 C.3     1  UNL1        0.0725
      6 N          -9.2367   -5.9734   18.7362 N.3     1  UNL1       -0.2972
      7 C         -10.0629   -7.2212   18.8373 C.3     1  UNL1        0.0725
      8 C         -11.5586   -7.1274   18.8991 C.3     1  UNL1        0.0614
      9 O         -13.0545   -7.0337   18.9609 O.3     1  UNL1       -0.4785
     10 C         -14.5502   -6.9399   19.0227 C.ar    1  UNL1        0.1386
     11 C         -15.3764   -8.1878   19.1238 C.ar    1  UNL1        0.0369
     12 C         -16.8722   -8.0940   19.1856 C.ar    1  UNL1        0.0031
     13 C         -17.5418   -6.7524   19.1464 C.ar    1  UNL1        0.0002
     14 C         -16.7157   -5.5045   19.0454 C.ar    1  UNL1        0.0030
     15 C         -15.2198   -5.5982   18.9835 C.ar    1  UNL1        0.0339
     16 H          -8.6124   -5.9674   19.5428 H       1  UNL1        0.1233
     17 C         -16.4025   -0.3254   18.7648 C.ar    1  UNL1        0.0566
     18 C         -16.3535   -1.1755   17.5300 C.ar    1  UNL1        0.0047
     19 C         -15.6838   -2.5171   17.5692 C.ar    1  UNL1        0.0031
     20 C         -15.0633   -3.0087   18.8433 C.ar    1  UNL1        0.0336
     21 C         -15.1124   -2.1586   20.0782 C.ar    1  UNL1        0.1337
     22 O         -14.4919   -2.6501   21.3522 O.3     1  UNL1       -0.5055
     23 C         -15.7820   -0.8169   20.0390 C.ar    1  UNL1        0.0411
     24 H         -14.0736   -3.4882   21.3767 H       1  UNL1        0.2922
     25 N         -16.2686    2.2472   18.4271 N.am    1  UNL1       -0.2761
     26 C         -17.0722    1.0163   18.7256 C.2     1  UNL1        0.2491
     27 O         -18.5455    1.1271   18.9850 O.2     1  UNL1       -0.2699
     28 C         -17.0816    4.3926   19.6463 C.3     1  UNL1        0.0233
     29 C         -16.9382    3.5888   18.3879 C.3     1  UNL1        0.0938
     30 C         -14.7953    2.1364   18.1677 C.3     1  UNL1        0.0938
     31 C         -14.2882    2.0184   16.7610 C.3     1  UNL1        0.0233
@<TRIPOS>BOND
     1    28    29    1
     2    29    25    1
     3    25    30    1
     4    30    31    1
     5    25    26   am
     6    26    27    2
     7    26    17    1
     8    17    18   ar
     9    18    19   ar
    10    19    20   ar
    11    20     1    1
    12     1     2    2
    13     2     3    1
    14     3     4    1
    15     4     5    1
    16     5     6    1
    17     6     7    1
    18     7     8    1
    19     3     9    1
    20     9    10    1
    21    10    11   ar
    22    11    12   ar
    23    12    13   ar
    24    13    14   ar
    25    14    15   ar
    26    20    21   ar
    27    21    22    1
    28    21    23   ar
    29    23    17   ar
    30    15     1    1
    31     8     3    1
    32    15    10   ar
    33     6    16    1
    34    22    24    1
@<TRIPOS>MOLECULE
*****
 31 34 0 0 0
SMALL
GASTEIGER

@<TRIPOS>ATOM
      1 C          -8.7525  -18.3640   21.6495 C.2     1  UNL1        0.0049
      2 C          -9.4865  -17.4125   20.7517 C.2     1  UNL1        0.0131
      3 C         -10.9581  -17.1894   20.9381 C.3     1  UNL1        0.1542
      4 C         -10.2206  -16.4611   19.8539 C.3     1  UNL1        0.0614
      5 C         -10.9546  -15.5097   18.9562 C.3     1  UNL1        0.0725
      6 N         -12.4261  -15.2866   19.1426 N.3     1  UNL1       -0.2972
      7 C         -13.1637  -16.0150   20.2268 C.3     1  UNL1        0.0725
      8 C         -12.4297  -16.9664   21.1245 C.3     1  UNL1        0.0614
      9 O         -11.6956  -17.9179   22.0223 O.3     1  UNL1       -0.4785
     10 C         -10.9616  -18.8693   22.9201 C.ar    1  UNL1        0.1386
     11 C         -11.6992  -19.5977   24.0043 C.ar    1  UNL1        0.0369
     12 C         -10.9651  -20.5491   24.9020 C.ar    1  UNL1        0.0031
     13 C          -9.4936  -20.7722   24.7156 C.ar    1  UNL1        0.0002
     14 C          -8.7560  -20.0438   23.6314 C.ar    1  UNL1        0.0030
     15 C          -9.4901  -19.0923   22.7336 C.ar    1  UNL1        0.0339
     16 H         -12.8757  -15.5362   18.2617 H       1  UNL1        0.1233
     17 C          -4.3378  -19.0331   21.0902 C.ar    1  UNL1        0.0566
     18 C          -4.8370  -18.2868   22.2917 C.ar    1  UNL1        0.0047
     19 C          -6.3085  -18.0637   22.4782 C.ar    1  UNL1        0.0031
     20 C          -7.2810  -18.5870   21.4630 C.ar    1  UNL1        0.0336
     21 C          -6.7818  -19.3334   20.2614 C.ar    1  UNL1        0.1337
     22 O          -7.7542  -19.8567   19.2462 O.3     1  UNL1       -0.5055
     23 C          -5.3103  -19.5564   20.0749 C.ar    1  UNL1        0.0411
     24 H          -8.6735  -19.7173   19.3627 H       1  UNL1        0.2922
     25 N          -2.0691  -18.3212   20.0434 N.am    1  UNL1       -0.2761
     26 C          -2.8663  -19.2562   20.9037 C.2     1  UNL1        0.2491
     27 O          -2.1919  -20.4142   21.5777 O.2     1  UNL1       -0.2699
     28 C           0.3653  -17.4140   20.0703 C.3     1  UNL1        0.0233
     29 C          -0.5975  -18.5443   19.8569 C.3     1  UNL1        0.0938
     30 C          -2.7434  -17.1631   19.3694 C.3     1  UNL1        0.0938
     31 C          -2.7099  -17.0420   17.8747 C.3     1  UNL1        0.0233
@<TRIPOS>BOND
     1    28    29    1
     2    29    25    1
     3    25    30    1
     4    30    31    1
     5    25    26   am
     6    26    27    2
     7    26    17    1
     8    17    18   ar
     9    18    19   ar
    10    19    20   ar
    11    20     1    1
    12     1     2    2
    13     2     3    1
    14     3     4    1
    15     4     5    1
    16     5     6    1
    17     6     7    1
    18     7     8    1
    19     3     9    1
    20     9    10    1
    21    10    11   ar
    22    11    12   ar
    23    12    13   ar
    24    13    14   ar
    25    14    15   ar
    26    20    21   ar
    27    21    22    1
    28    21    23   ar
    29    23    17   ar
    30    15     1    1
    31     8     3    1
    32    15    10   ar
    33     6    16    1
    34    22    24    1
@<TRIPOS>MOLECULE
*****
 31 34 0 0 0
SMALL
GASTEIGER

@<TRIPOS>ATOM
      1 C          -7.5092  -17.0647   23.1615 C.2     1  UNL1        0.0049
      2 C          -8.7077  -17.2337   22.2754 C.2     1  UNL1        0.0131
      3 C         -10.0530  -16.7544   22.7340 C.3     1  UNL1        0.1542
      4 C          -9.9062  -17.4027   21.3894 C.3     1  UNL1        0.0614
      5 C         -11.1046  -17.5717   20.5034 C.3     1  UNL1        0.0725
      6 N         -12.4500  -17.0924   20.9620 N.3     1  UNL1       -0.2972
      7 C         -12.5968  -16.4441   22.3066 C.3     1  UNL1        0.0725
      8 C         -11.3984  -16.2751   23.1927 C.3     1  UNL1        0.0614
      9 O         -10.1999  -16.1061   24.0787 O.3     1  UNL1       -0.4785
     10 C          -9.0014  -15.9370   24.9648 C.ar    1  UNL1        0.1386
     11 C          -9.1482  -15.2887   26.3095 C.ar    1  UNL1        0.0369
     12 C          -7.9498  -15.1197   27.1955 C.ar    1  UNL1        0.0031
     13 C          -6.6044  -15.5990   26.7369 C.ar    1  UNL1        0.0002
     14 C          -6.4576  -16.2473   25.3922 C.ar    1  UNL1        0.0030
     15 C          -7.6561  -16.4164   24.5061 C.ar    1  UNL1        0.0339
     16 H         -13.0689  -17.9032   20.9569 H       1  UNL1        0.1233
     17 C          -3.4732  -18.5026   21.7857 C.ar    1  UNL1        0.0566
     18 C          -3.5796  -17.2814   22.6500 C.ar    1  UNL1        0.0047
     19 C          -4.9250  -16.8020   23.1086 C.ar    1  UNL1        0.0031
     20 C          -6.1639  -17.5440   22.7029 C.ar    1  UNL1        0.0336
     21 C          -6.0574  -18.7653   21.8385 C.ar    1  UNL1        0.1337
     22 O          -7.2963  -19.5072   21.4327 O.3     1  UNL1       -0.5055
     23 C          -4.7121  -19.2446   21.3799 C.ar    1  UNL1        0.0411
     24 H          -8.1367  -19.2078   21.7192 H       1  UNL1        0.2922
     25 N          -1.3571  -18.1930   20.3105 N.am    1  UNL1       -0.2761
     26 C          -2.1278  -18.9819   21.3270 C.2     1  UNL1        0.2491
     27 O          -1.5533  -20.2502   21.8851 O.2     1  UNL1       -0.2699
     28 C           1.2071  -17.8329   20.0970 C.3     1  UNL1        0.0233
     29 C          -0.0118  -18.6723   19.8518 C.3     1  UNL1        0.0938
     30 C          -1.9317  -16.9246   19.7524 C.3     1  UNL1        0.0938
     31 C          -2.7377  -16.9591   18.4879 C.3     1  UNL1        0.0233
@<TRIPOS>BOND
     1    28    29    1
     2    29    25    1
     3    25    30    1
     4    30    31    1
     5    25    26   am
     6    26    27    2
     7    26    17    1
     8    17    18   ar
     9    18    19   ar
    10    19    20   ar
    11    20     1    1
    12     1     2    2
    13     2     3    1
    14     3     4    1
    15     4     5    1
    16     5     6    1
    17     6     7    1
    18     7     8    1
    19     3     9    1
    20     9    10    1
    21    10    11   ar
    22    11    12   ar
    23    12    13   ar
    24    13    14   ar
    25    14    15   ar
    26    20    21   ar
    27    21    22    1
    28    21    23   ar
    29    23    17   ar
    30    15     1    1
    31     8     3    1
    32    15    10   ar
    33     6    16    1
    34    22    24    1
@<TRIPOS>MOLECULE
*****
 31 34 0 0 0
SMALL
GASTEIGER

@<TRIPOS>ATOM
      1 C          -0.1945    2.1327   21.5368 C.2     1  UNL1        0.0049
      2 C          -1.2960    2.8820   20.8473 C.2     1  UNL1        0.0131
      3 C          -2.3001    3.6502   21.6546 C.3     1  UNL1        0.1542
      4 C          -2.3975    3.6312   20.1579 C.3     1  UNL1        0.0614
      5 C          -3.4990    4.3804   19.4685 C.3     1  UNL1        0.0725
      6 N          -4.5031    5.1487   20.2758 N.3     1  UNL1       -0.2972
      7 C          -4.4056    5.1677   21.7725 C.3     1  UNL1        0.0725
      8 C          -3.3041    4.4185   22.4619 C.3     1  UNL1        0.0614
      9 O          -2.2026    3.6692   23.1514 O.3     1  UNL1       -0.4785
     10 C          -1.1011    2.9200   23.8408 C.ar    1  UNL1        0.1386
     11 C          -1.0036    2.9390   25.3375 C.ar    1  UNL1        0.0369
     12 C           0.0979    2.1897   26.0269 C.ar    1  UNL1        0.0031
     13 C           1.1019    1.4215   25.2197 C.ar    1  UNL1        0.0002
     14 C           1.0045    1.4025   23.7230 C.ar    1  UNL1        0.0030
     15 C          -0.0970    2.1517   23.0335 C.ar    1  UNL1        0.0339
     16 H          -5.4204    4.7669   20.0453 H       1  UNL1        0.1233
     17 C           2.8177   -0.1720   19.1150 C.ar    1  UNL1        0.0566
     18 C           1.6193   -0.8719   19.6841 C.ar    1  UNL1        0.0047
     19 C           0.6152   -0.1037   20.4914 C.ar    1  UNL1        0.0031
     20 C           0.8096    1.3645   20.7295 C.ar    1  UNL1        0.0336
     21 C           2.0080    2.0645   20.1604 C.ar    1  UNL1        0.1337
     22 O           2.2023    3.5326   20.3985 O.3     1  UNL1       -0.5055
     23 C           3.0120    1.2962   19.3531 C.ar    1  UNL1        0.0411
     24 H           1.5751    4.0125   20.9028 H       1  UNL1        0.2922
     25 N           4.9196   -1.6944   18.9974 N.am    1  UNL1       -0.2761
     26 C           3.8217   -0.9402   18.3077 C.2     1  UNL1        0.2491
     27 O           3.7278   -0.9542   16.8107 O.2     1  UNL1       -0.2699
     28 C           7.3897   -2.2924   18.4580 C.3     1  UNL1        0.0233
     29 C           5.9237   -2.4627   18.1901 C.3     1  UNL1        0.0938
     30 C           5.0135   -1.6804   20.4944 C.3     1  UNL1        0.0938
     31 C           4.4256   -2.8056   21.2933 C.3     1  UNL1        0.0233
@<TRIPOS>BOND
     1    28    29    1
     2    29    25    1
     3    25    30    1
     4    30    31    1
     5    25    26   am
     6    26    27    2
     7    26    17    1
     8    17    18   ar
     9    18    19   ar
    10    19    20   ar
    11    20     1    1
    12     1     2    2
    13     2     3    1
    14     3     4    1
    15     4     5    1
    16     5     6    1
    17     6     7    1
    18     7     8    1
    19     3     9    1
    20     9    10    1
    21    10    11   ar
    22    11    12   ar
    23    12    13   ar
    24    13    14   ar
    25    14    15   ar
    26    20    21   ar
    27    21    22    1
    28    21    23   ar
    29    23    17   ar
    30    15     1    1
    31     8     3    1
    32    15    10   ar
    33     6    16    1
    34    22    24    1
@<TRIPOS>MOLECULE
*****
 31 34 0 0 0
SMALL
GASTEIGER

@<TRIPOS>ATOM
      1 C           7.0618   -4.1176   25.8096 C.2     1  UNL1        0.0049
      2 C           6.1754   -3.3720   24.8564 C.2     1  UNL1        0.0131
      3 C           6.0814   -3.8066   23.4238 C.3     1  UNL1        0.1542
      4 C           5.2891   -2.6266   23.9031 C.3     1  UNL1        0.0614
      5 C           4.4028   -1.8811   22.9499 C.3     1  UNL1        0.0725
      6 N           4.3088   -2.3157   21.5173 N.3     1  UNL1       -0.2972
      7 C           5.1010   -3.4958   21.0380 C.3     1  UNL1        0.0725
      8 C           5.9873   -4.2412   21.9912 C.3     1  UNL1        0.0614
      9 O           6.8737   -4.9867   22.9445 O.3     1  UNL1       -0.4785
     10 C           7.7600   -5.7322   23.8977 C.ar    1  UNL1        0.1386
     11 C           8.5523   -6.9123   23.4184 C.ar    1  UNL1        0.0369
     12 C           9.4386   -7.6578   24.3716 C.ar    1  UNL1        0.0031
     13 C           9.5326   -7.2232   25.8042 C.ar    1  UNL1        0.0002
     14 C           8.7404   -6.0431   26.2836 C.ar    1  UNL1        0.0030
     15 C           7.8540   -5.2976   25.3303 C.ar    1  UNL1        0.0339
     16 H           4.5943   -1.5187   20.9485 H       1  UNL1        0.1233
     17 C           7.3440   -2.8138   30.1074 C.ar    1  UNL1        0.0566
     18 C           8.1120   -2.0793   29.0488 C.ar    1  UNL1        0.0047
     19 C           8.0180   -2.5139   27.6163 C.ar    1  UNL1        0.0031
     20 C           7.1558   -3.6830   27.2422 C.ar    1  UNL1        0.0336
     21 C           6.3877   -4.4175   28.3008 C.ar    1  UNL1        0.1337
     22 O           5.5255   -5.5866   27.9267 O.3     1  UNL1       -0.5055
     23 C           6.4817   -3.9829   29.7334 C.ar    1  UNL1        0.0411
     24 H           5.4668   -5.8580   27.0318 H       1  UNL1        0.2922
     25 N           6.6073   -1.2311   32.0315 N.am    1  UNL1       -0.2761
     26 C           7.4380   -2.3792   31.5400 C.2     1  UNL1        0.2491
     27 O           8.3628   -3.0928   32.4810 O.2     1  UNL1       -0.2699
     28 C           5.5350   -0.9951   34.3862 C.3     1  UNL1        0.0233
     29 C           6.7014   -0.7965   33.4641 C.3     1  UNL1        0.0938
     30 C           5.6825   -0.5175   31.0904 C.3     1  UNL1        0.0938
     31 C           4.2664   -0.9859   30.9314 C.3     1  UNL1        0.0233
@<TRIPOS>BOND
     1    28    29    1
     2    29    25    1
     3    25    30    1
     4    30    31    1
     5    25    26   am
     6    26    27    2
     7    26    17    1
     8    17    18   ar
     9    18    19   ar
    10    19    20   ar
    11    20     1    1
    12     1     2    2
    13     2     3    1
    14     3     4    1
    15     4     5    1
    16     5     6    1
    17     6     7    1
    18     7     8    1
    19     3     9    1
    20     9    10    1
    21    10    11   ar
    22    11    12   ar
    23    12    13   ar
    24    13    14   ar
    25    14    15   ar
    26    20    21   ar
    27    21    22    1
    28    21    23   ar
    29    23    17   ar
    30    15     1    1
    31     8     3    1
    32    15    10   ar
    33     6    16    1
    34    22    24    1
