@<TRIPOS>MOLECULE
*****
 33 36 0 0 0
SMALL
GASTEIGER

@<TRIPOS>ATOM
      1 C           2.2782    1.2003   22.6440 C.ar    1  UNL1        0.0690
      2 C           3.5352    0.4212   22.3936 C.ar    1  UNL1        0.0275
      3 C           3.6491    0.1875   20.9163 C.ar    1  UNL1        0.1142
      4 N           2.4623    0.8221   20.2537 N.ar    1  UNL1       -0.3223
      5 C           1.6151    1.4481   21.3216 C.ar    1  UNL1        0.0717
      6 C           0.3492    2.1628   20.9518 C.3     1  UNL1        0.1857
      7 O          -0.0693    2.2516   19.5141 O.3     1  UNL1       -0.3454
      8 C           0.7780    1.6256   18.4463 C.3     1  UNL1        0.1671
      9 C           2.0438    0.9109   18.8161 C.3     1  UNL1        0.1379
     10 C           4.7554   -0.5512   20.2232 C.2     1  UNL1        0.2649
     11 O           6.0953    0.0991   20.0456 O.2     1  UNL1       -0.2683
     12 N           4.5217   -1.9404   19.7075 N.am    1  UNL1       -0.2765
     13 C           3.2418   -2.7156   19.8112 C.3     1  UNL1        0.0937
     14 C           3.4560   -4.0524   19.1655 C.3     1  UNL1        0.0232
     15 C           4.8683   -4.1035   18.6628 C.3     1  UNL1        0.0216
     16 C           5.5270   -2.7981   18.9978 C.3     1  UNL1        0.0758
     17 C           6.9424   -2.4173   18.6791 C.3     1  UNL1        0.0215
     18 N           0.6458    0.9175   24.6455 N.am    1  UNL1       -0.2986
     19 C           1.7728    1.6523   23.9821 C.2     1  UNL1        0.2472
     20 O           2.3944    2.8389   24.6568 O.2     1  UNL1       -0.2701
     21 H           0.2378    0.1386   24.2027 H       1  UNL1        0.1500
     22 C           0.1405    1.3695   25.9835 C.3     1  UNL1        0.0959
     23 C           0.7183    0.7871   27.2393 C.ar    1  UNL1        0.0157
     24 C          -0.1658    0.5326   28.4240 C.ar    1  UNL1        0.0994
     25 N           0.4121   -0.0498   29.6797 N.ar    1  UNL1       -0.2097
     26 C           1.8741   -0.3777   29.7508 C.ar    1  UNL1        0.2358
     27 C           2.7582   -0.1232   28.5660 C.ar    1  UNL1        0.1105
     28 CL          4.2201   -0.4511   28.6371 Cl      1  UNL1       -0.0774
     29 C           2.1803    0.4592   27.3103 C.ar    1  UNL1        0.0150
     30 O           2.4519   -0.9600   31.0065 O.3     1  UNL1       -0.4556
     31 C           3.1930   -0.0804   31.9694 C.3     1  UNL1        0.2543
     32 C          -1.4222    3.0882   24.8201 C.3     1  UNL1        0.0021
     33 C          -0.9427    2.4038   26.0657 C.3     1  UNL1        0.0242
@<TRIPOS>BOND
     1    32    33    1
     2    22    33    1
     3    22    18    1
     4    18    19   am
     5    19    20    2
     6    19     1    1
     7     1     2   ar
     8     2     3   ar
     9     3    10    1
    10    10    11    2
    11    10    12   am
    12    12    13    1
    13    13    14    1
    14    14    15    1
    15    15    16    1
    16    16    17    1
    17     3     4   ar
    18     4     5   ar
    19     5     6    1
    20     6     7    1
    21     7     8    1
    22     8     9    1
    23    22    23    1
    24    23    24   ar
    25    24    25   ar
    26    25    26   ar
    27    26    30    1
    28    30    31    1
    29    26    27   ar
    30    27    28    1
    31    27    29   ar
    32     5     1   ar
    33    29    23   ar
    34    16    12    1
    35     9     4    1
    36    18    21    1
@<TRIPOS>MOLECULE
*****
 33 36 0 0 0
SMALL
GASTEIGER

@<TRIPOS>ATOM
      1 C           6.0229   -2.6734   23.8191 C.ar    1  UNL1        0.0690
      2 C           7.0701   -3.5209   24.4787 C.ar    1  UNL1        0.0275
      3 C           6.8788   -3.4221   25.9632 C.ar    1  UNL1        0.1142
      4 N           5.7133   -2.5137   26.2210 N.ar    1  UNL1       -0.3223
      5 C           5.1844   -2.0509   24.8958 C.ar    1  UNL1        0.0717
      6 C           4.0075   -1.1225   24.8409 C.3     1  UNL1        0.1857
      7 O           3.3597   -0.6569   26.1110 O.3     1  UNL1       -0.3454
      8 C           3.8886   -1.1197   27.4362 C.3     1  UNL1        0.1671
      9 C           5.0655   -2.0480   27.4912 C.3     1  UNL1        0.1379
     10 C           7.7074   -4.1110   27.0067 C.2     1  UNL1        0.2649
     11 O           8.4580   -3.3022   28.0227 O.2     1  UNL1       -0.2683
     12 N           7.7854   -5.6088   27.0342 N.am    1  UNL1       -0.2765
     13 C           7.0936   -6.5452   26.0884 C.3     1  UNL1        0.0937
     14 C           7.4495   -7.9481   26.4819 C.3     1  UNL1        0.0232
     15 C           8.3613   -7.8789   27.6710 C.3     1  UNL1        0.0216
     16 C           8.5689   -6.4330   28.0123 C.3     1  UNL1        0.0758
     17 C           9.4119   -5.9043   29.1346 C.3     1  UNL1        0.0215
     18 N           4.6084   -2.9910   21.6630 N.am    1  UNL1       -0.2986
     19 C           5.8454   -2.4819   22.3420 C.2     1  UNL1        0.2472
     20 O           6.9046   -1.7816   21.5437 O.2     1  UNL1       -0.2701
     21 H           3.9131   -3.4507   22.1869 H       1  UNL1        0.1500
     22 C           4.4308   -2.7996   20.1859 C.3     1  UNL1        0.0959
     23 C           3.5251   -1.7194   19.6731 C.ar    1  UNL1        0.0157
     24 C           3.8406   -1.0271   18.3804 C.ar    1  UNL1        0.0994
     25 N           2.9349    0.0531   17.8676 N.ar    1  UNL1       -0.2097
     26 C           1.7137    0.4409   18.6475 C.ar    1  UNL1        0.2358
     27 C           1.3982   -0.2515   19.9403 C.ar    1  UNL1        0.1105
     28 CL          0.1771    0.1364   20.7201 Cl      1  UNL1       -0.0774
     29 C           2.3039   -1.3316   20.4531 C.ar    1  UNL1        0.0150
     30 O           0.8080    1.5210   18.1348 O.3     1  UNL1       -0.4556
     31 C           1.1248    2.9605   18.4133 C.3     1  UNL1        0.2543
     32 C           4.5439   -4.9851   18.7859 C.3     1  UNL1        0.0021
     33 C           5.1590   -3.6883   19.2217 C.3     1  UNL1        0.0242
@<TRIPOS>BOND
     1    32    33    1
     2    22    33    1
     3    22    18    1
     4    18    19   am
     5    19    20    2
     6    19     1    1
     7     1     2   ar
     8     2     3   ar
     9     3    10    1
    10    10    11    2
    11    10    12   am
    12    12    13    1
    13    13    14    1
    14    14    15    1
    15    15    16    1
    16    16    17    1
    17     3     4   ar
    18     4     5   ar
    19     5     6    1
    20     6     7    1
    21     7     8    1
    22     8     9    1
    23    22    23    1
    24    23    24   ar
    25    24    25   ar
    26    25    26   ar
    27    26    30    1
    28    30    31    1
    29    26    27   ar
    30    27    28    1
    31    27    29   ar
    32     5     1   ar
    33    29    23   ar
    34    16    12    1
    35     9     4    1
    36    18    21    1
@<TRIPOS>MOLECULE
*****
 33 36 0 0 0
SMALL
GASTEIGER

@<TRIPOS>ATOM
      1 C          -1.0642    3.1711   20.3078 C.ar    1  UNL1        0.0690
      2 C          -0.1375    2.7617   19.2016 C.ar    1  UNL1        0.0275
      3 C           1.1502    2.3051   19.8209 C.ar    1  UNL1        0.1142
      4 N           1.0193    2.4323   21.3097 N.ar    1  UNL1       -0.3223
      5 C          -0.3493    2.9675   21.6107 C.ar    1  UNL1        0.0717
      6 C          -0.7677    3.2003   23.0321 C.3     1  UNL1        0.1857
      7 O           0.1824    2.8979   24.1527 O.3     1  UNL1       -0.3454
      8 C           1.5510    2.3627   23.8518 C.3     1  UNL1        0.1671
      9 C           1.9694    2.1299   22.4303 C.3     1  UNL1        0.1379
     10 C           2.3569    1.8085   19.0811 C.2     1  UNL1        0.2649
     11 O           3.1456    2.7470   18.2168 O.2     1  UNL1       -0.2683
     12 N           2.7750    0.3733   19.2058 N.am    1  UNL1       -0.2765
     13 C           2.0887   -0.6767   20.0283 C.3     1  UNL1        0.0937
     14 C           2.8423   -1.9627   19.8607 C.3     1  UNL1        0.0232
     15 C           3.9943   -1.7077   18.9346 C.3     1  UNL1        0.0216
     16 C           3.9528   -0.2639   18.5299 C.3     1  UNL1        0.0758
     17 C           4.9192    0.4223   17.6106 C.3     1  UNL1        0.0215
     18 N          -3.6327    2.8204   20.4811 N.am    1  UNL1       -0.2986
     19 C          -2.4606    3.6925   20.1404 C.2     1  UNL1        0.2472
     20 O          -2.6852    5.0858   19.6326 O.2     1  UNL1       -0.2701
     21 H          -3.4854    1.9059   20.8144 H       1  UNL1        0.1500
     22 C          -5.0292    3.3419   20.3137 C.3     1  UNL1        0.0959
     23 C          -5.7455    3.9553   21.4802 C.ar    1  UNL1        0.0157
     24 C          -6.9570    4.8096   21.2513 C.ar    1  UNL1        0.0994
     25 N          -7.6734    5.4231   22.4178 N.ar    1  UNL1       -0.2097
     26 C          -7.1781    5.1822   23.8130 C.ar    1  UNL1        0.2358
     27 C          -5.9666    4.3279   24.0418 C.ar    1  UNL1        0.1105
     28 CL         -5.4714    4.0871   25.4371 Cl      1  UNL1       -0.0774
     29 C          -5.2503    3.7145   22.8754 C.ar    1  UNL1        0.0150
     30 O          -7.8944    5.7957   24.9794 O.3     1  UNL1       -0.4556
     31 C          -9.3679    6.0644   24.8977 C.3     1  UNL1        0.2543
     32 C          -5.5627    4.3627   17.9851 C.3     1  UNL1        0.0021
     33 C          -5.7093    3.2498   18.9800 C.3     1  UNL1        0.0242
@<TRIPOS>BOND
     1    32    33    1
     2    22    33    1
     3    22    18    1
     4    18    19   am
     5    19    20    2
     6    19     1    1
     7     1     2   ar
     8     2     3   ar
     9     3    10    1
    10    10    11    2
    11    10    12   am
    12    12    13    1
    13    13    14    1
    14    14    15    1
    15    15    16    1
    16    16    17    1
    17     3     4   ar
    18     4     5   ar
    19     5     6    1
    20     6     7    1
    21     7     8    1
    22     8     9    1
    23    22    23    1
    24    23    24   ar
    25    24    25   ar
    26    25    26   ar
    27    26    30    1
    28    30    31    1
    29    26    27   ar
    30    27    28    1
    31    27    29   ar
    32     5     1   ar
    33    29    23   ar
    34    16    12    1
    35     9     4    1
    36    18    21    1
@<TRIPOS>MOLECULE
*****
 33 36 0 0 0
SMALL
GASTEIGER

@<TRIPOS>ATOM
      1 C           6.2447   -3.6832   23.4593 C.ar    1  UNL1        0.0690
      2 C           7.2317   -4.4693   24.2704 C.ar    1  UNL1        0.0275
      3 C           7.0955   -4.0465   25.7031 C.ar    1  UNL1        0.1142
      4 N           6.0243   -2.9990   25.7775 N.ar    1  UNL1       -0.3223
      5 C           5.4985   -2.7745   24.3907 C.ar    1  UNL1        0.0717
      6 C           4.4082   -1.7717   24.1553 C.3     1  UNL1        0.1857
      7 O           3.8437   -0.9934   25.3065 O.3     1  UNL1       -0.3454
      8 C           4.3696   -1.2178   26.6933 C.3     1  UNL1        0.1671
      9 C           5.4599   -2.2207   26.9288 C.3     1  UNL1        0.1379
     10 C           7.8908   -4.5777   26.8586 C.2     1  UNL1        0.2649
     11 O           8.5842   -3.6293   27.7911 O.2     1  UNL1       -0.2683
     12 N           7.9928   -6.0576   27.0817 N.am    1  UNL1       -0.2765
     13 C           7.3573   -7.1223   26.2375 C.3     1  UNL1        0.0937
     14 C           7.7198   -8.4552   26.8221 C.3     1  UNL1        0.0232
     15 C           8.5793   -8.2144   28.0276 C.3     1  UNL1        0.0216
     16 C           8.7480   -6.7326   28.1880 C.3     1  UNL1        0.0758
     17 C           9.5339   -6.0462   29.2656 C.3     1  UNL1        0.0215
     18 N           4.7392   -3.3550   21.3674 N.am    1  UNL1       -0.2986
     19 C           6.0398   -3.7875   21.9771 C.2     1  UNL1        0.2472
     20 O           7.1354   -4.3242   21.1044 O.2     1  UNL1       -0.2701
     21 H           4.0201   -3.0028   21.9402 H       1  UNL1        0.1500
     22 C           4.5344   -3.4593   19.8851 C.3     1  UNL1        0.0959
     23 C           4.9704   -2.3398   18.9871 C.ar    1  UNL1        0.0157
     24 C           6.1919   -2.4974   18.1309 C.ar    1  UNL1        0.0994
     25 N           6.6280   -1.3779   17.2329 N.ar    1  UNL1       -0.2097
     26 C           5.8426   -0.1006   17.1911 C.ar    1  UNL1        0.2358
     27 C           4.6211    0.0570   18.0473 C.ar    1  UNL1        0.1105
     28 CL          3.8358    1.3343   18.0055 Cl      1  UNL1       -0.0774
     29 C           4.1850   -1.0625   18.9453 C.ar    1  UNL1        0.0150
     30 O           6.2787    1.0189   16.2931 O.3     1  UNL1       -0.4556
     31 C           7.6603    1.5887   16.4216 C.3     1  UNL1        0.2543
     32 C           3.2649   -5.7037   20.2029 C.3     1  UNL1        0.0021
     33 C           3.8934   -4.6832   19.3009 C.3     1  UNL1        0.0242
@<TRIPOS>BOND
     1    32    33    1
     2    22    33    1
     3    22    18    1
     4    18    19   am
     5    19    20    2
     6    19     1    1
     7     1     2   ar
     8     2     3   ar
     9     3    10    1
    10    10    11    2
    11    10    12   am
    12    12    13    1
    13    13    14    1
    14    14    15    1
    15    15    16    1
    16    16    17    1
    17     3     4   ar
    18     4     5   ar
    19     5     6    1
    20     6     7    1
    21     7     8    1
    22     8     9    1
    23    22    23    1
    24    23    24   ar
    25    24    25   ar
    26    25    26   ar
    27    26    30    1
    28    30    31    1
    29    26    27   ar
    30    27    28    1
    31    27    29   ar
    32     5     1   ar
    33    29    23   ar
    34    16    12    1
    35     9     4    1
    36    18    21    1
@<TRIPOS>MOLECULE
*****
 33 36 0 0 0
SMALL
GASTEIGER

@<TRIPOS>ATOM
      1 C           4.3059   -2.0433   21.0735 C.ar    1  UNL1        0.0690
      2 C           3.2204   -1.2414   21.7283 C.ar    1  UNL1        0.0275
      3 C           2.5483   -0.4193   20.6689 C.ar    1  UNL1        0.1142
      4 N           3.2184   -0.7130   19.3594 N.ar    1  UNL1       -0.3223
      5 C           4.3047   -1.7167   19.6095 C.ar    1  UNL1        0.0717
      6 C           5.1524   -2.2036   18.4718 C.3     1  UNL1        0.1857
      7 O           4.9137   -1.6868   17.0841 O.3     1  UNL1       -0.3454
      8 C           3.8274   -0.6831   16.8340 C.3     1  UNL1        0.1671
      9 C           2.9797   -0.1962   17.9717 C.3     1  UNL1        0.1379
     10 C           1.4064    0.5299   20.8816 C.2     1  UNL1        0.2649
     11 O          -0.0068    0.0429   20.7577 O.2     1  UNL1       -0.2683
     12 N           1.6779    1.9663   21.2183 N.am    1  UNL1       -0.2765
     13 C           3.0310    2.5946   21.3747 C.3     1  UNL1        0.0937
     14 C           2.8333    4.0431   21.7106 C.3     1  UNL1        0.0232
     15 C           1.3582    4.3100   21.7619 C.3     1  UNL1        0.0216
     16 C           0.6441    3.0264   21.4576 C.3     1  UNL1        0.0758
     17 C          -0.8428    2.8363   21.4024 C.3     1  UNL1        0.0215
     18 N           6.5148   -2.5096   22.3596 N.am    1  UNL1       -0.2986
     19 C           5.2304   -3.0032   21.7619 C.2     1  UNL1        0.2472
     20 O           4.8708   -4.4565   21.8528 O.2     1  UNL1       -0.2701
     21 H           6.7509   -1.5557   22.3000 H       1  UNL1        0.1500
     22 C           7.4393   -3.4695   23.0480 C.3     1  UNL1        0.0959
     23 C           7.1314   -3.9411   24.4382 C.ar    1  UNL1        0.0157
     24 C           6.6409   -2.9679   25.4689 C.ar    1  UNL1        0.0994
     25 N           6.3330   -3.4395   26.8592 N.ar    1  UNL1       -0.2097
     26 C           6.5155   -4.8843   27.2187 C.ar    1  UNL1        0.2358
     27 C           7.0059   -5.8575   26.1880 C.ar    1  UNL1        0.1105
     28 CL          7.1884   -7.3022   26.5476 Cl      1  UNL1       -0.0774
     29 C           7.3139   -5.3859   24.7977 C.ar    1  UNL1        0.0150
     30 O           6.2076   -5.3559   28.6089 O.3     1  UNL1       -0.4556
     31 C           7.2682   -5.3102   29.6686 C.3     1  UNL1        0.2543
     32 C           8.5844   -4.4477   20.9310 C.3     1  UNL1        0.0021
     33 C           8.6717   -3.9578   22.3461 C.3     1  UNL1        0.0242
@<TRIPOS>BOND
     1    32    33    1
     2    22    33    1
     3    22    18    1
     4    18    19   am
     5    19    20    2
     6    19     1    1
     7     1     2   ar
     8     2     3   ar
     9     3    10    1
    10    10    11    2
    11    10    12   am
    12    12    13    1
    13    13    14    1
    14    14    15    1
    15    15    16    1
    16    16    17    1
    17     3     4   ar
    18     4     5   ar
    19     5     6    1
    20     6     7    1
    21     7     8    1
    22     8     9    1
    23    22    23    1
    24    23    24   ar
    25    24    25   ar
    26    25    26   ar
    27    26    30    1
    28    30    31    1
    29    26    27   ar
    30    27    28    1
    31    27    29   ar
    32     5     1   ar
    33    29    23   ar
    34    16    12    1
    35     9     4    1
    36    18    21    1
@<TRIPOS>MOLECULE
*****
 33 36 0 0 0
SMALL
GASTEIGER

@<TRIPOS>ATOM
      1 C           1.4886    1.7526   21.0153 C.ar    1  UNL1        0.0690
      2 C           2.3832    1.3079   19.8963 C.ar    1  UNL1        0.0275
      3 C           3.3810    0.3389   20.4579 C.ar    1  UNL1        0.1142
      4 N           3.1031    0.1846   21.9238 N.ar    1  UNL1       -0.3223
      5 C           1.9335    1.0584   22.2683 C.ar    1  UNL1        0.0717
      6 C           1.4247    1.1089   23.6784 C.3     1  UNL1        0.1857
      7 O           2.0855    0.2858   24.7441 O.3     1  UNL1       -0.3454
      8 C           3.2551   -0.5880   24.3996 C.3     1  UNL1        0.1671
      9 C           3.7638   -0.6386   22.9895 C.3     1  UNL1        0.1379
     10 C           4.4662   -0.3543   19.6886 C.2     1  UNL1        0.2649
     11 O           5.6726    0.4136   19.2360 O.2     1  UNL1       -0.2683
     12 N           4.3449   -1.8155   19.3717 N.am    1  UNL1       -0.2765
     13 C           3.2033   -2.7093   19.7562 C.3     1  UNL1        0.0937
     14 C           3.4968   -4.0855   19.2370 C.3     1  UNL1        0.0232
     15 C           4.8199   -4.0424   18.5315 C.3     1  UNL1        0.0216
     16 C           5.3440   -2.6394   18.6148 C.3     1  UNL1        0.0758
     17 C           6.6398   -2.1469   18.0418 C.3     1  UNL1        0.0215
     18 N          -1.0213    2.2286   20.5419 N.am    1  UNL1       -0.2986
     19 C           0.3492    2.7215   20.9012 C.2     1  UNL1        0.2472
     20 O           0.5801    4.1831   21.1464 O.2     1  UNL1       -0.2701
     21 H          -1.1729    1.2692   20.3809 H       1  UNL1        0.1500
     22 C          -2.1607    3.1974   20.4278 C.3     1  UNL1        0.0959
     23 C          -3.0900    3.4023   21.5874 C.ar    1  UNL1        0.0157
     24 C          -4.5736    3.3149   21.3841 C.ar    1  UNL1        0.0994
     25 N          -5.5028    3.5198   22.5436 N.ar    1  UNL1       -0.2097
     26 C          -4.9484    3.8120   23.9064 C.ar    1  UNL1        0.2358
     27 C          -3.4648    3.8994   24.1097 C.ar    1  UNL1        0.1105
     28 CL         -2.9105    4.1916   25.4725 Cl      1  UNL1       -0.0774
     29 C          -2.5356    3.6945   22.9501 C.ar    1  UNL1        0.0150
     30 O          -5.8776    4.0169   25.0660 O.3     1  UNL1       -0.4556
     31 C          -6.3893    5.3907   25.3835 C.3     1  UNL1        0.2543
     32 C          -1.3328    3.9158   18.0724 C.3     1  UNL1        0.0021
     33 C          -2.3709    3.9614   19.1542 C.3     1  UNL1        0.0242
@<TRIPOS>BOND
     1    32    33    1
     2    22    33    1
     3    22    18    1
     4    18    19   am
     5    19    20    2
     6    19     1    1
     7     1     2   ar
     8     2     3   ar
     9     3    10    1
    10    10    11    2
    11    10    12   am
    12    12    13    1
    13    13    14    1
    14    14    15    1
    15    15    16    1
    16    16    17    1
    17     3     4   ar
    18     4     5   ar
    19     5     6    1
    20     6     7    1
    21     7     8    1
    22     8     9    1
    23    22    23    1
    24    23    24   ar
    25    24    25   ar
    26    25    26   ar
    27    26    30    1
    28    30    31    1
    29    26    27   ar
    30    27    28    1
    31    27    29   ar
    32     5     1   ar
    33    29    23   ar
    34    16    12    1
    35     9     4    1
    36    18    21    1
@<TRIPOS>MOLECULE
*****
 33 36 0 0 0
SMALL
GASTEIGER

@<TRIPOS>ATOM
      1 C           3.9058   -1.1098   25.7676 C.ar    1  UNL1        0.0690
      2 C           3.5084   -1.3858   24.3478 C.ar    1  UNL1        0.0275
      3 C           4.5691   -2.2469   23.7287 C.ar    1  UNL1        0.1142
      4 N           5.6220   -2.5032   24.7658 N.ar    1  UNL1       -0.3223
      5 C           5.2121   -1.8003   26.0260 C.ar    1  UNL1        0.0717
      6 C           6.0813   -1.8800   27.2459 C.3     1  UNL1        0.1857
      7 O           7.3603   -2.6624   27.2056 O.3     1  UNL1       -0.3454
      8 C           7.7703   -3.3653   25.9455 C.3     1  UNL1        0.1671
      9 C           6.9011   -3.2856   24.7256 C.3     1  UNL1        0.1379
     10 C           4.5757   -2.7616   22.3198 C.2     1  UNL1        0.2649
     11 O           4.4916   -4.2363   22.0595 O.2     1  UNL1       -0.2683
     12 N           4.6663   -1.8012   21.1709 N.am    1  UNL1       -0.2765
     13 C           4.7558   -0.3076   21.2753 C.3     1  UNL1        0.0937
     14 C           4.8282    0.2507   19.8850 C.3     1  UNL1        0.0232
     15 C           4.7835   -0.8978   18.9213 C.3     1  UNL1        0.0216
     16 C           4.6835   -2.1661   19.7161 C.3     1  UNL1        0.0758
     17 C           4.6129   -3.5552   19.1546 C.3     1  UNL1        0.0215
     18 N           2.2820   -0.9626   27.7905 N.am    1  UNL1       -0.2986
     19 C           3.1327   -0.2876   26.7557 C.2     1  UNL1        0.2472
     20 O           3.2101    1.2096   26.7090 O.2     1  UNL1       -0.2701
     21 H           2.2311   -1.9454   27.8212 H       1  UNL1        0.1500
     22 C           1.5089   -0.1404   28.7786 C.3     1  UNL1        0.0959
     23 C           2.0781    0.1265   30.1405 C.ar    1  UNL1        0.0157
     24 C           1.7041    1.3782   30.8775 C.ar    1  UNL1        0.0994
     25 N           2.2733    1.6451   32.2394 N.ar    1  UNL1       -0.2097
     26 C           3.2164    0.6602   32.8643 C.ar    1  UNL1        0.2358
     27 C           3.5904   -0.5915   32.1272 C.ar    1  UNL1        0.1105
     28 CL          4.5335   -1.5764   32.7522 Cl      1  UNL1       -0.0774
     29 C           3.0212   -0.8584   30.7653 C.ar    1  UNL1        0.0150
     30 O           3.7856    0.9271   34.2262 O.3     1  UNL1       -0.4556
     31 C           5.0480    1.7247   34.3683 C.3     1  UNL1        0.2543
     32 C          -1.0785   -0.3642   28.7091 C.3     1  UNL1        0.0021
     33 C           0.1666    0.4149   28.4046 C.3     1  UNL1        0.0242
@<TRIPOS>BOND
     1    32    33    1
     2    22    33    1
     3    22    18    1
     4    18    19   am
     5    19    20    2
     6    19     1    1
     7     1     2   ar
     8     2     3   ar
     9     3    10    1
    10    10    11    2
    11    10    12   am
    12    12    13    1
    13    13    14    1
    14    14    15    1
    15    15    16    1
    16    16    17    1
    17     3     4   ar
    18     4     5   ar
    19     5     6    1
    20     6     7    1
    21     7     8    1
    22     8     9    1
    23    22    23    1
    24    23    24   ar
    25    24    25   ar
    26    25    26   ar
    27    26    30    1
    28    30    31    1
    29    26    27   ar
    30    27    28    1
    31    27    29   ar
    32     5     1   ar
    33    29    23   ar
    34    16    12    1
    35     9     4    1
    36    18    21    1
@<TRIPOS>MOLECULE
*****
 33 36 0 0 0
SMALL
GASTEIGER

@<TRIPOS>ATOM
      1 C           6.1798   -2.1376   28.1154 C.ar    1  UNL1        0.0690
      2 C           5.3881   -0.8656   28.0435 C.ar    1  UNL1        0.0275
      3 C           4.9111   -0.5377   29.4274 C.ar    1  UNL1        0.1142
      4 N           5.4080   -1.6071   30.3545 N.ar    1  UNL1       -0.3223
      5 C           6.1921   -2.5959   29.5436 C.ar    1  UNL1        0.0717
      6 C           6.8159   -3.7858   30.2106 C.3     1  UNL1        0.1857
      7 O           6.6557   -3.9869   31.6883 O.3     1  UNL1       -0.3454
      8 C           5.8716   -2.9981   32.4992 C.3     1  UNL1        0.1671
      9 C           5.2478   -1.8082   31.8323 C.3     1  UNL1        0.1379
     10 C           4.0827    0.6509   29.8159 C.2     1  UNL1        0.2649
     11 O           4.7364    1.8510   30.4341 O.2     1  UNL1       -0.2683
     12 N           2.6003    0.6393   29.5862 N.am    1  UNL1       -0.2765
     13 C           1.8107   -0.4832   28.9810 C.3     1  UNL1        0.0937
     14 C           0.3698   -0.0680   28.9422 C.3     1  UNL1        0.0232
     15 C           0.2689    1.3111   29.5234 C.3     1  UNL1        0.0216
     16 C           1.6475    1.7482   29.9215 C.3     1  UNL1        0.0758
     17 C           2.0097    3.0634   30.5452 C.3     1  UNL1        0.0215
     18 N           6.2617   -4.1001   26.4148 N.am    1  UNL1       -0.2986
     19 C           6.8428   -2.8298   26.9616 C.2     1  UNL1        0.2472
     20 O           8.0867   -2.2520   26.3546 O.2     1  UNL1       -0.2701
     21 H           5.4453   -4.4795   26.8132 H       1  UNL1        0.1500
     22 C           6.9247   -4.7924   25.2610 C.3     1  UNL1        0.0959
     23 C           6.6419   -4.3478   23.8566 C.ar    1  UNL1        0.0157
     24 C           7.5475   -4.7722   22.7388 C.ar    1  UNL1        0.0994
     25 N           7.2646   -4.3276   21.3344 N.ar    1  UNL1       -0.2097
     26 C           6.0761   -3.4585   21.0479 C.ar    1  UNL1        0.2358
     27 C           5.1705   -3.0341   22.1658 C.ar    1  UNL1        0.1105
     28 CL          3.9820   -2.1650   21.8792 Cl      1  UNL1       -0.0774
     29 C           5.4533   -3.4787   23.5702 C.ar    1  UNL1        0.0150
     30 O           5.7932   -3.0139   19.6435 O.3     1  UNL1       -0.4556
     31 C           4.9299   -3.8545   18.7502 C.3     1  UNL1        0.2543
     32 C           7.3933   -7.1580   26.2274 C.3     1  UNL1        0.0021
     33 C           7.8706   -5.9292   25.5117 C.3     1  UNL1        0.0242
@<TRIPOS>BOND
     1    32    33    1
     2    22    33    1
     3    22    18    1
     4    18    19   am
     5    19    20    2
     6    19     1    1
     7     1     2   ar
     8     2     3   ar
     9     3    10    1
    10    10    11    2
    11    10    12   am
    12    12    13    1
    13    13    14    1
    14    14    15    1
    15    15    16    1
    16    16    17    1
    17     3     4   ar
    18     4     5   ar
    19     5     6    1
    20     6     7    1
    21     7     8    1
    22     8     9    1
    23    22    23    1
    24    23    24   ar
    25    24    25   ar
    26    25    26   ar
    27    26    30    1
    28    30    31    1
    29    26    27   ar
    30    27    28    1
    31    27    29   ar
    32     5     1   ar
    33    29    23   ar
    34    16    12    1
    35     9     4    1
    36    18    21    1
@<TRIPOS>MOLECULE
*****
 33 36 0 0 0
SMALL
GASTEIGER

@<TRIPOS>ATOM
      1 C          -7.4597  -18.1789   22.4922 C.ar    1  UNL1        0.0690
      2 C          -8.8190  -18.7492   22.7701 C.ar    1  UNL1        0.0275
      3 C          -9.4435  -17.9434   23.8704 C.ar    1  UNL1        0.1142
      4 N          -8.4703  -16.8752   24.2725 N.ar    1  UNL1       -0.3223
      5 C          -7.2442  -17.0207   23.4207 C.ar    1  UNL1        0.0717
      6 C          -6.0900  -16.0798   23.6007 C.3     1  UNL1        0.1857
      7 O          -6.1619  -14.9934   24.6324 O.3     1  UNL1       -0.3454
      8 C          -7.3880  -14.8479   25.4842 C.3     1  UNL1        0.1671
      9 C          -8.5422  -15.7888   25.3042 C.3     1  UNL1        0.1379
     10 C         -10.8027  -18.1667   24.4643 C.2     1  UNL1        0.2649
     11 O         -10.9372  -18.5382   25.9113 O.2     1  UNL1       -0.2683
     12 N         -12.0276  -18.0185   23.6111 N.am    1  UNL1       -0.2765
     13 C         -12.0499  -17.6536   22.1564 C.3     1  UNL1        0.0937
     14 C         -13.4812  -17.6187   21.7091 C.3     1  UNL1        0.0232
     15 C         -14.3436  -17.9621   22.8874 C.3     1  UNL1        0.0216
     16 C         -13.4452  -18.2092   24.0629 C.3     1  UNL1        0.0758
     17 C         -13.8868  -18.5815   25.4472 C.3     1  UNL1        0.0215
     18 N          -5.4687  -19.7154   21.8399 N.am    1  UNL1       -0.2986
     19 C          -6.4867  -18.6790   21.4660 C.2     1  UNL1        0.2472
     20 O          -6.5316  -18.1428   20.0659 O.2     1  UNL1       -0.2701
     21 H          -5.4392  -20.0673   22.7589 H       1  UNL1        0.1500
     22 C          -4.4957  -20.2155   20.8136 C.3     1  UNL1        0.0959
     23 C          -3.2137  -19.4752   20.5722 C.ar    1  UNL1        0.0157
     24 C          -2.2102  -19.3326   21.6779 C.ar    1  UNL1        0.0994
     25 N          -0.9282  -18.5923   21.4364 N.ar    1  UNL1       -0.2097
     26 C          -0.6496  -17.9946   20.0892 C.ar    1  UNL1        0.2358
     27 C          -1.6531  -18.1372   18.9834 C.ar    1  UNL1        0.1105
     28 CL         -1.3744  -17.5395   17.6362 Cl      1  UNL1       -0.0774
     29 C          -2.9351  -18.8775   19.2249 C.ar    1  UNL1        0.0150
     30 O           0.6324  -17.2543   19.8477 O.3     1  UNL1       -0.4556
     31 C           1.8301  -17.5281   20.7082 C.3     1  UNL1        0.2543
     32 C          -6.2283  -21.8081   19.7130 C.3     1  UNL1        0.0021
     33 C          -4.8048  -21.4559   20.0289 C.3     1  UNL1        0.0242
@<TRIPOS>BOND
     1    32    33    1
     2    22    33    1
     3    22    18    1
     4    18    19   am
     5    19    20    2
     6    19     1    1
     7     1     2   ar
     8     2     3   ar
     9     3    10    1
    10    10    11    2
    11    10    12   am
    12    12    13    1
    13    13    14    1
    14    14    15    1
    15    15    16    1
    16    16    17    1
    17     3     4   ar
    18     4     5   ar
    19     5     6    1
    20     6     7    1
    21     7     8    1
    22     8     9    1
    23    22    23    1
    24    23    24   ar
    25    24    25   ar
    26    25    26   ar
    27    26    30    1
    28    30    31    1
    29    26    27   ar
    30    27    28    1
    31    27    29   ar
    32     5     1   ar
    33    29    23   ar
    34    16    12    1
    35     9     4    1
    36    18    21    1
