@<TRIPOS>MOLECULE
*****
 28 30 0 0 0
SMALL
GASTEIGER

@<TRIPOS>ATOM
      1 C           5.3098   -0.6063   34.6918 C.ar    1  UNL1        0.1057
      2 C           4.2925   -1.5491   34.1209 C.ar    1  UNL1        0.0183
      3 C           4.6785   -2.4926   33.0206 C.ar    1  UNL1        0.0013
      4 C           6.0819   -2.4933   32.4911 C.ar    1  UNL1        0.0001
      5 C           7.0993   -1.5505   33.0620 C.ar    1  UNL1        0.0013
      6 C           6.7133   -0.6070   34.1623 C.ar    1  UNL1        0.0183
      7 C           6.4679   -3.4368   31.3907 C.ar    1  UNL1       -0.0000
      8 C           6.8835   -4.8404   31.7177 C.ar    1  UNL1       -0.0003
      9 C           7.2695   -5.7839   30.6173 C.ar    1  UNL1       -0.0042
     10 C           7.2399   -5.3238   29.1900 C.ar    1  UNL1       -0.0208
     11 C           6.8243   -3.9201   28.8630 C.ar    1  UNL1       -0.0042
     12 C           6.4383   -2.9766   29.9634 C.ar    1  UNL1       -0.0003
     13 C           7.6259   -6.2673   28.0896 C.3     1  UNL1        0.0437
     14 C           6.8050   -6.3335   26.8360 C.3     1  UNL1        0.0768
     15 N           7.4815   -6.4242   25.5003 N.3     1  UNL1       -0.2737
     16 C           8.1823   -7.6295   24.9470 C.3     1  UNL1        0.0721
     17 C           8.7100   -7.2757   23.5881 C.3     1  UNL1        0.0187
     18 C           8.3354   -5.8518   23.3017 C.3     1  UNL1        0.0174
     19 C           7.5761   -5.3254   24.4835 C.3     1  UNL1        0.0576
     20 C           7.0108   -3.9432   24.6238 C.3     1  UNL1        0.0173
     21 S           4.9238    0.3372   35.7922 S.O2    1  UNL1        0.0087
     22 O           5.7531   -0.4530   36.7606 O.2     1  UNL1       -0.1686
     23 O           4.0945    1.1274   34.8237 O.2     1  UNL1       -0.1686
     24 C           4.5378    1.2807   36.8925 C.3     1  UNL1        0.1585
     25 C           3.2097    1.1347   37.5742 C.3     1  UNL1        0.0578
     26 C           2.8917    1.9645   38.7826 C.3     1  UNL1        0.1441
     27 C           0.4431    2.1358   39.6345 C.3     1  UNL1        0.1741
     28 O           1.8118    1.5291   39.7284 O.3     1  UNL1       -0.3510
@<TRIPOS>BOND
     1    27    28    1
     2    28    26    1
     3    26    25    1
     4    25    24    1
     5    24    21    1
     6    21    22    2
     7    21    23    2
     8    21     1    1
     9     1     2   ar
    10     2     3   ar
    11     3     4   ar
    12     4     7    1
    13     7     8   ar
    14     8     9   ar
    15     9    10   ar
    16    10    13    1
    17    13    14    1
    18    14    15    1
    19    15    16    1
    20    16    17    1
    21    17    18    1
    22    18    19    1
    23    19    20    1
    24    10    11   ar
    25    11    12   ar
    26     4     5   ar
    27     5     6   ar
    28     6     1   ar
    29    12     7   ar
    30    19    15    1
@<TRIPOS>MOLECULE
*****
 28 30 0 0 0
SMALL
GASTEIGER

@<TRIPOS>ATOM
      1 C           1.6279    1.5934   26.0311 C.ar    1  UNL1        0.1057
      2 C           0.8869    1.7257   24.7336 C.ar    1  UNL1        0.0183
      3 C           1.2972    0.9029   23.5484 C.ar    1  UNL1        0.0013
      4 C           2.4483   -0.0521   23.6606 C.ar    1  UNL1        0.0001
      5 C           3.1892   -0.1844   24.9581 C.ar    1  UNL1        0.0013
      6 C           2.7790    0.6384   26.1433 C.ar    1  UNL1        0.0183
      7 C           2.8585   -0.8749   22.4754 C.ar    1  UNL1       -0.0000
      8 C           3.9316   -1.9132   22.6184 C.ar    1  UNL1       -0.0003
      9 C           4.3418   -2.7359   21.4332 C.ar    1  UNL1       -0.0042
     10 C           3.6790   -2.5204   20.1050 C.ar    1  UNL1       -0.0208
     11 C           2.6059   -1.4822   19.9620 C.ar    1  UNL1       -0.0042
     12 C           2.1957   -0.6594   21.1472 C.ar    1  UNL1       -0.0003
     13 C           4.0892   -3.3432   18.9197 C.3     1  UNL1        0.0437
     14 C           5.4263   -3.1194   18.2780 C.3     1  UNL1        0.0768
     15 N           5.8888   -1.7250   17.9750 N.3     1  UNL1       -0.2737
     16 C           7.2160   -1.1352   18.3502 C.3     1  UNL1        0.0721
     17 C           7.2528    0.2787   17.8507 C.3     1  UNL1        0.0187
     18 C           5.9484    0.5628   17.1668 C.3     1  UNL1        0.0174
     19 C           5.1053   -0.6755   17.2436 C.3     1  UNL1        0.0576
     20 C           3.7219   -0.8362   16.6869 C.3     1  UNL1        0.0173
     21 S           1.2177    2.4162   27.2163 S.O2    1  UNL1        0.0087
     22 O          -0.2184    2.3028   26.7980 O.2     1  UNL1       -0.1686
     23 O           2.6537    2.5296   27.6346 O.2     1  UNL1       -0.1686
     24 C           0.8074    3.2390   28.4015 C.3     1  UNL1        0.1585
     25 C           0.8778    2.6542   29.7810 C.3     1  UNL1        0.0578
     26 C           0.5452    1.2081   30.0005 C.3     1  UNL1        0.1441
     27 C          -1.1491   -0.4251   28.8996 C.3     1  UNL1        0.1741
     28 O          -0.8635    0.7264   29.8175 O.3     1  UNL1       -0.3510
@<TRIPOS>BOND
     1    27    28    1
     2    28    26    1
     3    26    25    1
     4    25    24    1
     5    24    21    1
     6    21    22    2
     7    21    23    2
     8    21     1    1
     9     1     2   ar
    10     2     3   ar
    11     3     4   ar
    12     4     7    1
    13     7     8   ar
    14     8     9   ar
    15     9    10   ar
    16    10    13    1
    17    13    14    1
    18    14    15    1
    19    15    16    1
    20    16    17    1
    21    17    18    1
    22    18    19    1
    23    19    20    1
    24    10    11   ar
    25    11    12   ar
    26     4     5   ar
    27     5     6   ar
    28     6     1   ar
    29    12     7   ar
    30    19    15    1
@<TRIPOS>MOLECULE
*****
 28 30 0 0 0
SMALL
GASTEIGER

@<TRIPOS>ATOM
      1 C           2.9163   -0.7415   22.0685 C.ar    1  UNL1        0.1057
      2 C           1.8485    0.0118   21.3321 C.ar    1  UNL1        0.0183
      3 C           0.9047    0.9026   22.0842 C.ar    1  UNL1        0.0013
      4 C           1.0286    1.0401   23.5727 C.ar    1  UNL1        0.0001
      5 C           2.0964    0.2869   24.3091 C.ar    1  UNL1        0.0013
      6 C           3.0402   -0.6040   23.5570 C.ar    1  UNL1        0.0183
      7 C           0.0848    1.9309   24.3248 C.ar    1  UNL1       -0.0000
      8 C          -0.4549    3.1705   23.6751 C.ar    1  UNL1       -0.0003
      9 C          -1.3988    4.0613   24.4272 C.ar    1  UNL1       -0.0042
     10 C          -1.8029    3.7125   25.8289 C.ar    1  UNL1       -0.0208
     11 C          -1.2633    2.4730   26.4786 C.ar    1  UNL1       -0.0042
     12 C          -0.3194    1.5821   25.7265 C.ar    1  UNL1       -0.0003
     13 C          -2.7468    4.6033   26.5810 C.3     1  UNL1        0.0437
     14 C          -4.1494    4.1482   26.8557 C.3     1  UNL1        0.0768
     15 N          -5.2803    4.6498   26.0075 N.3     1  UNL1       -0.2737
     16 C          -6.2682    5.7108   26.3929 C.3     1  UNL1        0.0721
     17 C          -7.2204    5.8952   25.2487 C.3     1  UNL1        0.0187
     18 C          -6.8210    4.9483   24.1561 C.3     1  UNL1        0.0174
     19 C          -5.6220    4.1785   24.6250 C.3     1  UNL1        0.0576
     20 C          -4.8928    3.1229   23.8481 C.3     1  UNL1        0.0173
     21 S           3.8601   -1.6323   21.3165 S.O2    1  UNL1        0.0087
     22 O           4.8756   -1.4795   22.4099 O.2     1  UNL1       -0.1686
     23 O           2.8447   -1.7851   20.2231 O.2     1  UNL1       -0.1686
     24 C           4.8040   -2.5231   20.5644 C.3     1  UNL1        0.1585
     25 C           4.4199   -3.0538   19.2150 C.3     1  UNL1        0.0578
     26 C           5.2682   -2.7430   18.0176 C.3     1  UNL1        0.1441
     27 C           3.8580   -0.8763   16.8876 C.3     1  UNL1        0.1741
     28 O           5.1816   -1.3942   17.3668 O.3     1  UNL1       -0.3510
@<TRIPOS>BOND
     1    27    28    1
     2    28    26    1
     3    26    25    1
     4    25    24    1
     5    24    21    1
     6    21    22    2
     7    21    23    2
     8    21     1    1
     9     1     2   ar
    10     2     3   ar
    11     3     4   ar
    12     4     7    1
    13     7     8   ar
    14     8     9   ar
    15     9    10   ar
    16    10    13    1
    17    13    14    1
    18    14    15    1
    19    15    16    1
    20    16    17    1
    21    17    18    1
    22    18    19    1
    23    19    20    1
    24    10    11   ar
    25    11    12   ar
    26     4     5   ar
    27     5     6   ar
    28     6     1   ar
    29    12     7   ar
    30    19    15    1
@<TRIPOS>MOLECULE
*****
 28 30 0 0 0
SMALL
GASTEIGER

@<TRIPOS>ATOM
      1 C           2.9112   -0.6749   20.3471 C.ar    1  UNL1        0.1057
      2 C           1.4177   -0.6462   20.2108 C.ar    1  UNL1        0.0183
      3 C           0.5907    0.1398   21.1847 C.ar    1  UNL1        0.0013
      4 C           1.2572    0.8970   22.2947 C.ar    1  UNL1        0.0001
      5 C           2.7507    0.8684   22.4310 C.ar    1  UNL1        0.0013
      6 C           3.5777    0.0824   21.4572 C.ar    1  UNL1        0.0183
      7 C           0.4302    1.6830   23.2685 C.ar    1  UNL1       -0.0000
      8 C          -0.2613    2.9376   22.8239 C.ar    1  UNL1       -0.0003
      9 C          -1.0883    3.7236   23.7977 C.ar    1  UNL1       -0.0042
     10 C          -1.2238    3.2549   25.2162 C.ar    1  UNL1       -0.0208
     11 C          -0.5323    2.0003   25.6608 C.ar    1  UNL1       -0.0042
     12 C           0.2947    1.2144   24.6870 C.ar    1  UNL1       -0.0003
     13 C          -2.0508    4.0409   26.1900 C.3     1  UNL1        0.0437
     14 C          -3.4174    3.5571   26.5751 C.3     1  UNL1        0.0768
     15 N          -4.6360    4.2644   26.0605 N.3     1  UNL1       -0.2737
     16 C          -5.4327    5.2989   26.7988 C.3     1  UNL1        0.0721
     17 C          -6.5610    5.7352   25.9119 C.3     1  UNL1        0.0187
     18 C          -6.4616    4.9704   24.6253 C.3     1  UNL1        0.0174
     19 C          -5.2719    4.0613   24.7171 C.3     1  UNL1        0.0576
     20 C          -4.8009    3.1154   23.6527 C.3     1  UNL1        0.0173
     21 S           3.7382   -1.4608   19.3733 S.O2    1  UNL1        0.0087
     22 O           4.6609   -0.2893   19.2113 O.2     1  UNL1       -0.1686
     23 O           2.8156   -2.6324   19.5353 O.2     1  UNL1       -0.1686
     24 C           4.5653   -2.2468   18.3995 C.3     1  UNL1        0.1585
     25 C           5.1429   -3.5708   18.8034 C.3     1  UNL1        0.0578
     26 C           5.9886   -3.6750   20.0379 C.3     1  UNL1        0.1441
     27 C           4.7093   -3.6784   22.2992 C.3     1  UNL1        0.1741
     28 O           5.4751   -4.4127   21.2388 O.3     1  UNL1       -0.3510
@<TRIPOS>BOND
     1    27    28    1
     2    28    26    1
     3    26    25    1
     4    25    24    1
     5    24    21    1
     6    21    22    2
     7    21    23    2
     8    21     1    1
     9     1     2   ar
    10     2     3   ar
    11     3     4   ar
    12     4     7    1
    13     7     8   ar
    14     8     9   ar
    15     9    10   ar
    16    10    13    1
    17    13    14    1
    18    14    15    1
    19    15    16    1
    20    16    17    1
    21    17    18    1
    22    18    19    1
    23    19    20    1
    24    10    11   ar
    25    11    12   ar
    26     4     5   ar
    27     5     6   ar
    28     6     1   ar
    29    12     7   ar
    30    19    15    1
@<TRIPOS>MOLECULE
*****
 28 30 0 0 0
SMALL
GASTEIGER

@<TRIPOS>ATOM
      1 C           6.9934   -4.0390   25.1711 C.ar    1  UNL1        0.1057
      2 C           6.1496   -2.9001   25.6618 C.ar    1  UNL1        0.0183
      3 C           5.1653   -2.2441   24.7393 C.ar    1  UNL1        0.0013
      4 C           5.0249   -2.7270   23.3262 C.ar    1  UNL1        0.0001
      5 C           5.8687   -3.8659   22.8355 C.ar    1  UNL1        0.0013
      6 C           6.8529   -4.5219   23.7579 C.ar    1  UNL1        0.0183
      7 C           4.0406   -2.0710   22.4038 C.ar    1  UNL1       -0.0000
      8 C           3.8517   -2.5969   21.0117 C.ar    1  UNL1       -0.0003
      9 C           2.8675   -1.9408   20.0893 C.ar    1  UNL1       -0.0042
     10 C           2.0721   -0.7590   20.5589 C.ar    1  UNL1       -0.0208
     11 C           2.2610   -0.2331   21.9509 C.ar    1  UNL1       -0.0042
     12 C           3.2453   -0.8891   22.8733 C.ar    1  UNL1       -0.0003
     13 C           1.0878   -0.1030   19.6365 C.3     1  UNL1        0.0437
     14 C           1.5753    0.6807   18.4540 C.3     1  UNL1        0.0768
     15 N           3.0140    1.0973   18.3718 N.3     1  UNL1       -0.2737
     16 C           3.6274    2.2872   19.0484 C.3     1  UNL1        0.0721
     17 C           5.0844    2.3224   18.6933 C.3     1  UNL1        0.0187
     18 C           5.3714    1.1542   17.7973 C.3     1  UNL1        0.0174
     19 C           4.0918    0.3970   17.5985 C.3     1  UNL1        0.0576
     20 C           3.9203   -0.8427   16.7718 C.3     1  UNL1        0.0173
     21 S           7.9776   -4.6951   26.0935 S.O2    1  UNL1        0.0087
     22 O           7.7902   -5.9950   25.3689 O.2     1  UNL1       -0.1686
     23 O           8.1650   -3.3951   26.8180 O.2     1  UNL1       -0.1686
     24 C           8.9619   -5.3511   27.0159 C.3     1  UNL1        0.1585
     25 C           8.5523   -6.5487   27.8208 C.3     1  UNL1        0.0578
     26 C           8.2215   -6.3970   29.2760 C.3     1  UNL1        0.1441
     27 C           6.7948   -4.4155   30.1640 C.3     1  UNL1        0.1741
     28 O           6.8933   -5.8347   29.6885 O.3     1  UNL1       -0.3510
@<TRIPOS>BOND
     1    27    28    1
     2    28    26    1
     3    26    25    1
     4    25    24    1
     5    24    21    1
     6    21    22    2
     7    21    23    2
     8    21     1    1
     9     1     2   ar
    10     2     3   ar
    11     3     4   ar
    12     4     7    1
    13     7     8   ar
    14     8     9   ar
    15     9    10   ar
    16    10    13    1
    17    13    14    1
    18    14    15    1
    19    15    16    1
    20    16    17    1
    21    17    18    1
    22    18    19    1
    23    19    20    1
    24    10    11   ar
    25    11    12   ar
    26     4     5   ar
    27     5     6   ar
    28     6     1   ar
    29    12     7   ar
    30    19    15    1
@<TRIPOS>MOLECULE
*****
 28 30 0 0 0
SMALL
GASTEIGER

@<TRIPOS>ATOM
      1 C           2.7510    0.3196   26.6365 C.ar    1  UNL1        0.1057
      2 C           3.6134   -0.7022   25.9567 C.ar    1  UNL1        0.0183
      3 C           3.6660   -0.7623   24.4588 C.ar    1  UNL1        0.0013
      4 C           2.8561    0.1994   23.6408 C.ar    1  UNL1        0.0001
      5 C           1.9937    1.2212   24.3206 C.ar    1  UNL1        0.0013
      6 C           1.9412    1.2813   25.8184 C.ar    1  UNL1        0.0183
      7 C           2.9086    0.1393   22.1429 C.ar    1  UNL1       -0.0000
      8 C           1.7844   -0.4937   21.3778 C.ar    1  UNL1       -0.0003
      9 C           1.8369   -0.5538   19.8799 C.ar    1  UNL1       -0.0042
     10 C           3.0137    0.0190   19.1471 C.ar    1  UNL1       -0.0208
     11 C           4.1379    0.6520   19.9122 C.ar    1  UNL1       -0.0042
     12 C           4.0854    0.7121   21.4101 C.ar    1  UNL1       -0.0003
     13 C           3.0662   -0.0411   17.6493 C.3     1  UNL1        0.0437
     14 C           3.9855   -1.0120   16.9694 C.3     1  UNL1        0.0768
     15 N           5.1043   -1.6498   17.7384 N.3     1  UNL1       -0.2737
     16 C           6.5360   -1.2023   17.7465 C.3     1  UNL1        0.0721
     17 C           7.3044   -2.1231   18.6474 C.3     1  UNL1        0.0187
     18 C           6.3477   -3.1397   19.1961 C.3     1  UNL1        0.0174
     19 C           4.9879   -2.8473   18.6344 C.3     1  UNL1        0.0576
     20 C           3.7323   -3.6170   18.9186 C.3     1  UNL1        0.0173
     21 S           2.6985    0.3797   28.1344 S.O2    1  UNL1        0.0087
     22 O           2.9865    1.8510   28.0854 O.2     1  UNL1       -0.1686
     23 O           2.4105   -1.0916   28.1833 O.2     1  UNL1       -0.1686
     24 C           2.6460    0.4398   29.6323 C.3     1  UNL1        0.1585
     25 C           1.9560    1.5845   30.3132 C.3     1  UNL1        0.0578
     26 C           0.4580    1.6262   30.3773 C.3     1  UNL1        0.1441
     27 C          -1.0509    0.5219   28.5734 C.3     1  UNL1        0.1741
     28 O          -0.3462    0.4550   29.8959 O.3     1  UNL1       -0.3510
@<TRIPOS>BOND
     1    27    28    1
     2    28    26    1
     3    26    25    1
     4    25    24    1
     5    24    21    1
     6    21    22    2
     7    21    23    2
     8    21     1    1
     9     1     2   ar
    10     2     3   ar
    11     3     4   ar
    12     4     7    1
    13     7     8   ar
    14     8     9   ar
    15     9    10   ar
    16    10    13    1
    17    13    14    1
    18    14    15    1
    19    15    16    1
    20    16    17    1
    21    17    18    1
    22    18    19    1
    23    19    20    1
    24    10    11   ar
    25    11    12   ar
    26     4     5   ar
    27     5     6   ar
    28     6     1   ar
    29    12     7   ar
    30    19    15    1
@<TRIPOS>MOLECULE
*****
 28 30 0 0 0
SMALL
GASTEIGER

@<TRIPOS>ATOM
      1 C           7.6412   -5.2115   27.7319 C.ar    1  UNL1        0.1057
      2 C           7.0167   -3.8809   27.4329 C.ar    1  UNL1        0.0183
      3 C           6.6415   -3.5281   26.0241 C.ar    1  UNL1        0.0013
      4 C           6.8908   -4.5059   24.9143 C.ar    1  UNL1        0.0001
      5 C           7.5153   -5.8365   25.2133 C.ar    1  UNL1        0.0013
      6 C           7.8905   -6.1893   26.6221 C.ar    1  UNL1        0.0183
      7 C           6.5156   -4.1531   23.5055 C.ar    1  UNL1       -0.0000
      8 C           5.1292   -3.6708   23.1970 C.ar    1  UNL1       -0.0003
      9 C           4.7540   -3.3180   21.7882 C.ar    1  UNL1       -0.0042
     10 C           5.7652   -3.4474   20.6879 C.ar    1  UNL1       -0.0208
     11 C           7.1516   -3.9297   20.9964 C.ar    1  UNL1       -0.0042
     12 C           7.5268   -4.2825   22.4052 C.ar    1  UNL1       -0.0003
     13 C           5.3900   -3.0946   19.2791 C.3     1  UNL1        0.0437
     14 C           3.9448   -2.9834   18.8933 C.3     1  UNL1        0.0768
     15 N           3.2448   -1.6596   18.9810 N.3     1  UNL1       -0.2737
     16 C           2.2923   -1.2357   20.0594 C.3     1  UNL1        0.0721
     17 C           1.8333    0.1586   19.7506 C.3     1  UNL1        0.0187
     18 C           2.5021    0.5964   18.4814 C.3     1  UNL1        0.0174
     19 C           3.3746   -0.5273   18.0057 C.3     1  UNL1        0.0576
     20 C           4.2270   -0.5200   16.7716 C.3     1  UNL1        0.0173
     21 S           8.0164   -5.5643   29.1408 S.O2    1  UNL1        0.0087
     22 O           6.5648   -5.6114   29.5156 O.2     1  UNL1       -0.1686
     23 O           9.4681   -5.5172   28.7659 O.2     1  UNL1       -0.1686
     24 C           8.3916   -5.9171   30.5496 C.3     1  UNL1        0.1585
     25 C           9.0790   -4.9058   31.4183 C.3     1  UNL1        0.0578
     26 C           8.3972   -3.6100   31.7443 C.3     1  UNL1        0.1441
     27 C           5.9680   -2.7093   31.5499 C.3     1  UNL1        0.1741
     28 O           6.9710   -3.6091   32.2090 O.3     1  UNL1       -0.3510
@<TRIPOS>BOND
     1    27    28    1
     2    28    26    1
     3    26    25    1
     4    25    24    1
     5    24    21    1
     6    21    22    2
     7    21    23    2
     8    21     1    1
     9     1     2   ar
    10     2     3   ar
    11     3     4   ar
    12     4     7    1
    13     7     8   ar
    14     8     9   ar
    15     9    10   ar
    16    10    13    1
    17    13    14    1
    18    14    15    1
    19    15    16    1
    20    16    17    1
    21    17    18    1
    22    18    19    1
    23    19    20    1
    24    10    11   ar
    25    11    12   ar
    26     4     5   ar
    27     5     6   ar
    28     6     1   ar
    29    12     7   ar
    30    19    15    1
@<TRIPOS>MOLECULE
*****
 28 30 0 0 0
SMALL
GASTEIGER

@<TRIPOS>ATOM
      1 C           3.8683    0.5379   18.2277 C.ar    1  UNL1        0.1057
      2 C           3.8306    2.0369   18.2683 C.ar    1  UNL1        0.0183
      3 C           2.5333    2.7480   18.5158 C.ar    1  UNL1        0.0013
      4 C           1.2737    1.9603   18.7227 C.ar    1  UNL1        0.0001
      5 C           1.3115    0.4613   18.6821 C.ar    1  UNL1        0.0013
      6 C           2.6088   -0.2499   18.4347 C.ar    1  UNL1        0.0183
      7 C          -0.0236    2.6714   18.9701 C.ar    1  UNL1       -0.0000
      8 C          -0.7438    2.4862   20.2728 C.ar    1  UNL1       -0.0003
      9 C          -2.0411    3.1974   20.5202 C.ar    1  UNL1       -0.0042
     10 C          -2.6182    4.0938   19.4651 C.ar    1  UNL1       -0.0208
     11 C          -1.8979    4.2790   18.1624 C.ar    1  UNL1       -0.0042
     12 C          -0.6006    3.5678   17.9150 C.ar    1  UNL1       -0.0003
     13 C          -3.9155    4.8050   19.7125 C.3     1  UNL1        0.0437
     14 C          -5.1435    4.0219   20.0711 C.3     1  UNL1        0.0768
     15 N          -5.9529    4.4055   21.2743 N.3     1  UNL1       -0.2737
     16 C          -7.0873    5.3866   21.2977 C.3     1  UNL1        0.0721
     17 C          -7.6054    5.4628   22.7033 C.3     1  UNL1        0.0187
     18 C          -6.7913    4.5287   23.5487 C.3     1  UNL1        0.0174
     19 C          -5.7699    3.8752   22.6656 C.3     1  UNL1        0.0576
     20 C          -4.7456    2.8684   23.0978 C.3     1  UNL1        0.0173
     21 S           5.1656   -0.1733   17.9803 S.O2    1  UNL1        0.0087
     22 O           5.7254    0.4079   19.2448 O.2     1  UNL1       -0.1686
     23 O           4.6059   -0.7544   16.7158 O.2     1  UNL1       -0.1686
     24 C           6.4630   -0.8844   17.7328 C.3     1  UNL1        0.1585
     25 C           6.5778   -2.3538   18.0114 C.3     1  UNL1        0.0578
     26 C           5.6604   -3.0028   19.0050 C.3     1  UNL1        0.1441
     27 C           3.4133   -4.2987   19.1502 C.3     1  UNL1        0.1741
     28 O           4.7959   -4.1550   18.5866 O.3     1  UNL1       -0.3510
@<TRIPOS>BOND
     1    27    28    1
     2    28    26    1
     3    26    25    1
     4    25    24    1
     5    24    21    1
     6    21    22    2
     7    21    23    2
     8    21     1    1
     9     1     2   ar
    10     2     3   ar
    11     3     4   ar
    12     4     7    1
    13     7     8   ar
    14     8     9   ar
    15     9    10   ar
    16    10    13    1
    17    13    14    1
    18    14    15    1
    19    15    16    1
    20    16    17    1
    21    17    18    1
    22    18    19    1
    23    19    20    1
    24    10    11   ar
    25    11    12   ar
    26     4     5   ar
    27     5     6   ar
    28     6     1   ar
    29    12     7   ar
    30    19    15    1
@<TRIPOS>MOLECULE
*****
 28 30 0 0 0
SMALL
GASTEIGER

@<TRIPOS>ATOM
      1 C           7.0243   -4.1625   22.2116 C.ar    1  UNL1        0.1057
      2 C           5.7681   -3.7910   22.9423 C.ar    1  UNL1        0.0183
      3 C           4.7498   -2.9089   22.2827 C.ar    1  UNL1        0.0013
      4 C           4.9878   -2.3982   20.8926 C.ar    1  UNL1        0.0001
      5 C           6.2440   -2.7697   20.1620 C.ar    1  UNL1        0.0013
      6 C           7.2622   -3.6519   20.8215 C.ar    1  UNL1        0.0183
      7 C           3.9695   -1.5160   20.2331 C.ar    1  UNL1       -0.0000
      8 C           4.2347   -0.9560   18.8671 C.ar    1  UNL1       -0.0003
      9 C           3.2164   -0.0738   18.2076 C.ar    1  UNL1       -0.0042
     10 C           1.9330    0.2483   18.9140 C.ar    1  UNL1       -0.0208
     11 C           1.6679   -0.3118   20.2800 C.ar    1  UNL1       -0.0042
     12 C           2.6862   -1.1939   20.9396 C.ar    1  UNL1       -0.0003
     13 C           0.9148    1.1305   18.2545 C.3     1  UNL1        0.0437
     14 C           0.7939    2.5694   18.6602 C.3     1  UNL1        0.0768
     15 N          -0.5554    3.1547   18.9551 N.3     1  UNL1       -0.2737
     16 C          -1.3018    3.0409   20.2512 C.3     1  UNL1        0.0721
     17 C          -2.6029    3.7724   20.1027 C.3     1  UNL1        0.0187
     18 C          -2.6606    4.3384   18.7148 C.3     1  UNL1        0.0174
     19 C          -1.3953    3.9567   18.0054 C.3     1  UNL1        0.0576
     20 C          -1.0333    4.3140   16.5944 C.3     1  UNL1        0.0173
     21 S           8.0425   -5.0447   22.8711 S.O2    1  UNL1        0.0087
     22 O           7.8112   -4.3379   24.1738 O.2     1  UNL1       -0.1686
     23 O           8.2739   -5.7515   21.5685 O.2     1  UNL1       -0.1686
     24 C           9.0608   -5.9269   23.5307 C.3     1  UNL1        0.1585
     25 C           8.7086   -7.3399   23.8900 C.3     1  UNL1        0.0578
     26 C           8.5250   -7.7245   25.3282 C.3     1  UNL1        0.1441
     27 C           6.7703   -6.4316   26.7422 C.3     1  UNL1        0.1741
     28 O           7.1655   -7.6473   25.9575 O.3     1  UNL1       -0.3510
@<TRIPOS>BOND
     1    27    28    1
     2    28    26    1
     3    26    25    1
     4    25    24    1
     5    24    21    1
     6    21    22    2
     7    21    23    2
     8    21     1    1
     9     1     2   ar
    10     2     3   ar
    11     3     4   ar
    12     4     7    1
    13     7     8   ar
    14     8     9   ar
    15     9    10   ar
    16    10    13    1
    17    13    14    1
    18    14    15    1
    19    15    16    1
    20    16    17    1
    21    17    18    1
    22    18    19    1
    23    19    20    1
    24    10    11   ar
    25    11    12   ar
    26     4     5   ar
    27     5     6   ar
    28     6     1   ar
    29    12     7   ar
    30    19    15    1
