@<TRIPOS>MOLECULE
*****
 36 38 0 0 0
SMALL
GASTEIGER

@<TRIPOS>ATOM
      1 N          -9.5852  -18.2099   20.4837 N.3     1  UNL1       -0.1454
      2 S          -9.3048  -17.6367   21.8411 S.O2    1  UNL1        0.0639
      3 O         -10.2565  -18.6212   22.4535 O.2     1  UNL1       -0.1528
      4 O          -8.3531  -16.6521   21.2288 O.2     1  UNL1       -0.1528
      5 C          -9.0244  -17.0634   23.1986 C.ar    1  UNL1        0.1224
      6 C          -8.2442  -15.7889   23.3280 C.ar    1  UNL1        0.0230
      7 C          -7.9638  -15.2156   24.6855 C.ar    1  UNL1        0.0385
      8 C          -8.4635  -15.9169   25.9136 C.ar    1  UNL1        0.1444
      9 C          -9.2437  -17.1916   25.7843 C.ar    1  UNL1        0.0385
     10 C          -9.5242  -17.7648   24.4268 C.ar    1  UNL1        0.0230
     11 O          -8.1831  -15.3437   27.2711 O.3     1  UNL1       -0.4236
     12 C          -6.8248  -14.7902   27.5855 C.3     1  UNL1        0.5087
     13 F          -5.6074  -15.3742   26.9322 F       1  UNL1       -0.1550
     14 F          -6.6840  -13.6529   28.5532 F       1  UNL1       -0.1550
     15 C         -10.8902  -17.9213   19.8026 C.3     1  UNL1        0.1375
     16 O         -10.7277  -15.3869   19.2543 O.co2   1  UNL1       -0.5477
     17 C         -11.4744  -16.5408   19.8552 C.2     1  UNL1        0.0683
     18 O         -12.8053  -16.3141   20.5087 O.co2   1  UNL1       -0.5477
     19 C          -8.5607  -19.0717   19.8072 C.3     1  UNL1        0.1225
     20 C          -7.2954  -19.4366   20.5254 C.ar    1  UNL1       -0.0045
     21 C          -7.3339  -20.4123   21.6641 C.ar    1  UNL1       -0.0029
     22 C          -6.0686  -20.7772   22.3823 C.ar    1  UNL1       -0.0003
     23 C          -4.7647  -20.1664   21.9618 C.ar    1  UNL1        0.0001
     24 C          -4.7261  -19.1908   20.8231 C.ar    1  UNL1        0.0026
     25 C          -5.9915  -18.8259   20.1049 C.ar    1  UNL1       -0.0028
     26 C          -3.4222  -18.5800   20.4025 C.ar    1  UNL1        0.0343
     27 C          -2.9332  -18.7512   18.9949 C.ar    1  UNL1        0.0030
     28 C          -1.6294  -18.1404   18.5744 C.ar    1  UNL1        0.0002
     29 C          -0.8145  -17.3584   19.5616 C.ar    1  UNL1        0.0031
     30 C          -1.3035  -17.1872   20.9692 C.ar    1  UNL1        0.0372
     31 C          -2.6074  -17.7980   21.3897 C.ar    1  UNL1        0.1467
     32 O          -3.0964  -17.6268   22.7974 O.3     1  UNL1       -0.4045
     33 C          -3.9617  -16.4543   23.1534 C.3     1  UNL1        0.5753
     34 F          -4.8269  -15.2818   23.5094 F       1  UNL1       -0.1328
     35 F          -3.0090  -15.5366   22.4462 F       1  UNL1       -0.1328
     36 F          -4.9143  -17.3721   23.8606 F       1  UNL1       -0.1328
@<TRIPOS>UNITY_ATOM_ATTR
16 1
charge -1
@<TRIPOS>BOND
     1    16    17   ar
     2    17    18   ar
     3    17    15    1
     4    15     1    1
     5     1    19    1
     6    19    20    1
     7    20    21   ar
     8    21    22   ar
     9    22    23   ar
    10    23    24   ar
    11    24    26    1
    12    26    27   ar
    13    27    28   ar
    14    28    29   ar
    15    29    30   ar
    16    30    31   ar
    17    31    32    1
    18    32    33    1
    19    33    34    1
    20    33    35    1
    21    33    36    1
    22    24    25   ar
    23     1     2    1
    24     2     3    2
    25     2     4    2
    26     2     5    1
    27     5     6   ar
    28     6     7   ar
    29     7     8   ar
    30     8    11    1
    31    11    12    1
    32    12    13    1
    33    12    14    1
    34     8     9   ar
    35     9    10   ar
    36    25    20   ar
    37    10     5   ar
    38    31    26   ar
@<TRIPOS>MOLECULE
*****
 36 38 0 0 0
SMALL
GASTEIGER

@<TRIPOS>ATOM
      1 N          -7.8701  -19.7826   20.0949 N.3     1  UNL1       -0.1454
      2 S          -6.3855  -19.5841   20.1755 S.O2    1  UNL1        0.0639
      3 O          -6.1904  -21.0700   20.2401 O.2     1  UNL1       -0.1528
      4 O          -6.5806  -18.0983   20.1109 O.2     1  UNL1       -0.1528
      5 C          -4.9009  -19.3857   20.2561 C.ar    1  UNL1        0.1224
      6 C          -4.1416  -19.8818   21.4508 C.ar    1  UNL1        0.0230
      7 C          -2.6570  -19.6834   21.5314 C.ar    1  UNL1        0.0385
      8 C          -1.9316  -18.9889   20.4172 C.ar    1  UNL1        0.1444
      9 C          -2.6908  -18.4928   19.2224 C.ar    1  UNL1        0.0385
     10 C          -4.1755  -18.6912   19.1418 C.ar    1  UNL1        0.0230
     11 O          -0.4470  -18.7905   20.4978 O.3     1  UNL1       -0.4236
     12 C           0.1319  -17.4104   20.3954 C.3     1  UNL1        0.5087
     13 F           1.6192  -17.2231   20.3404 F       1  UNL1       -0.1550
     14 F          -0.7764  -16.2177   20.3481 F       1  UNL1       -0.1550
     15 C          -8.5544  -19.7903   18.7601 C.3     1  UNL1        0.1375
     16 O          -7.9260  -22.2885   18.4230 O.co2   1  UNL1       -0.5477
     17 C          -8.6972  -21.0742   17.9979 C.2     1  UNL1        0.0683
     18 O          -9.6111  -21.1439   16.8105 O.co2   1  UNL1       -0.5477
     19 C          -8.6705  -19.9733   21.3491 C.3     1  UNL1        0.1225
     20 C          -9.2081  -18.7814   22.0843 C.ar    1  UNL1       -0.0045
     21 C         -10.5254  -18.1853   21.6848 C.ar    1  UNL1       -0.0029
     22 C         -11.0630  -16.9935   22.4199 C.ar    1  UNL1       -0.0003
     23 C         -10.2834  -16.3977   23.5546 C.ar    1  UNL1        0.0001
     24 C          -8.9662  -16.9938   23.9540 C.ar    1  UNL1        0.0026
     25 C          -8.4285  -18.1857   23.2188 C.ar    1  UNL1       -0.0028
     26 C          -8.1865  -16.3981   25.0886 C.ar    1  UNL1        0.0343
     27 C          -8.7370  -16.4452   26.4831 C.ar    1  UNL1        0.0030
     28 C          -7.9573  -15.8494   27.6177 C.ar    1  UNL1        0.0002
     29 C          -6.6272  -15.2066   27.3577 C.ar    1  UNL1        0.0031
     30 C          -6.0768  -15.1594   25.9631 C.ar    1  UNL1        0.0372
     31 C          -6.8565  -15.7552   24.8286 C.ar    1  UNL1        0.1467
     32 O          -6.3060  -15.7081   23.4340 O.3     1  UNL1       -0.4045
     33 C          -4.8737  -16.0741   23.1803 C.3     1  UNL1        0.5753
     34 F          -3.4413  -16.4401   22.9266 F       1  UNL1       -0.1328
     35 F          -4.5235  -14.6205   23.0604 F       1  UNL1       -0.1328
     36 F          -5.2239  -17.5277   23.3001 F       1  UNL1       -0.1328
@<TRIPOS>UNITY_ATOM_ATTR
16 1
charge -1
@<TRIPOS>BOND
     1    16    17   ar
     2    17    18   ar
     3    17    15    1
     4    15     1    1
     5     1    19    1
     6    19    20    1
     7    20    21   ar
     8    21    22   ar
     9    22    23   ar
    10    23    24   ar
    11    24    26    1
    12    26    27   ar
    13    27    28   ar
    14    28    29   ar
    15    29    30   ar
    16    30    31   ar
    17    31    32    1
    18    32    33    1
    19    33    34    1
    20    33    35    1
    21    33    36    1
    22    24    25   ar
    23     1     2    1
    24     2     3    2
    25     2     4    2
    26     2     5    1
    27     5     6   ar
    28     6     7   ar
    29     7     8   ar
    30     8    11    1
    31    11    12    1
    32    12    13    1
    33    12    14    1
    34     8     9   ar
    35     9    10   ar
    36    25    20   ar
    37    10     5   ar
    38    31    26   ar
@<TRIPOS>MOLECULE
*****
 36 38 0 0 0
SMALL
GASTEIGER

@<TRIPOS>ATOM
      1 N          -6.1125  -15.3745   24.9369 N.3     1  UNL1       -0.1454
      2 S          -5.0785  -16.0465   24.0830 S.O2    1  UNL1        0.0639
      3 O          -5.3209  -15.0402   22.9974 O.2     1  UNL1       -0.1528
      4 O          -4.8361  -17.0529   25.1686 O.2     1  UNL1       -0.1528
      5 C          -4.0445  -16.7186   23.2291 C.ar    1  UNL1        0.1224
      6 C          -3.0704  -15.8934   22.4417 C.ar    1  UNL1        0.0230
      7 C          -2.0364  -16.5655   21.5878 C.ar    1  UNL1        0.0385
      8 C          -1.9765  -18.0628   21.5213 C.ar    1  UNL1        0.1444
      9 C          -2.9507  -18.8881   22.3087 C.ar    1  UNL1        0.0385
     10 C          -3.9847  -18.2160   23.1626 C.ar    1  UNL1        0.0230
     11 O          -0.9425  -18.7348   20.6673 O.3     1  UNL1       -0.4236
     12 C          -0.1639  -17.9363   19.6642 C.3     1  UNL1        0.5087
     13 F           1.1022  -17.2452   20.0756 F       1  UNL1       -0.1550
     14 F          -0.6515  -17.8289   18.2497 F       1  UNL1       -0.1550
     15 C          -5.7356  -14.8317   26.2836 C.3     1  UNL1        0.1375
     16 O          -7.0066  -16.5039   27.8128 O.co2   1  UNL1       -0.5477
     17 C          -6.6121  -15.0975   27.4714 C.2     1  UNL1        0.0683
     18 O          -7.0941  -13.9569   28.3180 O.co2   1  UNL1       -0.5477
     19 C          -7.5233  -15.2451   24.4442 C.3     1  UNL1        0.1225
     20 C          -8.3407  -16.4745   24.1788 C.ar    1  UNL1       -0.0045
     21 C          -9.1987  -17.0536   25.2645 C.ar    1  UNL1       -0.0029
     22 C         -10.0161  -18.2829   24.9991 C.ar    1  UNL1       -0.0003
     23 C          -9.9756  -18.9333   23.6480 C.ar    1  UNL1        0.0001
     24 C          -9.1177  -18.3542   22.5623 C.ar    1  UNL1        0.0026
     25 C          -8.3003  -17.1248   22.8278 C.ar    1  UNL1       -0.0028
     26 C          -9.0772  -19.0045   21.2112 C.ar    1  UNL1        0.0343
     27 C          -7.7611  -19.3895   20.6033 C.ar    1  UNL1        0.0030
     28 C          -7.7206  -20.0398   19.2522 C.ar    1  UNL1        0.0002
     29 C          -8.9963  -20.3051   18.5090 C.ar    1  UNL1        0.0031
     30 C         -10.3124  -19.9201   19.1169 C.ar    1  UNL1        0.0372
     31 C         -10.3528  -19.2698   20.4680 C.ar    1  UNL1        0.1467
     32 O         -11.6690  -18.8848   21.0760 O.3     1  UNL1       -0.4045
     33 C         -12.1487  -17.4662   20.9896 C.3     1  UNL1        0.5753
     34 F         -12.6284  -16.0476   20.9031 F       1  UNL1       -0.1328
     35 F         -12.7639  -17.5912   22.3519 F       1  UNL1       -0.1328
     36 F         -11.5335  -17.3412   19.6272 F       1  UNL1       -0.1328
@<TRIPOS>UNITY_ATOM_ATTR
16 1
charge -1
@<TRIPOS>BOND
     1    16    17   ar
     2    17    18   ar
     3    17    15    1
     4    15     1    1
     5     1    19    1
     6    19    20    1
     7    20    21   ar
     8    21    22   ar
     9    22    23   ar
    10    23    24   ar
    11    24    26    1
    12    26    27   ar
    13    27    28   ar
    14    28    29   ar
    15    29    30   ar
    16    30    31   ar
    17    31    32    1
    18    32    33    1
    19    33    34    1
    20    33    35    1
    21    33    36    1
    22    24    25   ar
    23     1     2    1
    24     2     3    2
    25     2     4    2
    26     2     5    1
    27     5     6   ar
    28     6     7   ar
    29     7     8   ar
    30     8    11    1
    31    11    12    1
    32    12    13    1
    33    12    14    1
    34     8     9   ar
    35     9    10   ar
    36    25    20   ar
    37    10     5   ar
    38    31    26   ar
@<TRIPOS>MOLECULE
*****
 36 38 0 0 0
SMALL
GASTEIGER

@<TRIPOS>ATOM
      1 N          -6.1731  -15.3715   24.8736 N.3     1  UNL1       -0.1454
      2 S          -5.0837  -16.0036   24.0590 S.O2    1  UNL1        0.0639
      3 O          -5.2636  -14.9533   23.0033 O.2     1  UNL1       -0.1528
      4 O          -4.9037  -17.0539   25.1146 O.2     1  UNL1       -0.1528
      5 C          -3.9943  -16.6357   23.2444 C.ar    1  UNL1        0.1224
      6 C          -3.8009  -18.1229   23.2760 C.ar    1  UNL1        0.0230
      7 C          -2.7115  -18.7550   22.4614 C.ar    1  UNL1        0.0385
      8 C          -1.8154  -17.9000   21.6152 C.ar    1  UNL1        0.1444
      9 C          -2.0088  -16.4128   21.5835 C.ar    1  UNL1        0.0385
     10 C          -3.0982  -15.7807   22.3981 C.ar    1  UNL1        0.0230
     11 O          -0.7260  -18.5322   20.8006 O.3     1  UNL1       -0.4236
     12 C          -0.1042  -17.7758   19.6642 C.3     1  UNL1        0.5087
     13 F           1.1608  -17.0000   19.8828 F       1  UNL1       -0.1550
     14 F          -0.7474  -17.7953   18.3092 F       1  UNL1       -0.1550
     15 C          -5.8863  -14.8911   26.2654 C.3     1  UNL1        0.1375
     16 O          -6.6284  -16.6814   27.9958 O.co2   1  UNL1       -0.5477
     17 C          -6.7712  -15.3117   27.4012 C.2     1  UNL1        0.0683
     18 O          -7.7989  -14.3625   27.9423 O.co2   1  UNL1       -0.5477
     19 C          -7.5492  -15.2196   24.2964 C.3     1  UNL1        0.1225
     20 C          -8.3969  -16.4322   24.0493 C.ar    1  UNL1       -0.0045
     21 C          -9.1956  -17.0299   25.1696 C.ar    1  UNL1       -0.0029
     22 C         -10.0433  -18.2425   24.9225 C.ar    1  UNL1       -0.0003
     23 C         -10.0922  -18.8575   23.5551 C.ar    1  UNL1        0.0001
     24 C          -9.2935  -18.2598   22.4350 C.ar    1  UNL1        0.0026
     25 C          -8.4458  -17.0472   22.6821 C.ar    1  UNL1       -0.0028
     26 C          -9.3424  -18.8747   21.0676 C.ar    1  UNL1        0.0343
     27 C         -10.6545  -19.0134   20.3542 C.ar    1  UNL1        0.0030
     28 C         -10.7033  -19.6283   18.9869 C.ar    1  UNL1        0.0002
     29 C          -9.4401  -20.1046   18.3331 C.ar    1  UNL1        0.0031
     30 C          -8.1280  -19.9659   19.0466 C.ar    1  UNL1        0.0372
     31 C          -8.0791  -19.3510   20.4139 C.ar    1  UNL1        0.1467
     32 O          -6.7670  -19.2123   21.1274 O.3     1  UNL1       -0.4045
     33 C          -5.5904  -20.0395   20.7014 C.3     1  UNL1        0.5753
     34 F          -4.4139  -20.8667   20.2753 F       1  UNL1       -0.1328
     35 F          -4.9909  -18.8403   20.0286 F       1  UNL1       -0.1328
     36 F          -6.1900  -21.2386   21.3741 F       1  UNL1       -0.1328
@<TRIPOS>UNITY_ATOM_ATTR
16 1
charge -1
@<TRIPOS>BOND
     1    16    17   ar
     2    17    18   ar
     3    17    15    1
     4    15     1    1
     5     1    19    1
     6    19    20    1
     7    20    21   ar
     8    21    22   ar
     9    22    23   ar
    10    23    24   ar
    11    24    26    1
    12    26    27   ar
    13    27    28   ar
    14    28    29   ar
    15    29    30   ar
    16    30    31   ar
    17    31    32    1
    18    32    33    1
    19    33    34    1
    20    33    35    1
    21    33    36    1
    22    24    25   ar
    23     1     2    1
    24     2     3    2
    25     2     4    2
    26     2     5    1
    27     5     6   ar
    28     6     7   ar
    29     7     8   ar
    30     8    11    1
    31    11    12    1
    32    12    13    1
    33    12    14    1
    34     8     9   ar
    35     9    10   ar
    36    25    20   ar
    37    10     5   ar
    38    31    26   ar
@<TRIPOS>MOLECULE
*****
 36 38 0 0 0
SMALL
GASTEIGER

@<TRIPOS>ATOM
      1 N          -5.2563  -19.9174   20.5431 N.3     1  UNL1       -0.1454
      2 S          -5.5762  -18.8925   21.5906 S.O2    1  UNL1        0.0639
      3 O          -6.0921  -17.9678   20.5282 O.2     1  UNL1       -0.1528
      4 O          -5.0602  -19.8173   22.6529 O.2     1  UNL1       -0.1528
      5 C          -5.8960  -17.8677   22.6381 C.ar    1  UNL1        0.1224
      6 C          -7.3195  -17.4612   22.8797 C.ar    1  UNL1        0.0230
      7 C          -7.6394  -16.4363   23.9272 C.ar    1  UNL1        0.0385
      8 C          -6.5358  -15.8179   24.7331 C.ar    1  UNL1        0.1444
      9 C          -5.1122  -16.2243   24.4916 C.ar    1  UNL1        0.0385
     10 C          -4.7924  -17.2492   23.4440 C.ar    1  UNL1        0.0230
     11 O          -6.8557  -14.7930   25.7807 O.3     1  UNL1       -0.4236
     12 C          -7.3787  -15.2258   27.1183 C.3     1  UNL1        0.5087
     13 F          -6.6207  -16.2347   27.9293 F       1  UNL1       -0.1550
     14 F          -8.6596  -14.6497   27.6450 F       1  UNL1       -0.1550
     15 C          -3.9096  -19.9193   19.8822 C.3     1  UNL1        0.1375
     16 O          -1.8487  -20.2113   21.4370 O.co2   1  UNL1       -0.5477
     17 C          -2.7249  -19.3345   20.5923 C.2     1  UNL1        0.0683
     18 O          -2.4163  -17.8728   20.4577 O.co2   1  UNL1       -0.5477
     19 C          -6.2829  -20.9403   20.1564 C.3     1  UNL1        0.1225
     20 C          -7.6934  -20.5168   19.8714 C.ar    1  UNL1       -0.0045
     21 C          -8.2291  -20.5861   18.4720 C.ar    1  UNL1       -0.0029
     22 C          -9.6396  -20.1626   18.1871 C.ar    1  UNL1       -0.0003
     23 C         -10.5143  -19.6697   19.3016 C.ar    1  UNL1        0.0001
     24 C          -9.9786  -19.6003   20.7009 C.ar    1  UNL1        0.0026
     25 C          -8.5681  -20.0239   20.9858 C.ar    1  UNL1       -0.0028
     26 C         -10.8533  -19.1074   21.8154 C.ar    1  UNL1        0.0343
     27 C         -10.7582  -19.7320   23.1758 C.ar    1  UNL1        0.0030
     28 C         -11.6328  -19.2391   24.2901 C.ar    1  UNL1        0.0002
     29 C         -12.6027  -18.1216   24.0441 C.ar    1  UNL1        0.0031
     30 C         -12.6978  -17.4970   22.6837 C.ar    1  UNL1        0.0372
     31 C         -11.8232  -17.9899   21.5693 C.ar    1  UNL1        0.1467
     32 O         -11.9183  -17.3653   20.2088 O.3     1  UNL1       -0.4045
     33 C         -11.2371  -16.0572   19.9348 C.3     1  UNL1        0.5753
     34 F         -10.5560  -14.7492   19.6608 F       1  UNL1       -0.1328
     35 F         -12.2994  -15.7140   18.9329 F       1  UNL1       -0.1328
     36 F         -10.1749  -16.4005   20.9367 F       1  UNL1       -0.1328
@<TRIPOS>UNITY_ATOM_ATTR
16 1
charge -1
@<TRIPOS>BOND
     1    16    17   ar
     2    17    18   ar
     3    17    15    1
     4    15     1    1
     5     1    19    1
     6    19    20    1
     7    20    21   ar
     8    21    22   ar
     9    22    23   ar
    10    23    24   ar
    11    24    26    1
    12    26    27   ar
    13    27    28   ar
    14    28    29   ar
    15    29    30   ar
    16    30    31   ar
    17    31    32    1
    18    32    33    1
    19    33    34    1
    20    33    35    1
    21    33    36    1
    22    24    25   ar
    23     1     2    1
    24     2     3    2
    25     2     4    2
    26     2     5    1
    27     5     6   ar
    28     6     7   ar
    29     7     8   ar
    30     8    11    1
    31    11    12    1
    32    12    13    1
    33    12    14    1
    34     8     9   ar
    35     9    10   ar
    36    25    20   ar
    37    10     5   ar
    38    31    26   ar
@<TRIPOS>MOLECULE
*****
 36 38 0 0 0
SMALL
GASTEIGER

@<TRIPOS>ATOM
      1 N          -5.0876  -19.9119   20.5211 N.3     1  UNL1       -0.1454
      2 S          -5.4473  -18.8992   21.5675 S.O2    1  UNL1        0.0639
      3 O          -6.0397  -18.0163   20.5095 O.2     1  UNL1       -0.1528
      4 O          -4.8549  -19.7821   22.6256 O.2     1  UNL1       -0.1528
      5 C          -5.8070  -17.8865   22.6140 C.ar    1  UNL1        0.1224
      6 C          -7.2438  -17.5199   22.8404 C.ar    1  UNL1        0.0230
      7 C          -7.6035  -16.5072   23.8868 C.ar    1  UNL1        0.0385
      8 C          -6.5265  -15.8611   24.7068 C.ar    1  UNL1        0.1444
      9 C          -5.0896  -16.2277   24.4805 C.ar    1  UNL1        0.0385
     10 C          -4.7299  -17.2404   23.4340 C.ar    1  UNL1        0.0230
     11 O          -6.8862  -14.8484   25.7533 O.3     1  UNL1       -0.4236
     12 C          -7.4298  -15.2984   27.0770 C.3     1  UNL1        0.5087
     13 F          -6.6776  -16.3080   27.8925 F       1  UNL1       -0.1550
     14 F          -8.7253  -14.7388   27.5852 F       1  UNL1       -0.1550
     15 C          -3.8040  -19.7770   19.7567 C.3     1  UNL1        0.1375
     16 O          -2.7365  -17.4110   19.8690 O.co2   1  UNL1       -0.5477
     17 C          -2.7267  -18.8602   20.2557 C.2     1  UNL1        0.0683
     18 O          -1.6396  -19.3928   21.1414 O.co2   1  UNL1       -0.5477
     19 C          -6.0114  -21.0595   20.2391 C.3     1  UNL1        0.1225
     20 C          -7.3656  -20.8041   19.6467 C.ar    1  UNL1       -0.0045
     21 C          -7.7854  -21.5214   18.3979 C.ar    1  UNL1       -0.0029
     22 C          -9.1396  -21.2660   17.8056 C.ar    1  UNL1       -0.0003
     23 C         -10.0740  -20.2933   18.4620 C.ar    1  UNL1        0.0001
     24 C          -9.6542  -19.5761   19.7106 C.ar    1  UNL1        0.0026
     25 C          -8.3000  -19.8314   20.3030 C.ar    1  UNL1       -0.0028
     26 C         -10.5886  -18.6033   20.3670 C.ar    1  UNL1        0.0343
     27 C         -10.9661  -17.3340   19.6626 C.ar    1  UNL1        0.0030
     28 C         -11.9005  -16.3614   20.3190 C.ar    1  UNL1        0.0002
     29 C         -12.4573  -16.6581   21.6798 C.ar    1  UNL1        0.0031
     30 C         -12.0798  -17.9274   22.3843 C.ar    1  UNL1        0.0372
     31 C         -11.1455  -18.9000   21.7279 C.ar    1  UNL1        0.1467
     32 O         -10.7679  -20.1694   22.4323 O.3     1  UNL1       -0.4045
     33 C         -10.2025  -20.1170   23.8207 C.3     1  UNL1        0.5753
     34 F          -9.6371  -20.0646   25.2091 F       1  UNL1       -0.1328
     35 F          -8.8413  -20.4383   23.2785 F       1  UNL1       -0.1328
     36 F         -11.5637  -19.7957   24.3629 F       1  UNL1       -0.1328
@<TRIPOS>UNITY_ATOM_ATTR
16 1
charge -1
@<TRIPOS>BOND
     1    16    17   ar
     2    17    18   ar
     3    17    15    1
     4    15     1    1
     5     1    19    1
     6    19    20    1
     7    20    21   ar
     8    21    22   ar
     9    22    23   ar
    10    23    24   ar
    11    24    26    1
    12    26    27   ar
    13    27    28   ar
    14    28    29   ar
    15    29    30   ar
    16    30    31   ar
    17    31    32    1
    18    32    33    1
    19    33    34    1
    20    33    35    1
    21    33    36    1
    22    24    25   ar
    23     1     2    1
    24     2     3    2
    25     2     4    2
    26     2     5    1
    27     5     6   ar
    28     6     7   ar
    29     7     8   ar
    30     8    11    1
    31    11    12    1
    32    12    13    1
    33    12    14    1
    34     8     9   ar
    35     9    10   ar
    36    25    20   ar
    37    10     5   ar
    38    31    26   ar
@<TRIPOS>MOLECULE
*****
 36 38 0 0 0
SMALL
GASTEIGER

@<TRIPOS>ATOM
      1 N         -10.1119  -18.3449   20.5135 N.3     1  UNL1       -0.1454
      2 S          -9.6490  -17.8635   21.8566 S.O2    1  UNL1        0.0639
      3 O         -10.0030  -19.1926   22.4550 O.2     1  UNL1       -0.1528
      4 O          -9.2950  -16.5343   21.2583 O.2     1  UNL1       -0.1528
      5 C          -9.1861  -17.3821   23.1998 C.ar    1  UNL1        0.1224
      6 C          -9.6804  -18.0516   24.4477 C.ar    1  UNL1        0.0230
      7 C          -9.2176  -17.5702   25.7908 C.ar    1  UNL1        0.0385
      8 C          -8.2604  -16.4193   25.8860 C.ar    1  UNL1        0.1444
      9 C          -7.7661  -15.7497   24.6381 C.ar    1  UNL1        0.0385
     10 C          -8.2289  -16.2311   23.2950 C.ar    1  UNL1        0.0230
     11 O          -7.7976  -15.9379   27.2292 O.3     1  UNL1       -0.4236
     12 C          -6.5298  -15.1446   27.3456 C.3     1  UNL1        0.5087
     13 F          -6.4961  -13.9038   28.1878 F       1  UNL1       -0.1550
     14 F          -5.2958  -15.5920   26.6197 F       1  UNL1       -0.1550
     15 C         -11.5790  -18.4458   20.2177 C.3     1  UNL1        0.1375
     16 O         -13.2004  -17.8642   22.1626 O.co2   1  UNL1       -0.5477
     17 C         -12.5419  -17.4960   20.8661 C.2     1  UNL1        0.0683
     18 O         -12.8464  -16.1779   20.2181 O.co2   1  UNL1       -0.5477
     19 C          -9.1077  -18.7253   19.4662 C.3     1  UNL1        0.1225
     20 C          -7.8519  -19.4460   19.8579 C.ar    1  UNL1       -0.0045
     21 C          -7.6322  -20.8633   19.4181 C.ar    1  UNL1       -0.0029
     22 C          -6.3764  -21.5840   19.8099 C.ar    1  UNL1       -0.0003
     23 C          -5.3402  -20.8875   20.6414 C.ar    1  UNL1        0.0001
     24 C          -5.5599  -19.4704   21.0812 C.ar    1  UNL1        0.0026
     25 C          -6.8157  -18.7497   20.6895 C.ar    1  UNL1       -0.0028
     26 C          -4.5238  -18.7739   21.9128 C.ar    1  UNL1        0.0343
     27 C          -4.8995  -18.1838   23.2396 C.ar    1  UNL1        0.0030
     28 C          -3.8634  -17.4874   24.0711 C.ar    1  UNL1        0.0002
     29 C          -2.4515  -17.3811   23.5757 C.ar    1  UNL1        0.0031
     30 C          -2.0758  -17.9712   22.2489 C.ar    1  UNL1        0.0372
     31 C          -3.1119  -18.6676   21.4174 C.ar    1  UNL1        0.1467
     32 O          -2.7362  -19.2578   20.0905 O.3     1  UNL1       -0.4045
     33 C          -2.2746  -18.3656   18.9765 C.3     1  UNL1        0.5753
     34 F          -1.8130  -17.4734   17.8626 F       1  UNL1       -0.1328
     35 F          -0.8490  -18.7099   19.2915 F       1  UNL1       -0.1328
     36 F          -3.7002  -18.0213   18.6616 F       1  UNL1       -0.1328
@<TRIPOS>UNITY_ATOM_ATTR
16 1
charge -1
@<TRIPOS>BOND
     1    16    17   ar
     2    17    18   ar
     3    17    15    1
     4    15     1    1
     5     1    19    1
     6    19    20    1
     7    20    21   ar
     8    21    22   ar
     9    22    23   ar
    10    23    24   ar
    11    24    26    1
    12    26    27   ar
    13    27    28   ar
    14    28    29   ar
    15    29    30   ar
    16    30    31   ar
    17    31    32    1
    18    32    33    1
    19    33    34    1
    20    33    35    1
    21    33    36    1
    22    24    25   ar
    23     1     2    1
    24     2     3    2
    25     2     4    2
    26     2     5    1
    27     5     6   ar
    28     6     7   ar
    29     7     8   ar
    30     8    11    1
    31    11    12    1
    32    12    13    1
    33    12    14    1
    34     8     9   ar
    35     9    10   ar
    36    25    20   ar
    37    10     5   ar
    38    31    26   ar
@<TRIPOS>MOLECULE
*****
 36 38 0 0 0
SMALL
GASTEIGER

@<TRIPOS>ATOM
      1 N         -10.7448  -17.4333   20.9293 N.3     1  UNL1       -0.1454
      2 S          -9.4045  -18.1053   20.8822 S.O2    1  UNL1        0.0639
      3 O          -8.7332  -16.7816   21.0996 O.2     1  UNL1       -0.1528
      4 O         -10.0759  -19.4290   20.6649 O.2     1  UNL1       -0.1528
      5 C          -8.0643  -18.7773   20.8351 C.ar    1  UNL1        0.1224
      6 C          -7.0823  -18.5710   21.9500 C.ar    1  UNL1        0.0230
      7 C          -5.7420  -19.2430   21.9029 C.ar    1  UNL1        0.0385
      8 C          -5.3839  -20.1213   20.7409 C.ar    1  UNL1        0.1444
      9 C          -6.3659  -20.3277   19.6260 C.ar    1  UNL1        0.0385
     10 C          -7.7062  -19.6557   19.6731 C.ar    1  UNL1        0.0230
     11 O          -4.0436  -20.7933   20.6938 O.3     1  UNL1       -0.4236
     12 C          -2.7905  -19.9688   20.7028 C.3     1  UNL1        0.5087
     13 F          -1.9427  -19.9064   21.9387 F       1  UNL1       -0.1550
     14 F          -2.3852  -19.2068   19.4761 F       1  UNL1       -0.1550
     15 C         -11.4940  -17.1643   19.6579 C.3     1  UNL1        0.1375
     16 O         -13.1821  -15.2190   19.3173 O.co2   1  UNL1       -0.5477
     17 C         -11.7822  -15.7524   19.2416 C.2     1  UNL1        0.0683
     18 O         -10.6705  -14.8739   18.7495 O.co2   1  UNL1       -0.5477
     19 C         -11.3357  -17.0303   22.2477 C.3     1  UNL1        0.1225
     20 C         -10.6719  -17.4481   23.5263 C.ar    1  UNL1       -0.0045
     21 C         -10.9597  -18.7976   24.1146 C.ar    1  UNL1       -0.0029
     22 C         -10.2959  -19.2154   25.3932 C.ar    1  UNL1       -0.0003
     23 C          -9.3443  -18.2837   26.0835 C.ar    1  UNL1        0.0001
     24 C          -9.0565  -16.9342   25.4952 C.ar    1  UNL1        0.0026
     25 C          -9.7204  -16.5164   24.2166 C.ar    1  UNL1       -0.0028
     26 C          -8.1049  -16.0025   26.1855 C.ar    1  UNL1        0.0343
     27 C          -8.5005  -15.3464   27.4750 C.ar    1  UNL1        0.0030
     28 C          -7.5489  -14.4147   28.1652 C.ar    1  UNL1        0.0002
     29 C          -6.2018  -14.1392   27.5659 C.ar    1  UNL1        0.0031
     30 C          -5.8062  -14.7953   26.2763 C.ar    1  UNL1        0.0372
     31 C          -6.7578  -15.7270   25.5861 C.ar    1  UNL1        0.1467
     32 O          -6.3622  -16.3832   24.2965 O.3     1  UNL1       -0.4045
     33 C          -5.0229  -16.0923   23.6870 C.3     1  UNL1        0.5753
     34 F          -3.6835  -15.8014   23.0774 F       1  UNL1       -0.1328
     35 F          -4.4753  -17.3524   24.2888 F       1  UNL1       -0.1328
     36 F          -5.5704  -14.8321   23.0852 F       1  UNL1       -0.1328
@<TRIPOS>UNITY_ATOM_ATTR
16 1
charge -1
@<TRIPOS>BOND
     1    16    17   ar
     2    17    18   ar
     3    17    15    1
     4    15     1    1
     5     1    19    1
     6    19    20    1
     7    20    21   ar
     8    21    22   ar
     9    22    23   ar
    10    23    24   ar
    11    24    26    1
    12    26    27   ar
    13    27    28   ar
    14    28    29   ar
    15    29    30   ar
    16    30    31   ar
    17    31    32    1
    18    32    33    1
    19    33    34    1
    20    33    35    1
    21    33    36    1
    22    24    25   ar
    23     1     2    1
    24     2     3    2
    25     2     4    2
    26     2     5    1
    27     5     6   ar
    28     6     7   ar
    29     7     8   ar
    30     8    11    1
    31    11    12    1
    32    12    13    1
    33    12    14    1
    34     8     9   ar
    35     9    10   ar
    36    25    20   ar
    37    10     5   ar
    38    31    26   ar
@<TRIPOS>MOLECULE
*****
 36 38 0 0 0
SMALL
GASTEIGER

@<TRIPOS>ATOM
      1 N          -8.0718  -15.9329   23.8663 N.3     1  UNL1       -0.1454
      2 S          -8.4693  -16.8584   22.7549 S.O2    1  UNL1        0.0639
      3 O          -8.8352  -17.9093   23.7608 O.2     1  UNL1       -0.1528
      4 O          -8.1033  -15.8076   21.7490 O.2     1  UNL1       -0.1528
      5 C          -8.8667  -17.7840   21.6434 C.ar    1  UNL1        0.1224
      6 C          -7.8206  -18.5766   20.9172 C.ar    1  UNL1        0.0230
      7 C          -8.2180  -19.5022   19.8057 C.ar    1  UNL1        0.0385
      8 C          -9.6615  -19.6352   19.4205 C.ar    1  UNL1        0.1444
      9 C         -10.7077  -18.8426   20.1467 C.ar    1  UNL1        0.0385
     10 C         -10.3103  -17.9170   21.2582 C.ar    1  UNL1        0.0230
     11 O         -10.0589  -20.5608   18.3090 O.3     1  UNL1       -0.4236
     12 C          -9.0082  -21.3150   17.5493 C.3     1  UNL1        0.5087
     13 F          -8.9271  -21.1901   16.0567 F       1  UNL1       -0.1550
     14 F          -8.0387  -22.1942   18.2821 F       1  UNL1       -0.1550
     15 C          -9.0126  -15.6843   25.0080 C.3     1  UNL1        0.1375
     16 O          -8.8828  -17.2917   27.0449 O.co2   1  UNL1       -0.5477
     17 C          -8.5754  -15.9656   26.4150 C.2     1  UNL1        0.0683
     18 O          -7.8309  -14.9207   27.1920 O.co2   1  UNL1       -0.5477
     19 C          -6.7337  -15.2558   23.8362 C.3     1  UNL1        0.1225
     20 C          -5.4831  -16.0566   24.0475 C.ar    1  UNL1       -0.0045
     21 C          -5.1462  -16.5749   25.4143 C.ar    1  UNL1       -0.0029
     22 C          -3.8956  -17.3756   25.6255 C.ar    1  UNL1       -0.0003
     23 C          -2.9818  -17.6582   24.4700 C.ar    1  UNL1        0.0001
     24 C          -3.3186  -17.1399   23.1033 C.ar    1  UNL1        0.0026
     25 C          -4.5693  -16.3392   22.8920 C.ar    1  UNL1       -0.0028
     26 C          -2.4048  -17.4225   21.9477 C.ar    1  UNL1        0.0343
     27 C          -1.5746  -16.3196   21.3610 C.ar    1  UNL1        0.0030
     28 C          -0.6609  -16.6022   20.2055 C.ar    1  UNL1        0.0002
     29 C          -0.5773  -17.9876   19.6368 C.ar    1  UNL1        0.0031
     30 C          -1.4075  -19.0906   20.2235 C.ar    1  UNL1        0.0372
     31 C          -2.3212  -18.8080   21.3790 C.ar    1  UNL1        0.1467
     32 O          -3.1515  -19.9109   21.9658 O.3     1  UNL1       -0.4045
     33 C          -4.3730  -20.3961   21.2429 C.3     1  UNL1        0.5753
     34 F          -5.5945  -20.8812   20.5200 F       1  UNL1       -0.1328
     35 F          -3.5079  -20.9322   20.1410 F       1  UNL1       -0.1328
     36 F          -5.2381  -19.8599   22.3449 F       1  UNL1       -0.1328
@<TRIPOS>UNITY_ATOM_ATTR
16 1
charge -1
@<TRIPOS>BOND
     1    16    17   ar
     2    17    18   ar
     3    17    15    1
     4    15     1    1
     5     1    19    1
     6    19    20    1
     7    20    21   ar
     8    21    22   ar
     9    22    23   ar
    10    23    24   ar
    11    24    26    1
    12    26    27   ar
    13    27    28   ar
    14    28    29   ar
    15    29    30   ar
    16    30    31   ar
    17    31    32    1
    18    32    33    1
    19    33    34    1
    20    33    35    1
    21    33    36    1
    22    24    25   ar
    23     1     2    1
    24     2     3    2
    25     2     4    2
    26     2     5    1
    27     5     6   ar
    28     6     7   ar
    29     7     8   ar
    30     8    11    1
    31    11    12    1
    32    12    13    1
    33    12    14    1
    34     8     9   ar
    35     9    10   ar
    36    25    20   ar
    37    10     5   ar
    38    31    26   ar
