@<TRIPOS>MOLECULE
*****
 27 30 0 0 0
SMALL
GASTEIGER

@<TRIPOS>ATOM
      1 C         -17.8943   -2.1533   19.3777 C.3     1  UNL1        0.0326
      2 C         -16.4332   -2.1145   19.0407 C.ar    1  UNL1       -0.0033
      3 C         -15.7054   -0.8034   19.0088 C.ar    1  UNL1        0.0086
      4 C         -14.2443   -0.7646   18.6717 C.ar    1  UNL1        0.0575
      5 CL        -13.5165    0.5467   18.6398 Cl      1  UNL1       -0.0823
      6 C         -13.5109   -2.0370   18.3667 C.ar    1  UNL1        0.0129
      7 C         -14.2387   -3.3482   18.3986 C.ar    1  UNL1        0.0184
      8 C         -13.5053   -4.6207   18.0935 C.ar    1  UNL1        0.0053
      9 C         -14.2331   -5.9319   18.1255 C.ar    1  UNL1        0.0456
     10 C         -15.6942   -5.9707   18.4625 C.ar    1  UNL1        0.1326
     11 N         -16.4276   -4.6982   18.7676 N.ar    1  UNL1       -0.2310
     12 C         -15.6998   -3.3870   18.7356 C.ar    1  UNL1        0.0787
     13 C         -12.0442   -4.5819   17.7565 C.ar    1  UNL1        0.0002
     14 C         -11.0205   -4.6223   18.8521 C.ar    1  UNL1        0.0000
     15 C          -9.5593   -4.5835   18.5151 C.ar    1  UNL1        0.0000
     16 C          -9.1219   -4.5043   17.0825 C.ar    1  UNL1        0.0000
     17 C         -10.1457   -4.4639   15.9868 C.ar    1  UNL1        0.0000
     18 C         -11.6068   -4.5027   16.3238 C.ar    1  UNL1        0.0000
     19 N         -16.4220   -7.2819   18.4944 N.pl3   1  UNL1       -0.2932
     20 C         -17.2995   -7.6809   17.3451 C.3     1  UNL1        0.0922
     21 C         -18.0272   -8.9921   17.3770 C.3     1  UNL1        0.0215
     22 C         -17.8775   -9.9044   18.5582 C.3     1  UNL1        0.0035
     23 C         -17.0001   -9.5054   19.7075 C.3     1  UNL1        0.0215
     24 C         -16.2723   -8.1942   19.6757 C.3     1  UNL1        0.0922
     25 C         -13.4997   -7.2044   17.8204 C.2     1  UNL1        0.0756
     26 O         -13.7161   -7.8986   16.5084 O.co2   1  UNL1       -0.5445
     27 O         -12.5501   -7.7826   18.8273 O.co2   1  UNL1       -0.5445
@<TRIPOS>UNITY_ATOM_ATTR
26 1
charge -1
@<TRIPOS>BOND
     1     1     2    1
     2     2     3   ar
     3     3     4   ar
     4     4     5    1
     5     4     6   ar
     6     6     7   ar
     7     7     8   ar
     8     8    13    1
     9    13    14   ar
    10    14    15   ar
    11    15    16   ar
    12    16    17   ar
    13    17    18   ar
    14     8     9   ar
    15     9    25    1
    16    25    26   ar
    17    25    27   ar
    18     9    10   ar
    19    10    19    1
    20    19    20    1
    21    20    21    1
    22    21    22    1
    23    22    23    1
    24    23    24    1
    25    10    11   ar
    26    11    12   ar
    27    12     2   ar
    28    12     7   ar
    29    18    13   ar
    30    24    19    1
@<TRIPOS>MOLECULE
*****
 27 30 0 0 0
SMALL
GASTEIGER

@<TRIPOS>ATOM
      1 C          -8.9044  -20.4081   18.4409 C.3     1  UNL1        0.0326
      2 C          -9.2777  -19.6436   19.6762 C.ar    1  UNL1       -0.0033
      3 C         -10.7221  -19.4593   20.0364 C.ar    1  UNL1        0.0086
      4 C         -11.0954  -18.6948   21.2717 C.ar    1  UNL1        0.0575
      5 CL        -12.5399  -18.5105   21.6318 Cl      1  UNL1       -0.0823
      6 C         -10.0244  -18.1145   22.1469 C.ar    1  UNL1        0.0129
      7 C          -8.5800  -18.2988   21.7868 C.ar    1  UNL1        0.0184
      8 C          -7.5088  -17.7185   22.6621 C.ar    1  UNL1        0.0053
      9 C          -6.0644  -17.9028   22.3019 C.ar    1  UNL1        0.0456
     10 C          -5.6911  -18.6674   21.0666 C.ar    1  UNL1        0.1326
     11 N          -6.7622  -19.2476   20.1913 N.ar    1  UNL1       -0.2310
     12 C          -8.2067  -19.0633   20.5515 C.ar    1  UNL1        0.0787
     13 C          -7.8821  -16.9540   23.8974 C.ar    1  UNL1        0.0002
     14 C          -7.6783  -15.4689   23.9506 C.ar    1  UNL1        0.0000
     15 C          -8.0516  -14.7043   25.1859 C.ar    1  UNL1        0.0000
     16 C          -8.6288  -15.4249   26.3681 C.ar    1  UNL1        0.0000
     17 C          -8.8327  -16.9101   26.3150 C.ar    1  UNL1        0.0000
     18 C          -8.4594  -17.6746   25.0796 C.ar    1  UNL1        0.0000
     19 N          -4.2466  -18.8516   20.7065 N.pl3   1  UNL1       -0.2932
     20 C          -3.3567  -19.6859   21.5793 C.3     1  UNL1        0.0922
     21 C          -1.9122  -19.8702   21.2192 C.3     1  UNL1        0.0215
     22 C          -1.3578  -19.2202   19.9864 C.3     1  UNL1        0.0035
     23 C          -2.2478  -18.3859   19.1135 C.3     1  UNL1        0.0215
     24 C          -3.6922  -18.2016   19.4736 C.3     1  UNL1        0.0922
     25 C          -4.9933  -17.3225   23.1772 C.2     1  UNL1        0.0756
     26 O          -4.3118  -18.1834   24.1992 O.co2   1  UNL1       -0.5445
     27 O          -4.6036  -15.8815   23.0303 O.co2   1  UNL1       -0.5445
@<TRIPOS>UNITY_ATOM_ATTR
26 1
charge -1
@<TRIPOS>BOND
     1     1     2    1
     2     2     3   ar
     3     3     4   ar
     4     4     5    1
     5     4     6   ar
     6     6     7   ar
     7     7     8   ar
     8     8    13    1
     9    13    14   ar
    10    14    15   ar
    11    15    16   ar
    12    16    17   ar
    13    17    18   ar
    14     8     9   ar
    15     9    25    1
    16    25    26   ar
    17    25    27   ar
    18     9    10   ar
    19    10    19    1
    20    19    20    1
    21    20    21    1
    22    21    22    1
    23    22    23    1
    24    23    24    1
    25    10    11   ar
    26    11    12   ar
    27    12     2   ar
    28    12     7   ar
    29    18    13   ar
    30    24    19    1
@<TRIPOS>MOLECULE
*****
 27 30 0 0 0
SMALL
GASTEIGER

@<TRIPOS>ATOM
      1 C         -10.7020  -19.5110   19.1814 C.3     1  UNL1        0.0326
      2 C         -10.6746  -18.8044   20.5043 C.ar    1  UNL1       -0.0033
      3 C         -11.9588  -18.3974   21.1638 C.ar    1  UNL1        0.0086
      4 C         -11.9315  -17.6907   22.4867 C.ar    1  UNL1        0.0575
      5 CL        -13.2158  -17.2837   23.1462 Cl      1  UNL1       -0.0823
      6 C         -10.6199  -17.3912   23.1500 C.ar    1  UNL1        0.0129
      7 C          -9.3357  -17.7982   22.4904 C.ar    1  UNL1        0.0184
      8 C          -8.0241  -17.4986   23.1537 C.ar    1  UNL1        0.0053
      9 C          -6.7398  -17.9057   22.4942 C.ar    1  UNL1        0.0456
     10 C          -6.7672  -18.6123   21.1713 C.ar    1  UNL1        0.1326
     11 N          -8.0788  -18.9119   20.5080 N.ar    1  UNL1       -0.2310
     12 C          -9.3631  -18.5048   21.1676 C.ar    1  UNL1        0.0787
     13 C          -7.9967  -16.7920   24.4766 C.ar    1  UNL1        0.0002
     14 C          -8.5904  -17.4462   25.6888 C.ar    1  UNL1        0.0000
     15 C          -8.5630  -16.7396   27.0116 C.ar    1  UNL1        0.0000
     16 C          -7.9420  -15.3787   27.1223 C.ar    1  UNL1        0.0000
     17 C          -7.3483  -14.7244   25.9100 C.ar    1  UNL1        0.0000
     18 C          -7.3756  -15.4311   24.5872 C.ar    1  UNL1        0.0000
     19 N          -5.4829  -19.0194   20.5118 N.pl3   1  UNL1       -0.2932
     20 C          -4.5908  -17.9794   19.9014 C.3     1  UNL1        0.0922
     21 C          -3.3065  -18.3864   19.2419 C.3     1  UNL1        0.0215
     22 C          -2.9144  -19.8333   19.1927 C.3     1  UNL1        0.0035
     23 C          -3.8065  -20.8733   19.8031 C.3     1  UNL1        0.0215
     24 C          -5.0907  -20.4663   20.4626 C.3     1  UNL1        0.0922
     25 C          -5.4282  -17.6061   23.1575 C.2     1  UNL1        0.0756
     26 O          -4.9864  -16.1840   23.3377 O.co2   1  UNL1       -0.5445
     27 O          -4.5583  -18.7286   23.6405 O.co2   1  UNL1       -0.5445
@<TRIPOS>UNITY_ATOM_ATTR
26 1
charge -1
@<TRIPOS>BOND
     1     1     2    1
     2     2     3   ar
     3     3     4   ar
     4     4     5    1
     5     4     6   ar
     6     6     7   ar
     7     7     8   ar
     8     8    13    1
     9    13    14   ar
    10    14    15   ar
    11    15    16   ar
    12    16    17   ar
    13    17    18   ar
    14     8     9   ar
    15     9    25    1
    16    25    26   ar
    17    25    27   ar
    18     9    10   ar
    19    10    19    1
    20    19    20    1
    21    20    21    1
    22    21    22    1
    23    22    23    1
    24    23    24    1
    25    10    11   ar
    26    11    12   ar
    27    12     2   ar
    28    12     7   ar
    29    18    13   ar
    30    24    19    1
@<TRIPOS>MOLECULE
*****
 27 30 0 0 0
SMALL
GASTEIGER

@<TRIPOS>ATOM
      1 C         -11.8293   -1.9560   18.9818 C.3     1  UNL1        0.0326
      2 C         -12.2490   -3.3959   18.9588 C.ar    1  UNL1       -0.0033
      3 C         -11.2124   -4.4798   18.9820 C.ar    1  UNL1        0.0086
      4 C         -11.6322   -5.9197   18.9590 C.ar    1  UNL1        0.0575
      5 CL        -10.5955   -7.0036   18.9822 Cl      1  UNL1       -0.0823
      6 C         -13.0886   -6.2756   18.9128 C.ar    1  UNL1        0.0129
      7 C         -14.1252   -5.1917   18.8895 C.ar    1  UNL1        0.0184
      8 C         -15.5817   -5.5477   18.8433 C.ar    1  UNL1        0.0053
      9 C         -16.6183   -4.4638   18.8201 C.ar    1  UNL1        0.0456
     10 C         -16.1985   -3.0239   18.8431 C.ar    1  UNL1        0.1326
     11 N         -14.7421   -2.6679   18.8893 N.ar    1  UNL1       -0.2310
     12 C         -13.7054   -3.7519   18.9126 C.ar    1  UNL1        0.0787
     13 C         -16.0015   -6.9876   18.8203 C.ar    1  UNL1        0.0002
     14 C         -16.0838   -7.7240   17.5162 C.ar    1  UNL1        0.0000
     15 C         -16.5036   -9.1639   17.4931 C.ar    1  UNL1        0.0000
     16 C         -16.8410   -9.8673   18.7743 C.ar    1  UNL1        0.0000
     17 C         -16.7587   -9.1309   20.0785 C.ar    1  UNL1        0.0000
     18 C         -16.3389   -7.6910   20.1015 C.ar    1  UNL1        0.0000
     19 N         -17.2352   -1.9400   18.8199 N.pl3   1  UNL1       -0.2932
     20 C         -17.7265   -1.4000   17.5095 C.3     1  UNL1        0.0922
     21 C         -18.7631   -0.3162   17.4862 C.3     1  UNL1        0.0215
     22 C         -19.3084    0.2277   18.7734 C.3     1  UNL1        0.0035
     23 C         -18.8171   -0.3122   20.0837 C.3     1  UNL1        0.0215
     24 C         -17.7805   -1.3961   20.1070 C.3     1  UNL1        0.0922
     25 C         -18.0748   -4.8197   18.7739 C.2     1  UNL1        0.0756
     26 O         -18.7170   -5.1825   17.4678 O.co2   1  UNL1       -0.5445
     27 O         -18.8888   -4.8129   20.0337 O.co2   1  UNL1       -0.5445
@<TRIPOS>UNITY_ATOM_ATTR
26 1
charge -1
@<TRIPOS>BOND
     1     1     2    1
     2     2     3   ar
     3     3     4   ar
     4     4     5    1
     5     4     6   ar
     6     6     7   ar
     7     7     8   ar
     8     8    13    1
     9    13    14   ar
    10    14    15   ar
    11    15    16   ar
    12    16    17   ar
    13    17    18   ar
    14     8     9   ar
    15     9    25    1
    16    25    26   ar
    17    25    27   ar
    18     9    10   ar
    19    10    19    1
    20    19    20    1
    21    20    21    1
    22    21    22    1
    23    22    23    1
    24    23    24    1
    25    10    11   ar
    26    11    12   ar
    27    12     2   ar
    28    12     7   ar
    29    18    13   ar
    30    24    19    1
@<TRIPOS>MOLECULE
*****
 27 30 0 0 0
SMALL
GASTEIGER

@<TRIPOS>ATOM
      1 C           0.0234    3.5085   32.1297 C.3     1  UNL1        0.0326
      2 C           0.9497    2.3892   31.7568 C.ar    1  UNL1       -0.0033
      3 C           0.8222    1.7245   30.4182 C.ar    1  UNL1        0.0086
      4 C           1.7485    0.6052   30.0453 C.ar    1  UNL1        0.0575
      5 CL          1.6209   -0.0595   28.7066 Cl      1  UNL1       -0.0823
      6 C           2.8023    0.1505   31.0110 C.ar    1  UNL1        0.0129
      7 C           2.9299    0.8152   32.3496 C.ar    1  UNL1        0.0184
      8 C           3.9838    0.3605   33.3153 C.ar    1  UNL1        0.0053
      9 C           4.1113    1.0252   34.6539 C.ar    1  UNL1        0.0456
     10 C           3.1850    2.1445   35.0268 C.ar    1  UNL1        0.1326
     11 N           2.1312    2.5992   34.0612 N.ar    1  UNL1       -0.2310
     12 C           2.0036    1.9345   32.7225 C.ar    1  UNL1        0.0787
     13 C           4.9101   -0.7588   32.9424 C.ar    1  UNL1        0.0002
     14 C           4.5047   -2.1816   33.1895 C.ar    1  UNL1        0.0000
     15 C           5.4310   -3.3010   32.8166 C.ar    1  UNL1        0.0000
     16 C           6.7627   -2.9975   32.1966 C.ar    1  UNL1        0.0000
     17 C           7.1681   -1.5745   31.9495 C.ar    1  UNL1        0.0000
     18 C           6.2418   -0.4552   32.3224 C.ar    1  UNL1        0.0000
     19 N           3.3126    2.8092   36.3655 N.pl3   1  UNL1       -0.2932
     20 C           2.5610    2.2689   37.5458 C.3     1  UNL1        0.0922
     21 C           2.6885    2.9335   38.8845 C.3     1  UNL1        0.0215
     22 C           3.5678    4.1384   39.0428 C.3     1  UNL1        0.0035
     23 C           4.3194    4.6787   37.8625 C.3     1  UNL1        0.0215
     24 C           4.1919    4.0141   36.5239 C.3     1  UNL1        0.0922
     25 C           5.1652    0.5705   35.6197 C.2     1  UNL1        0.0756
     26 O           4.8505   -0.4967   36.6256 O.co2   1  UNL1       -0.5445
     27 O           6.5338    1.1832   35.5796 O.co2   1  UNL1       -0.5445
@<TRIPOS>UNITY_ATOM_ATTR
26 1
charge -1
@<TRIPOS>BOND
     1     1     2    1
     2     2     3   ar
     3     3     4   ar
     4     4     5    1
     5     4     6   ar
     6     6     7   ar
     7     7     8   ar
     8     8    13    1
     9    13    14   ar
    10    14    15   ar
    11    15    16   ar
    12    16    17   ar
    13    17    18   ar
    14     8     9   ar
    15     9    25    1
    16    25    26   ar
    17    25    27   ar
    18     9    10   ar
    19    10    19    1
    20    19    20    1
    21    20    21    1
    22    21    22    1
    23    22    23    1
    24    23    24    1
    25    10    11   ar
    26    11    12   ar
    27    12     2   ar
    28    12     7   ar
    29    18    13   ar
    30    24    19    1
@<TRIPOS>MOLECULE
*****
 27 30 0 0 0
SMALL
GASTEIGER

@<TRIPOS>ATOM
      1 C         -10.9328   -7.9764   17.1081 C.3     1  UNL1        0.0326
      2 C         -11.3004   -6.5238   17.1784 C.ar    1  UNL1       -0.0033
      3 C         -10.2610   -5.4738   16.9200 C.ar    1  UNL1        0.0086
      4 C         -10.6286   -4.0212   16.9904 C.ar    1  UNL1        0.0575
      5 CL         -9.5890   -2.9711   16.7319 Cl      1  UNL1       -0.0823
      6 C         -12.0356   -3.6187   17.3191 C.ar    1  UNL1        0.0129
      7 C         -13.0751   -4.6688   17.5775 C.ar    1  UNL1        0.0184
      8 C         -14.4823   -4.2664   17.9063 C.ar    1  UNL1        0.0053
      9 C         -15.5217   -5.3165   18.1647 C.ar    1  UNL1        0.0456
     10 C         -15.1541   -6.7690   18.0943 C.ar    1  UNL1        0.1326
     11 N         -13.7470   -7.1715   17.7656 N.ar    1  UNL1       -0.2310
     12 C         -12.7075   -6.1214   17.5072 C.ar    1  UNL1        0.0787
     13 C         -14.8499   -2.8138   17.9766 C.ar    1  UNL1        0.0002
     14 C         -15.2833   -2.0890   16.7370 C.ar    1  UNL1        0.0000
     15 C         -15.6509   -0.6364   16.8073 C.ar    1  UNL1        0.0000
     16 C         -15.5851    0.0913   18.1173 C.ar    1  UNL1        0.0000
     17 C         -15.1517   -0.6336   19.3570 C.ar    1  UNL1        0.0000
     18 C         -14.7841   -2.0861   19.2867 C.ar    1  UNL1        0.0000
     19 N         -16.1936   -7.8191   18.3528 N.pl3   1  UNL1       -0.2932
     20 C         -16.3414   -8.4064   19.7251 C.3     1  UNL1        0.0922
     21 C         -17.3809   -9.4565   19.9835 C.3     1  UNL1        0.0215
     22 C         -18.2726   -9.9192   18.8697 C.3     1  UNL1        0.0035
     23 C         -18.1248   -9.3319   17.4974 C.3     1  UNL1        0.0215
     24 C         -17.0853   -8.2818   17.2389 C.3     1  UNL1        0.0922
     25 C         -16.9289   -4.9140   18.4934 C.2     1  UNL1        0.0756
     26 O         -17.9440   -4.7734   17.3981 O.co2   1  UNL1       -0.5445
     27 O         -17.3208   -4.6522   19.9174 O.co2   1  UNL1       -0.5445
@<TRIPOS>UNITY_ATOM_ATTR
26 1
charge -1
@<TRIPOS>BOND
     1     1     2    1
     2     2     3   ar
     3     3     4   ar
     4     4     5    1
     5     4     6   ar
     6     6     7   ar
     7     7     8   ar
     8     8    13    1
     9    13    14   ar
    10    14    15   ar
    11    15    16   ar
    12    16    17   ar
    13    17    18   ar
    14     8     9   ar
    15     9    25    1
    16    25    26   ar
    17    25    27   ar
    18     9    10   ar
    19    10    19    1
    20    19    20    1
    21    20    21    1
    22    21    22    1
    23    22    23    1
    24    23    24    1
    25    10    11   ar
    26    11    12   ar
    27    12     2   ar
    28    12     7   ar
    29    18    13   ar
    30    24    19    1
@<TRIPOS>MOLECULE
*****
 27 30 0 0 0
SMALL
GASTEIGER

@<TRIPOS>ATOM
      1 C         -11.7624   -6.8185   18.9820 C.3     1  UNL1        0.0326
      2 C         -12.3374   -5.4333   18.9588 C.ar    1  UNL1       -0.0033
      3 C         -11.4258   -4.2423   18.9820 C.ar    1  UNL1        0.0086
      4 C         -12.0008   -2.8571   18.9588 C.ar    1  UNL1        0.0575
      5 CL        -11.0891   -1.6661   18.9820 Cl      1  UNL1       -0.0823
      6 C         -13.4874   -2.6628   18.9125 C.ar    1  UNL1        0.0129
      7 C         -14.3990   -3.8538   18.8893 C.ar    1  UNL1        0.0184
      8 C         -15.8857   -3.6595   18.8430 C.ar    1  UNL1        0.0053
      9 C         -16.7973   -4.8505   18.8198 C.ar    1  UNL1        0.0456
     10 C         -16.2223   -6.2357   18.8430 C.ar    1  UNL1        0.1326
     11 N         -14.7357   -6.4300   18.8893 N.ar    1  UNL1       -0.2310
     12 C         -13.8240   -5.2390   18.9125 C.ar    1  UNL1        0.0787
     13 C         -16.4607   -2.2743   18.8198 C.ar    1  UNL1        0.0002
     14 C         -16.7421   -1.5574   20.1070 C.ar    1  UNL1        0.0000
     15 C         -17.3171   -0.1722   20.0838 C.ar    1  UNL1        0.0000
     16 C         -17.6107    0.4961   18.7735 C.ar    1  UNL1        0.0000
     17 C         -17.3294   -0.2207   17.4862 C.ar    1  UNL1        0.0000
     18 C         -16.7544   -1.6060   17.5094 C.ar    1  UNL1        0.0000
     19 N         -17.1340   -7.4267   18.8198 N.pl3   1  UNL1       -0.2932
     20 C         -17.4646   -8.0928   17.5172 C.3     1  UNL1        0.0922
     21 C         -18.3763   -9.2837   17.4939 C.3     1  UNL1        0.0215
     22 C         -18.9573   -9.8085   18.7734 C.3     1  UNL1        0.0035
     23 C         -18.6267   -9.1423   20.0760 C.3     1  UNL1        0.0215
     24 C         -17.7150   -7.9514   20.0993 C.3     1  UNL1        0.0922
     25 C         -18.2840   -4.6562   18.7735 C.2     1  UNL1        0.0756
     26 O         -19.0645   -4.5341   20.0486 O.co2   1  UNL1       -0.5445
     27 O         -18.9901   -4.5841   17.4521 O.co2   1  UNL1       -0.5445
@<TRIPOS>UNITY_ATOM_ATTR
26 1
charge -1
@<TRIPOS>BOND
     1     1     2    1
     2     2     3   ar
     3     3     4   ar
     4     4     5    1
     5     4     6   ar
     6     6     7   ar
     7     7     8   ar
     8     8    13    1
     9    13    14   ar
    10    14    15   ar
    11    15    16   ar
    12    16    17   ar
    13    17    18   ar
    14     8     9   ar
    15     9    25    1
    16    25    26   ar
    17    25    27   ar
    18     9    10   ar
    19    10    19    1
    20    19    20    1
    21    20    21    1
    22    21    22    1
    23    22    23    1
    24    23    24    1
    25    10    11   ar
    26    11    12   ar
    27    12     2   ar
    28    12     7   ar
    29    18    13   ar
    30    24    19    1
@<TRIPOS>MOLECULE
*****
 27 30 0 0 0
SMALL
GASTEIGER

@<TRIPOS>ATOM
      1 C           8.4115   -7.2605   23.8860 C.3     1  UNL1        0.0326
      2 C           7.9638   -6.2338   24.8837 C.ar    1  UNL1       -0.0033
      3 C           8.2677   -6.4212   26.3406 C.ar    1  UNL1        0.0086
      4 C           7.8201   -5.3944   27.3382 C.ar    1  UNL1        0.0575
      5 CL          8.1240   -5.5819   28.7952 Cl      1  UNL1       -0.0823
      6 C           7.0686   -4.1802   26.8791 C.ar    1  UNL1        0.0129
      7 C           6.7647   -3.9928   25.4222 C.ar    1  UNL1        0.0184
      8 C           6.0131   -2.7786   24.9630 C.ar    1  UNL1        0.0053
      9 C           5.7092   -2.5911   23.5061 C.ar    1  UNL1        0.0456
     10 C           6.1568   -3.6179   22.5084 C.ar    1  UNL1        0.1326
     11 N           6.9084   -4.8321   22.9676 N.ar    1  UNL1       -0.2310
     12 C           7.2123   -5.0196   24.4245 C.ar    1  UNL1        0.0787
     13 C           5.5655   -1.7518   25.9606 C.ar    1  UNL1        0.0002
     14 C           6.4845   -0.6311   26.3472 C.ar    1  UNL1        0.0000
     15 C           6.0368    0.3957   27.3449 C.ar    1  UNL1        0.0000
     16 C           4.6702    0.3018   27.9560 C.ar    1  UNL1        0.0000
     17 C           3.7511   -0.8189   27.5694 C.ar    1  UNL1        0.0000
     18 C           4.1987   -1.8457   26.5717 C.ar    1  UNL1        0.0000
     19 N           5.8529   -3.4304   21.0515 N.pl3   1  UNL1       -0.2932
     20 C           6.8189   -2.6925   20.1727 C.3     1  UNL1        0.0922
     21 C           6.5151   -2.5050   18.7159 C.3     1  UNL1        0.0215
     22 C           5.2451   -3.0555   18.1378 C.3     1  UNL1        0.0035
     23 C           4.2791   -3.7934   19.0166 C.3     1  UNL1        0.0215
     24 C           4.5830   -3.9809   20.4734 C.3     1  UNL1        0.0922
     25 C           4.9576   -1.3769   23.0468 C.2     1  UNL1        0.0756
     26 O           3.4630   -1.4208   22.9272 O.co2   1  UNL1       -0.5445
     27 O           5.7006   -0.1189   22.7073 O.co2   1  UNL1       -0.5445
@<TRIPOS>UNITY_ATOM_ATTR
26 1
charge -1
@<TRIPOS>BOND
     1     1     2    1
     2     2     3   ar
     3     3     4   ar
     4     4     5    1
     5     4     6   ar
     6     6     7   ar
     7     7     8   ar
     8     8    13    1
     9    13    14   ar
    10    14    15   ar
    11    15    16   ar
    12    16    17   ar
    13    17    18   ar
    14     8     9   ar
    15     9    25    1
    16    25    26   ar
    17    25    27   ar
    18     9    10   ar
    19    10    19    1
    20    19    20    1
    21    20    21    1
    22    21    22    1
    23    22    23    1
    24    23    24    1
    25    10    11   ar
    26    11    12   ar
    27    12     2   ar
    28    12     7   ar
    29    18    13   ar
    30    24    19    1
@<TRIPOS>MOLECULE
*****
 27 30 0 0 0
SMALL
GASTEIGER

@<TRIPOS>ATOM
      1 C          -4.8545    3.4336   20.0196 C.3     1  UNL1        0.0326
      2 C          -4.4592    3.5937   21.4577 C.ar    1  UNL1       -0.0033
      3 C          -5.4741    4.0359   22.4698 C.ar    1  UNL1        0.0086
      4 C          -5.0788    4.1959   23.9079 C.ar    1  UNL1        0.0575
      5 CL         -6.0939    4.6381   24.9200 Cl      1  UNL1       -0.0823
      6 C          -3.6686    3.9139   24.3339 C.ar    1  UNL1        0.0129
      7 C          -2.6536    3.4717   23.3219 C.ar    1  UNL1        0.0184
      8 C          -1.2433    3.1896   23.7479 C.ar    1  UNL1        0.0053
      9 C          -0.2283    2.7474   22.7358 C.ar    1  UNL1        0.0456
     10 C          -0.6236    2.5873   21.2977 C.ar    1  UNL1        0.1326
     11 N          -2.0339    2.8694   20.8717 N.ar    1  UNL1       -0.2310
     12 C          -3.0489    3.3116   21.8838 C.ar    1  UNL1        0.0787
     13 C          -0.8480    3.3496   25.1860 C.ar    1  UNL1        0.0002
     14 C          -0.9351    2.1811   26.1223 C.ar    1  UNL1        0.0000
     15 C          -0.5398    2.3411   27.5604 C.ar    1  UNL1        0.0000
     16 C          -0.0573    3.6698   28.0622 C.ar    1  UNL1        0.0000
     17 C           0.0298    4.8385   27.1258 C.ar    1  UNL1        0.0000
     18 C          -0.3655    4.6784   25.6877 C.ar    1  UNL1        0.0000
     19 N           0.3914    2.1451   20.2856 N.pl3   1  UNL1       -0.2932
     20 C           1.2488    3.1607   19.5903 C.3     1  UNL1        0.0922
     21 C           2.2638    2.7185   18.5782 C.3     1  UNL1        0.0215
     22 C           2.4214    1.2609   18.2616 C.3     1  UNL1        0.0035
     23 C           1.5640    0.2453   18.9570 C.3     1  UNL1        0.0215
     24 C           0.5490    0.6875   19.9690 C.3     1  UNL1        0.0922
     25 C           1.1820    2.4653   23.1618 C.2     1  UNL1        0.0756
     26 O           1.5536    1.1042   23.6713 O.co2   1  UNL1       -0.5445
     27 O           2.2208    3.5442   23.0784 O.co2   1  UNL1       -0.5445
@<TRIPOS>UNITY_ATOM_ATTR
26 1
charge -1
@<TRIPOS>BOND
     1     1     2    1
     2     2     3   ar
     3     3     4   ar
     4     4     5    1
     5     4     6   ar
     6     6     7   ar
     7     7     8   ar
     8     8    13    1
     9    13    14   ar
    10    14    15   ar
    11    15    16   ar
    12    16    17   ar
    13    17    18   ar
    14     8     9   ar
    15     9    25    1
    16    25    26   ar
    17    25    27   ar
    18     9    10   ar
    19    10    19    1
    20    19    20    1
    21    20    21    1
    22    21    22    1
    23    22    23    1
    24    23    24    1
    25    10    11   ar
    26    11    12   ar
    27    12     2   ar
    28    12     7   ar
    29    18    13   ar
    30    24    19    1
