@<TRIPOS>MOLECULE
*****
 36 39 0 0 0
SMALL
GASTEIGER

@<TRIPOS>ATOM
      1 C          -3.7397  -19.2305   20.6780 C.3     1  UNL1        0.1146
      2 C          -4.1268  -20.3513   19.7593 C.3     1  UNL1        0.0252
      3 C          -2.6831  -19.0801   19.6241 C.3     1  UNL1        0.1183
      4 N          -1.6530  -17.9963   19.7441 N.am    1  UNL1       -0.2425
      5 C          -0.5963  -17.8458   18.6901 C.3     1  UNL1        0.1183
      6 C          -1.6796  -17.0630   20.9180 C.2     1  UNL1        0.4049
      7 O          -0.6495  -15.9792   21.0380 O.2     1  UNL1       -0.2262
      8 O          -2.7363  -17.2135   21.9720 O.3     1  UNL1       -0.4351
      9 C          -3.7663  -18.2972   21.8520 C.3     1  UNL1        0.2040
     10 N          -7.5068  -19.9470   21.7003 N.am    1  UNL1       -0.2485
     11 C          -6.3158  -19.4074   20.9654 C.2     1  UNL1        0.3059
     12 O          -6.5096  -18.5049   19.7831 O.2     1  UNL1       -0.2524
     13 N          -4.9308  -19.7702   21.4129 N.am    1  UNL1       -0.2867
     14 H          -7.3796  -20.5394   22.4763 H       1  UNL1        0.1583
     15 H          -4.8035  -20.3626   22.1889 H       1  UNL1        0.1510
     16 C         -11.5453  -17.4494   19.3908 C.3     1  UNL1        0.0527
     17 C         -10.7481  -18.4362   20.1913 C.ar    1  UNL1        0.0678
     18 C         -11.2981  -19.6156   20.9374 C.ar    1  UNL1        0.0528
     19 S         -10.1509  -20.3251   21.5934 S.2     1  UNL1       -0.0511
     20 C          -8.8918  -19.5842   21.2529 C.ar    1  UNL1        0.1664
     21 N          -9.2609  -18.4168   20.3863 N.ar    1  UNL1       -0.2282
     22 C          -4.8230  -18.4477   22.9060 C.3     1  UNL1        0.1181
     23 N          -5.6135  -17.2533   23.3513 N.3     1  UNL1       -0.2696
     24 C          -5.0333  -16.3019   24.3555 C.3     1  UNL1        0.0722
     25 C          -5.8238  -15.1074   24.8009 C.3     1  UNL1        0.0174
     26 C          -7.1945  -14.8643   24.2421 C.3     1  UNL1        0.0031
     27 C          -7.7746  -15.8157   23.2380 C.3     1  UNL1        0.0204
     28 C          -6.9841  -17.0102   22.7926 C.3     1  UNL1        0.0725
     29 C          -9.1453  -15.5726   22.6792 C.3     1  UNL1        0.0277
     30 C         -10.3028  -16.4068   23.1422 C.ar    1  UNL1       -0.0220
     31 C         -11.6912  -16.0908   22.6705 C.ar    1  UNL1       -0.0020
     32 C         -12.8487  -16.9251   23.1335 C.ar    1  UNL1        0.0293
     33 C         -12.6177  -18.0753   24.0682 C.ar    1  UNL1        0.1401
     34 F         -13.7751  -18.9095   24.5313 F       1  UNL1       -0.2042
     35 C         -11.2293  -18.3912   24.5399 C.ar    1  UNL1        0.0293
     36 C         -10.0718  -17.5570   24.0769 C.ar    1  UNL1       -0.0020
@<TRIPOS>BOND
     1    16    17    1
     2    17    18   ar
     3    18    19   ar
     4    19    20   ar
     5    20    10    1
     6    10    11   am
     7    11    12    2
     8    11    13   am
     9    13     1    1
    10     1     2    1
    11     1     3    1
    12     3     4    1
    13     4     5    1
    14     4     6   am
    15     6     7    2
    16     6     8    1
    17     8     9    1
    18     9    22    1
    19    22    23    1
    20    23    24    1
    21    24    25    1
    22    25    26    1
    23    26    27    1
    24    27    29    1
    25    29    30    1
    26    30    31   ar
    27    31    32   ar
    28    32    33   ar
    29    33    34    1
    30    33    35   ar
    31    35    36   ar
    32    27    28    1
    33    20    21   ar
    34    21    17   ar
    35     9     1    1
    36    28    23    1
    37    36    30   ar
    38    10    14    1
    39    13    15    1
@<TRIPOS>MOLECULE
*****
 36 39 0 0 0
SMALL
GASTEIGER

@<TRIPOS>ATOM
      1 C          -6.5915    4.6290   24.3352 C.3     1  UNL1        0.1146
      2 C          -7.6452    4.6836   23.2691 C.3     1  UNL1        0.0252
      3 C          -7.5011    5.6679   24.9210 C.3     1  UNL1        0.1183
      4 N          -7.1681    6.2979   26.2409 N.am    1  UNL1       -0.2425
      5 C          -8.0777    7.3369   26.8268 C.3     1  UNL1        0.1183
      6 C          -5.9255    5.8891   26.9750 C.2     1  UNL1        0.4049
      7 O          -5.5926    6.5192   28.2949 O.2     1  UNL1       -0.2262
      8 O          -5.0159    4.8501   26.3891 O.3     1  UNL1       -0.4351
      9 C          -5.3489    4.2201   25.0692 C.3     1  UNL1        0.2040
     10 N          -5.0131    3.0151   21.0712 N.am    1  UNL1       -0.2485
     11 C          -5.5567    4.0350   22.0273 C.2     1  UNL1        0.3059
     12 O          -5.6093    5.4809   21.6316 O.2     1  UNL1       -0.2524
     13 N          -6.0478    3.6090   23.3791 N.am    1  UNL1       -0.2867
     14 H          -4.9785    2.0661   21.3309 H       1  UNL1        0.1583
     15 H          -6.0133    2.6600   23.6388 H       1  UNL1        0.1510
     16 C          -1.8492    4.5445   17.1301 C.3     1  UNL1        0.0527
     17 C          -3.0678    4.1440   17.9078 C.ar    1  UNL1        0.0678
     18 C          -4.4650    4.0491   17.3703 C.ar    1  UNL1        0.0528
     19 S          -5.3637    3.6146   18.4899 S.2     1  UNL1       -0.0511
     20 C          -4.5220    3.4410   19.7193 C.ar    1  UNL1        0.1664
     21 N          -3.1030    3.7682   19.3596 N.ar    1  UNL1       -0.2282
     22 C          -4.4393    3.1811   24.4833 C.3     1  UNL1        0.1181
     23 N          -2.9529    3.3800   24.5181 N.3     1  UNL1       -0.2696
     24 C          -2.2015    3.1963   25.8033 C.3     1  UNL1        0.0722
     25 C          -0.7151    3.3953   25.8380 C.3     1  UNL1        0.0174
     26 C           0.0198    3.7779   24.5876 C.3     1  UNL1        0.0031
     27 C          -0.7317    3.9615   23.3024 C.3     1  UNL1        0.0204
     28 C          -2.2180    3.7626   23.2677 C.3     1  UNL1        0.0725
     29 C           0.0033    4.3442   22.0520 C.3     1  UNL1        0.0277
     30 C           0.2904    3.3096   21.0045 C.ar    1  UNL1       -0.0220
     31 C           0.7667    3.7301   19.6457 C.ar    1  UNL1       -0.0020
     32 C           1.0539    2.6955   18.5982 C.ar    1  UNL1        0.0293
     33 C           0.8647    1.2404   18.9096 C.ar    1  UNL1        0.1401
     34 F           1.1519    0.2058   17.8621 F       1  UNL1       -0.2042
     35 C           0.3884    0.8199   20.2684 C.ar    1  UNL1        0.0293
     36 C           0.1013    1.8545   21.3158 C.ar    1  UNL1       -0.0020
@<TRIPOS>BOND
     1    16    17    1
     2    17    18   ar
     3    18    19   ar
     4    19    20   ar
     5    20    10    1
     6    10    11   am
     7    11    12    2
     8    11    13   am
     9    13     1    1
    10     1     2    1
    11     1     3    1
    12     3     4    1
    13     4     5    1
    14     4     6   am
    15     6     7    2
    16     6     8    1
    17     8     9    1
    18     9    22    1
    19    22    23    1
    20    23    24    1
    21    24    25    1
    22    25    26    1
    23    26    27    1
    24    27    29    1
    25    29    30    1
    26    30    31   ar
    27    31    32   ar
    28    32    33   ar
    29    33    34    1
    30    33    35   ar
    31    35    36   ar
    32    27    28    1
    33    20    21   ar
    34    21    17   ar
    35     9     1    1
    36    28    23    1
    37    36    30   ar
    38    10    14    1
    39    13    15    1
@<TRIPOS>MOLECULE
*****
 36 39 0 0 0
SMALL
GASTEIGER

@<TRIPOS>ATOM
      1 C          -3.6404    3.5587   19.8048 C.3     1  UNL1        0.1146
      2 C          -5.1057    3.3188   20.0174 C.3     1  UNL1        0.0252
      3 C          -4.1739    4.0134   18.4786 C.3     1  UNL1        0.1183
      4 N          -3.2335    4.5211   17.4262 N.am    1  UNL1       -0.2425
      5 C          -3.7669    4.9758   16.0999 C.3     1  UNL1        0.1183
      6 C          -1.7596    4.5742   17.6998 C.2     1  UNL1        0.4049
      7 O          -0.8192    5.0820   16.6472 O.2     1  UNL1       -0.2262
      8 O          -1.2261    4.1195   19.0259 O.3     1  UNL1       -0.4351
      9 C          -2.1665    3.6118   20.0784 C.3     1  UNL1        0.2040
     10 N          -4.1477    3.3005   23.7323 N.am    1  UNL1       -0.2485
     11 C          -4.1723    3.8385   22.3324 C.2     1  UNL1        0.3059
     12 O          -4.7533    5.1943   22.0600 O.2     1  UNL1       -0.2524
     13 N          -3.6158    3.0207   21.2047 N.am    1  UNL1       -0.2867
     14 H          -3.7664    2.4107   23.9111 H       1  UNL1        0.1583
     15 H          -3.2345    2.1308   21.3835 H       1  UNL1        0.1510
     16 C          -7.3568    6.3293   26.6323 C.3     1  UNL1        0.0527
     17 C          -6.1792    5.5105   26.1929 C.ar    1  UNL1        0.0678
     18 C          -4.9417    5.2432   26.9975 C.ar    1  UNL1        0.0528
     19 S          -4.0302    4.3829   26.1737 S.2     1  UNL1       -0.0511
     20 C          -4.7042    4.1184   24.8600 C.ar    1  UNL1        0.1664
     21 N          -6.0324    4.8153   24.8719 N.ar    1  UNL1       -0.2282
     22 C          -1.6331    3.1570   21.4046 C.3     1  UNL1        0.1181
     23 N          -0.3124    2.4497   21.4791 N.3     1  UNL1       -0.2696
     24 C           0.8106    3.0404   22.2792 C.3     1  UNL1        0.0722
     25 C           2.1313    2.3331   22.3537 C.3     1  UNL1        0.0174
     26 C           2.3289    1.0352   21.6282 C.3     1  UNL1        0.0031
     27 C           1.2059    0.4445   20.8283 C.3     1  UNL1        0.0204
     28 C          -0.1147    1.1518   20.7537 C.3     1  UNL1        0.0725
     29 C           1.4036   -0.8534   20.1028 C.3     1  UNL1        0.0277
     30 C           2.7357   -1.1770   19.4939 C.ar    1  UNL1       -0.0220
     31 C           3.2004   -0.4415   18.2719 C.ar    1  UNL1       -0.0020
     32 C           4.5325   -0.7651   17.6630 C.ar    1  UNL1        0.0293
     33 C           5.4000   -1.8241   18.2762 C.ar    1  UNL1        0.1401
     34 F           6.7321   -2.1477   17.6673 F       1  UNL1       -0.2042
     35 C           4.9354   -2.5596   19.4981 C.ar    1  UNL1        0.0293
     36 C           3.6032   -2.2360   20.1070 C.ar    1  UNL1       -0.0020
@<TRIPOS>BOND
     1    16    17    1
     2    17    18   ar
     3    18    19   ar
     4    19    20   ar
     5    20    10    1
     6    10    11   am
     7    11    12    2
     8    11    13   am
     9    13     1    1
    10     1     2    1
    11     1     3    1
    12     3     4    1
    13     4     5    1
    14     4     6   am
    15     6     7    2
    16     6     8    1
    17     8     9    1
    18     9    22    1
    19    22    23    1
    20    23    24    1
    21    24    25    1
    22    25    26    1
    23    26    27    1
    24    27    29    1
    25    29    30    1
    26    30    31   ar
    27    31    32   ar
    28    32    33   ar
    29    33    34    1
    30    33    35   ar
    31    35    36   ar
    32    27    28    1
    33    20    21   ar
    34    21    17   ar
    35     9     1    1
    36    28    23    1
    37    36    30   ar
    38    10    14    1
    39    13    15    1
@<TRIPOS>MOLECULE
*****
 36 39 0 0 0
SMALL
GASTEIGER

@<TRIPOS>ATOM
      1 C          -1.4626    3.4681   24.0470 C.3     1  UNL1        0.1146
      2 C          -1.2120    3.5207   25.5249 C.3     1  UNL1        0.0252
      3 C          -2.8729    3.5737   24.5466 C.3     1  UNL1        0.1183
      4 N          -4.0138    3.5964   23.5731 N.am    1  UNL1       -0.2425
      5 C          -5.4242    3.7020   24.0727 C.3     1  UNL1        0.1183
      6 C          -3.7443    3.5135   22.0998 C.2     1  UNL1        0.4049
      7 O          -4.8852    3.5362   21.1262 O.2     1  UNL1       -0.2262
      8 O          -2.3339    3.4079   21.6001 O.3     1  UNL1       -0.4351
      9 C          -1.1931    3.3852   22.5737 C.3     1  UNL1        0.2040
     10 N           2.2063    2.0463   24.5645 N.am    1  UNL1       -0.2485
     11 C           0.7089    2.1336   24.5508 C.2     1  UNL1        0.3059
     12 O          -0.1144    0.9739   25.0275 O.2     1  UNL1       -0.2524
     13 N           0.0348    3.3808   24.0606 N.am    1  UNL1       -0.2867
     14 H           2.7466    2.8075   24.2516 H       1  UNL1        0.1583
     15 H           0.5751    4.1419   23.7478 H       1  UNL1        0.1510
     16 C           4.4005   -1.5617   27.7344 C.3     1  UNL1        0.0527
     17 C           3.8889   -0.8593   26.5117 C.ar    1  UNL1        0.0678
     18 C           3.9464   -1.3807   25.1064 C.ar    1  UNL1        0.0528
     19 S           3.3230   -0.3558   24.2060 S.2     1  UNL1       -0.0511
     20 C           2.8804    0.7991   25.0547 C.ar    1  UNL1        0.1664
     21 N           3.2301    0.4880   26.4798 N.ar    1  UNL1       -0.2282
     22 C           0.2174    3.2796   22.0741 C.3     1  UNL1        0.1181
     23 N           0.5341    2.3971   20.9032 N.3     1  UNL1       -0.2696
     24 C           0.2588    2.8745   19.5081 C.3     1  UNL1        0.0722
     25 C           0.5755    1.9921   18.3372 C.3     1  UNL1        0.0174
     26 C           1.1677    0.6322   18.5615 C.3     1  UNL1        0.0031
     27 C           1.4430    0.1549   19.9566 C.3     1  UNL1        0.0204
     28 C           1.1262    1.0373   21.1274 C.3     1  UNL1        0.0725
     29 C           2.0351   -1.2050   20.1808 C.3     1  UNL1        0.0277
     30 C           3.3961   -1.5289   19.6398 C.ar    1  UNL1       -0.0220
     31 C           3.6664   -2.8816   19.0504 C.ar    1  UNL1       -0.0020
     32 C           5.0274   -3.2055   18.5094 C.ar    1  UNL1        0.0293
     33 C           6.1181   -2.1768   18.5577 C.ar    1  UNL1        0.1401
     34 F           7.4791   -2.5007   18.0167 F       1  UNL1       -0.2042
     35 C           5.8477   -0.8242   19.1470 C.ar    1  UNL1        0.0293
     36 C           4.4867   -0.5003   19.6881 C.ar    1  UNL1       -0.0020
@<TRIPOS>BOND
     1    16    17    1
     2    17    18   ar
     3    18    19   ar
     4    19    20   ar
     5    20    10    1
     6    10    11   am
     7    11    12    2
     8    11    13   am
     9    13     1    1
    10     1     2    1
    11     1     3    1
    12     3     4    1
    13     4     5    1
    14     4     6   am
    15     6     7    2
    16     6     8    1
    17     8     9    1
    18     9    22    1
    19    22    23    1
    20    23    24    1
    21    24    25    1
    22    25    26    1
    23    26    27    1
    24    27    29    1
    25    29    30    1
    26    30    31   ar
    27    31    32   ar
    28    32    33   ar
    29    33    34    1
    30    33    35   ar
    31    35    36   ar
    32    27    28    1
    33    20    21   ar
    34    21    17   ar
    35     9     1    1
    36    28    23    1
    37    36    30   ar
    38    10    14    1
    39    13    15    1
@<TRIPOS>MOLECULE
*****
 36 39 0 0 0
SMALL
GASTEIGER

@<TRIPOS>ATOM
      1 C          -2.6947    4.6456   22.3445 C.3     1  UNL1        0.1146
      2 C          -2.6831    5.7159   23.3954 C.3     1  UNL1        0.0252
      3 C          -3.9919    5.3311   22.0325 C.3     1  UNL1        0.1183
      4 N          -4.8487    4.8372   20.9047 N.am    1  UNL1       -0.2425
      5 C          -6.1460    5.5227   20.5926 C.3     1  UNL1        0.1183
      6 C          -4.4083    3.6580   20.0890 C.2     1  UNL1        0.4049
      7 O          -5.2652    3.1642   18.9611 O.2     1  UNL1       -0.2262
      8 O          -3.1111    2.9725   20.4010 O.3     1  UNL1       -0.4351
      9 C          -2.2543    3.4664   21.5288 C.3     1  UNL1        0.2040
     10 N          -0.0870    3.3298   25.0313 N.am    1  UNL1       -0.2485
     11 C          -1.3883    3.6436   24.3543 C.2     1  UNL1        0.3059
     12 O          -2.6843    3.2691   25.0100 O.2     1  UNL1       -0.2524
     13 N          -1.3934    4.3319   23.0215 N.am    1  UNL1       -0.2867
     14 H           0.7636    3.5757   24.6009 H       1  UNL1        0.1583
     15 H          -0.5428    4.5777   22.5912 H       1  UNL1        0.1510
     16 C          -0.6988   -0.3132   28.8043 C.3     1  UNL1        0.0527
     17 C          -0.3630    0.9671   28.0984 C.ar    1  UNL1        0.0678
     18 C           0.2152    2.1978   28.7317 C.ar    1  UNL1        0.0528
     19 S           0.3890    3.2326   27.6599 S.2     1  UNL1       -0.0511
     20 C          -0.0819    2.6415   26.3641 C.ar    1  UNL1        0.1664
     21 N          -0.5466    1.2414   26.6351 N.ar    1  UNL1       -0.2282
     22 C          -0.9570    2.7809   21.8409 C.3     1  UNL1        0.1181
     23 N          -0.1930    2.0894   20.7509 N.3     1  UNL1       -0.2696
     24 C          -0.0829    2.7214   19.3950 C.3     1  UNL1        0.0722
     25 C           0.6811    2.0299   18.3050 C.3     1  UNL1        0.0174
     26 C           1.3351    0.7063   18.5710 C.3     1  UNL1        0.0031
     27 C           1.2250    0.0744   19.9269 C.3     1  UNL1        0.0204
     28 C           0.4610    0.7659   21.0169 C.3     1  UNL1        0.0725
     29 C           1.8790   -1.2491   20.1929 C.3     1  UNL1        0.0277
     30 C           3.2477   -1.5323   19.6483 C.ar    1  UNL1       -0.0220
     31 C           4.3157   -0.4815   19.7205 C.ar    1  UNL1       -0.0020
     32 C           5.6844   -0.7646   19.1760 C.ar    1  UNL1        0.0293
     33 C           5.9850   -2.0986   18.5593 C.ar    1  UNL1        0.1401
     34 F           7.3537   -2.3817   18.0147 F       1  UNL1       -0.2042
     35 C           4.9170   -3.1493   18.4871 C.ar    1  UNL1        0.0293
     36 C           3.5483   -2.8661   19.0317 C.ar    1  UNL1       -0.0020
@<TRIPOS>BOND
     1    16    17    1
     2    17    18   ar
     3    18    19   ar
     4    19    20   ar
     5    20    10    1
     6    10    11   am
     7    11    12    2
     8    11    13   am
     9    13     1    1
    10     1     2    1
    11     1     3    1
    12     3     4    1
    13     4     5    1
    14     4     6   am
    15     6     7    2
    16     6     8    1
    17     8     9    1
    18     9    22    1
    19    22    23    1
    20    23    24    1
    21    24    25    1
    22    25    26    1
    23    26    27    1
    24    27    29    1
    25    29    30    1
    26    30    31   ar
    27    31    32   ar
    28    32    33   ar
    29    33    34    1
    30    33    35   ar
    31    35    36   ar
    32    27    28    1
    33    20    21   ar
    34    21    17   ar
    35     9     1    1
    36    28    23    1
    37    36    30   ar
    38    10    14    1
    39    13    15    1
@<TRIPOS>MOLECULE
*****
 36 39 0 0 0
SMALL
GASTEIGER

@<TRIPOS>ATOM
      1 C           6.4503   -2.0315   29.9526 C.3     1  UNL1        0.1146
      2 C           6.5849   -1.0993   28.7852 C.3     1  UNL1        0.0252
      3 C           7.3457   -2.8484   29.0690 C.3     1  UNL1        0.1183
      4 N           7.8118   -4.2013   29.5189 N.am    1  UNL1       -0.2425
      5 C           8.7073   -5.0182   28.6353 C.3     1  UNL1        0.1183
      6 C           7.3824   -4.7373   30.8524 C.2     1  UNL1        0.4049
      7 O           7.8485   -6.0902   31.3023 O.2     1  UNL1       -0.2262
      8 O           6.4869   -3.9204   31.7360 O.3     1  UNL1       -0.4351
      9 C           6.0208   -2.5675   31.2861 C.3     1  UNL1        0.2040
     10 N           3.4110    0.4985   30.2863 N.am    1  UNL1       -0.2485
     11 C           4.2597   -0.6421   29.8081 C.2     1  UNL1        0.3059
     12 O           3.7666   -1.5338   28.7074 O.2     1  UNL1       -0.2524
     13 N           5.6015   -0.8909   30.4308 N.am    1  UNL1       -0.2867
     14 H           3.7346    1.0838   31.0088 H       1  UNL1        0.1583
     15 H           5.9252   -0.3056   31.1532 H       1  UNL1        0.1510
     16 C          -1.6903    0.0456   29.0004 C.3     1  UNL1        0.0527
     17 C          -0.2756    0.5392   29.0726 C.ar    1  UNL1        0.0678
     18 C           0.2843    1.7215   28.3386 C.ar    1  UNL1        0.0528
     19 S           1.7333    1.8501   28.7039 S.2     1  UNL1       -0.0511
     20 C           2.0691    0.7474   29.6637 C.ar    1  UNL1        0.1664
     21 N           0.8276   -0.0628   29.8916 N.ar    1  UNL1       -0.2282
     22 C           5.1253   -1.7506   32.1697 C.3     1  UNL1        0.1181
     23 N           5.6728   -1.1226   33.4171 N.3     1  UNL1       -0.2696
     24 C           7.1334   -0.7949   33.5130 C.3     1  UNL1        0.0722
     25 C           7.6809   -0.1669   34.7603 C.3     1  UNL1        0.0174
     26 C           6.7676    0.1334   35.9119 C.3     1  UNL1        0.0031
     27 C           5.3071   -0.1943   35.8160 C.3     1  UNL1        0.0204
     28 C           4.7596   -0.8223   34.5686 C.3     1  UNL1        0.0725
     29 C           4.3938    0.1059   36.9675 C.3     1  UNL1        0.0277
     30 C           3.5464    1.3435   36.9497 C.ar    1  UNL1       -0.0220
     31 C           3.3837    2.1228   35.6784 C.ar    1  UNL1       -0.0020
     32 C           2.5363    3.3604   35.6606 C.ar    1  UNL1        0.0293
     33 C           1.8517    3.8187   36.9142 C.ar    1  UNL1        0.1401
     34 F           1.0043    5.0563   36.8964 F       1  UNL1       -0.2042
     35 C           2.0144    3.0394   38.1854 C.ar    1  UNL1        0.0293
     36 C           2.8618    1.8018   38.2032 C.ar    1  UNL1       -0.0020
@<TRIPOS>BOND
     1    16    17    1
     2    17    18   ar
     3    18    19   ar
     4    19    20   ar
     5    20    10    1
     6    10    11   am
     7    11    12    2
     8    11    13   am
     9    13     1    1
    10     1     2    1
    11     1     3    1
    12     3     4    1
    13     4     5    1
    14     4     6   am
    15     6     7    2
    16     6     8    1
    17     8     9    1
    18     9    22    1
    19    22    23    1
    20    23    24    1
    21    24    25    1
    22    25    26    1
    23    26    27    1
    24    27    29    1
    25    29    30    1
    26    30    31   ar
    27    31    32   ar
    28    32    33   ar
    29    33    34    1
    30    33    35   ar
    31    35    36   ar
    32    27    28    1
    33    20    21   ar
    34    21    17   ar
    35     9     1    1
    36    28    23    1
    37    36    30   ar
    38    10    14    1
    39    13    15    1
@<TRIPOS>MOLECULE
*****
 36 39 0 0 0
SMALL
GASTEIGER

@<TRIPOS>ATOM
      1 C          -0.1953    3.1439   19.3133 C.3     1  UNL1        0.1146
      2 C           0.7768    3.4855   18.2233 C.3     1  UNL1        0.0252
      3 C          -1.1142    3.8401   18.3537 C.3     1  UNL1        0.1183
      4 N          -2.5688    3.9940   18.6859 N.am    1  UNL1       -0.2425
      5 C          -3.4878    4.6902   17.7263 C.3     1  UNL1        0.1183
      6 C          -3.1045    3.4518   19.9778 C.2     1  UNL1        0.4049
      7 O          -4.5592    3.6057   20.3101 O.2     1  UNL1       -0.2262
      8 O          -2.1856    2.7556   20.9375 O.3     1  UNL1       -0.4351
      9 C          -0.7310    2.6017   20.6052 C.3     1  UNL1        0.2040
     10 N           2.8636    0.6960   19.9460 N.am    1  UNL1       -0.2485
     11 C           1.6071    1.2735   19.3649 C.2     1  UNL1        0.3059
     12 O           0.8966    0.5581   18.2543 O.2     1  UNL1       -0.2524
     13 N           1.0612    2.5664   19.8944 N.am    1  UNL1       -0.2867
     14 H           3.3300    1.1655   20.6749 H       1  UNL1        0.1583
     15 H           1.5275    3.0359   20.6233 H       1  UNL1        0.1510
     16 C           3.6662   -4.4597   19.1360 C.3     1  UNL1        0.0527
     17 C           3.7785   -2.9667   19.0442 C.ar    1  UNL1        0.0678
     18 C           4.7210   -2.2062   18.1590 C.ar    1  UNL1        0.0528
     19 S           4.4930   -0.7417   18.3891 S.2     1  UNL1       -0.0511
     20 C           3.4096   -0.5969   19.4164 C.ar    1  UNL1        0.1664
     21 N           2.9680   -1.9721   19.8213 N.ar    1  UNL1       -0.2282
     22 C           0.1880    1.9055   21.5649 C.3     1  UNL1        0.1181
     23 N          -0.0190    2.0540   23.0431 N.3     1  UNL1       -0.2696
     24 C           0.6432    1.1001   23.9927 C.3     1  UNL1        0.0722
     25 C           0.4362    1.2486   25.4709 C.3     1  UNL1        0.0174
     26 C          -0.4330    2.3510   25.9995 C.3     1  UNL1        0.0031
     27 C          -1.0951    3.3048   25.0499 C.3     1  UNL1        0.0204
     28 C          -0.8882    3.1563   23.5717 C.3     1  UNL1        0.0725
     29 C          -1.9643    4.4072   25.5785 C.3     1  UNL1        0.0277
     30 C          -3.4285    4.4292   25.2533 C.ar    1  UNL1       -0.0220
     31 C          -4.3755    5.2153   26.1109 C.ar    1  UNL1       -0.0020
     32 C          -5.8396    5.2373   25.7856 C.ar    1  UNL1        0.0293
     33 C          -6.3568    4.4733   24.6028 C.ar    1  UNL1        0.1401
     34 F          -7.8209    4.4953   24.2776 F       1  UNL1       -0.2042
     35 C          -5.4098    3.6873   23.7454 C.ar    1  UNL1        0.0293
     36 C          -3.9456    3.6653   24.0706 C.ar    1  UNL1       -0.0020
@<TRIPOS>BOND
     1    16    17    1
     2    17    18   ar
     3    18    19   ar
     4    19    20   ar
     5    20    10    1
     6    10    11   am
     7    11    12    2
     8    11    13   am
     9    13     1    1
    10     1     2    1
    11     1     3    1
    12     3     4    1
    13     4     5    1
    14     4     6   am
    15     6     7    2
    16     6     8    1
    17     8     9    1
    18     9    22    1
    19    22    23    1
    20    23    24    1
    21    24    25    1
    22    25    26    1
    23    26    27    1
    24    27    29    1
    25    29    30    1
    26    30    31   ar
    27    31    32   ar
    28    32    33   ar
    29    33    34    1
    30    33    35   ar
    31    35    36   ar
    32    27    28    1
    33    20    21   ar
    34    21    17   ar
    35     9     1    1
    36    28    23    1
    37    36    30   ar
    38    10    14    1
    39    13    15    1
@<TRIPOS>MOLECULE
*****
 36 39 0 0 0
SMALL
GASTEIGER

@<TRIPOS>ATOM
      1 C          -0.6796    3.2801   19.1232 C.3     1  UNL1        0.1146
      2 C           0.2461    3.5308   17.9699 C.3     1  UNL1        0.0252
      3 C          -1.6550    3.8181   18.1187 C.3     1  UNL1        0.1183
      4 N          -3.1056    3.9488   18.4773 N.am    1  UNL1       -0.2425
      5 C          -4.0810    4.4868   17.4727 C.3     1  UNL1        0.1183
      6 C          -3.5808    3.5415   19.8404 C.2     1  UNL1        0.4049
      7 O          -5.0315    3.6722   20.1990 O.2     1  UNL1       -0.2262
      8 O          -2.6055    3.0035   20.8450 O.3     1  UNL1       -0.4351
      9 C          -1.1549    2.8728   20.4864 C.3     1  UNL1        0.2040
     10 N           2.5514    1.1006   19.8714 N.am    1  UNL1       -0.2485
     11 C           1.2546    1.5515   19.2674 C.2     1  UNL1        0.3059
     12 O           0.5952    0.7249   18.2035 O.2     1  UNL1       -0.2524
     13 N           0.6172    2.8291   19.7273 N.am    1  UNL1       -0.2867
     14 H           2.9842    1.6431   20.5697 H       1  UNL1        0.1583
     15 H           1.0500    3.3717   20.4256 H       1  UNL1        0.1510
     16 C           3.6662   -4.0268   19.2811 C.3     1  UNL1        0.0527
     17 C           3.7013   -2.5338   19.1402 C.ar    1  UNL1        0.0678
     18 C           4.6382   -1.7522   18.2676 C.ar    1  UNL1        0.0528
     19 S           4.3215   -0.2958   18.4353 S.2     1  UNL1       -0.0511
     20 C           3.1889   -0.1770   19.4116 C.ar    1  UNL1        0.1664
     21 N           2.8055   -1.5602   19.8472 N.ar    1  UNL1       -0.2282
     22 C          -0.1795    2.3348   21.4910 C.3     1  UNL1        0.1181
     23 N           0.0336    3.0547   22.7896 N.3     1  UNL1       -0.2696
     24 C           0.8867    4.2879   22.8322 C.3     1  UNL1        0.0722
     25 C           1.0998    5.0078   24.1308 C.3     1  UNL1        0.0174
     26 C           0.4598    4.4947   25.3867 C.3     1  UNL1        0.0031
     27 C          -0.3933    3.2617   25.3439 C.3     1  UNL1        0.0204
     28 C          -0.6063    2.5417   24.0454 C.3     1  UNL1        0.0725
     29 C          -1.0333    2.7485   26.5998 C.3     1  UNL1        0.0277
     30 C          -0.2784    1.8147   27.4988 C.ar    1  UNL1       -0.0220
     31 C          -0.9912    0.6757   28.1656 C.ar    1  UNL1       -0.0020
     32 C          -0.2363   -0.2581   29.0646 C.ar    1  UNL1        0.0293
     33 C           1.2314   -0.0530   29.2966 C.ar    1  UNL1        0.1401
     34 F           1.9864   -0.9868   30.1956 F       1  UNL1       -0.2042
     35 C           1.9442    1.0860   28.6298 C.ar    1  UNL1        0.0293
     36 C           1.1893    2.0198   27.7309 C.ar    1  UNL1       -0.0020
@<TRIPOS>BOND
     1    16    17    1
     2    17    18   ar
     3    18    19   ar
     4    19    20   ar
     5    20    10    1
     6    10    11   am
     7    11    12    2
     8    11    13   am
     9    13     1    1
    10     1     2    1
    11     1     3    1
    12     3     4    1
    13     4     5    1
    14     4     6   am
    15     6     7    2
    16     6     8    1
    17     8     9    1
    18     9    22    1
    19    22    23    1
    20    23    24    1
    21    24    25    1
    22    25    26    1
    23    26    27    1
    24    27    29    1
    25    29    30    1
    26    30    31   ar
    27    31    32   ar
    28    32    33   ar
    29    33    34    1
    30    33    35   ar
    31    35    36   ar
    32    27    28    1
    33    20    21   ar
    34    21    17   ar
    35     9     1    1
    36    28    23    1
    37    36    30   ar
    38    10    14    1
    39    13    15    1
@<TRIPOS>MOLECULE
*****
 36 39 0 0 0
SMALL
GASTEIGER

@<TRIPOS>ATOM
      1 C           6.1617   -2.6783   27.1303 C.3     1  UNL1        0.1146
      2 C           5.9740   -1.7236   28.2719 C.3     1  UNL1        0.0252
      3 C           6.5117   -3.5755   28.2802 C.3     1  UNL1        0.1183
      4 N           6.9052   -5.0006   28.0268 N.am    1  UNL1       -0.2425
      5 C           7.2552   -5.8979   29.1768 C.3     1  UNL1        0.1183
      6 C           6.9487   -5.5284   26.6234 C.2     1  UNL1        0.4049
      7 O           7.3422   -6.9536   26.3700 O.2     1  UNL1       -0.2262
      8 O           6.5987   -4.6312   25.4735 O.3     1  UNL1       -0.4351
      9 C           6.2052   -3.2061   25.7269 C.3     1  UNL1        0.2040
     10 N           3.9050    0.2413   25.6698 N.am    1  UNL1       -0.2485
     11 C           4.3202   -0.9875   26.4233 C.2     1  UNL1        0.3059
     12 O           3.3091   -1.7542   27.2231 O.2     1  UNL1       -0.2524
     13 N           5.7465   -1.4495   26.3768 N.am    1  UNL1       -0.2867
     14 H           4.5686    0.7445   25.1448 H       1  UNL1        0.1583
     15 H           6.4101   -0.9463   25.8518 H       1  UNL1        0.1510
     16 C          -0.7988    1.8446   27.4544 C.3     1  UNL1        0.0527
     17 C           0.3165    1.4403   26.5365 C.ar    1  UNL1        0.0678
     18 C           0.2510    1.3884   25.0388 C.ar    1  UNL1        0.0528
     19 S           1.5872    0.9330   24.5318 S.2     1  UNL1       -0.0511
     20 C           2.4786    0.7033   25.7162 C.ar    1  UNL1        0.1664
     21 N           1.6933    1.0169   26.9551 N.ar    1  UNL1       -0.2282
     22 C           5.8551   -2.3088   24.5769 C.3     1  UNL1        0.1181
     23 N           5.9608   -2.8173   23.1697 N.3     1  UNL1       -0.2696
     24 C           7.2571   -3.3856   22.6729 C.3     1  UNL1        0.0722
     25 C           7.3627   -3.8942   21.2657 C.3     1  UNL1        0.0174
     26 C           6.1720   -3.8344   20.3553 C.3     1  UNL1        0.0031
     27 C           4.8758   -3.2661   20.8521 C.3     1  UNL1        0.0204
     28 C           4.7702   -2.7576   22.2593 C.3     1  UNL1        0.0725
     29 C           3.6852   -3.2063   19.9417 C.3     1  UNL1        0.0277
     30 C           3.1579   -1.8792   19.4827 C.ar    1  UNL1       -0.0220
     31 C           2.0279   -1.2251   20.2213 C.ar    1  UNL1       -0.0020
     32 C           1.5006    0.1021   19.7624 C.ar    1  UNL1        0.0293
     33 C           2.1033    0.7751   18.5649 C.ar    1  UNL1        0.1401
     34 F           1.5760    2.1023   18.1059 F       1  UNL1       -0.2042
     35 C           3.2331    0.1210   17.8264 C.ar    1  UNL1        0.0293
     36 C           3.7604   -1.2062   18.2853 C.ar    1  UNL1       -0.0020
@<TRIPOS>BOND
     1    16    17    1
     2    17    18   ar
     3    18    19   ar
     4    19    20   ar
     5    20    10    1
     6    10    11   am
     7    11    12    2
     8    11    13   am
     9    13     1    1
    10     1     2    1
    11     1     3    1
    12     3     4    1
    13     4     5    1
    14     4     6   am
    15     6     7    2
    16     6     8    1
    17     8     9    1
    18     9    22    1
    19    22    23    1
    20    23    24    1
    21    24    25    1
    22    25    26    1
    23    26    27    1
    24    27    29    1
    25    29    30    1
    26    30    31   ar
    27    31    32   ar
    28    32    33   ar
    29    33    34    1
    30    33    35   ar
    31    35    36   ar
    32    27    28    1
    33    20    21   ar
    34    21    17   ar
    35     9     1    1
    36    28    23    1
    37    36    30   ar
    38    10    14    1
    39    13    15    1
