@<TRIPOS>MOLECULE
*****
 23 27 0 0 0
SMALL
GASTEIGER

@<TRIPOS>ATOM
      1 N          -6.8372  -19.5775   21.1086 N.am    1  UNL1       -0.2214
      2 C          -5.7398  -18.8443   21.8215 C.3     1  UNL1        0.1428
      3 C          -4.4329  -19.4605   21.4187 C.3     1  UNL1        0.1706
      4 C          -3.2093  -20.1747   20.9261 C.3     1  UNL1        0.1145
      5 N          -1.8512  -19.7512   21.4017 N.3     1  UNL1       -0.2697
      6 C          -1.7166  -18.6136   22.3699 C.3     1  UNL1        0.0723
      7 C          -2.9402  -17.8993   22.8625 C.3     1  UNL1        0.0209
      8 C          -4.2983  -18.3228   22.3870 C.3     1  UNL1        0.0427
      9 C          -3.7991  -19.2628   21.6407 C.3     1  UNL1        0.0209
     10 C          -3.1465  -19.6438   21.3779 C.3     1  UNL1        0.0723
     11 O          -4.7225  -20.5744   20.4568 O.3     1  UNL1       -0.4384
     12 C          -6.2085  -20.6467   20.2651 C.2     1  UNL1        0.4086
     13 O          -6.9376  -21.6177   19.3846 O.2     1  UNL1       -0.2258
     14 C         -13.8680  -17.9380   24.1910 C.3     1  UNL1        0.0725
     15 C         -12.6656  -18.2515   23.3510 C.ar    1  UNL1        0.1233
     16 C         -11.2681  -18.4591   23.8546 C.ar    1  UNL1        0.0360
     17 C         -10.3883  -18.7484   22.6746 C.ar    1  UNL1        0.0385
     18 C          -8.9200  -19.0344   22.5636 C.ar    1  UNL1        0.0181
     19 C          -8.3055  -19.2915   21.2196 C.ar    1  UNL1        0.0573
     20 C          -9.1594  -19.2627   19.9866 C.ar    1  UNL1        0.0181
     21 C         -10.6276  -18.9768   20.0978 C.ar    1  UNL1        0.0388
     22 C         -11.2420  -18.7197   21.4417 C.ar    1  UNL1        0.1449
     23 O         -12.6496  -18.4125   21.8598 O.2     1  UNL1       -0.4577
@<TRIPOS>BOND
     1    14    15    1
     2    15    16   ar
     3    16    17   ar
     4    17    18   ar
     5    18    19   ar
     6    19     1    1
     7     1     2    1
     8     3     2    1
     9     3     4    1
    10     4     5    1
    11     5     6    1
    12     6     7    1
    13     7     8    1
    14     8     9    1
    15     9    10    1
    16     3    11    1
    17    11    12    1
    18    12    13    2
    19    19    20   ar
    20    20    21   ar
    21    21    22   ar
    22    22    23   ar
    23    23    15   ar
    24    22    17   ar
    25    12     1   am
    26     8     3    1
    27    10     5    1
@<TRIPOS>MOLECULE
*****
 23 27 0 0 0
SMALL
GASTEIGER

@<TRIPOS>ATOM
      1 N          -7.4515  -17.6982   22.6281 N.am    1  UNL1       -0.2214
      2 C          -6.7231  -18.6834   21.7628 C.3     1  UNL1        0.1428
      3 C          -5.2543  -18.5375   22.0294 C.3     1  UNL1        0.1706
      4 C          -3.8236  -18.2790   22.3987 C.3     1  UNL1        0.1145
      5 N          -2.7268  -19.0697   21.7493 N.3     1  UNL1       -0.2697
      6 C          -3.0606  -20.1189   20.7306 C.3     1  UNL1        0.0723
      7 C          -4.4912  -20.3773   20.3613 C.3     1  UNL1        0.0209
      8 C          -5.5880  -19.5866   21.0107 C.3     1  UNL1        0.0427
      9 C          -4.7424  -18.9065   21.7264 C.3     1  UNL1        0.0209
     10 C          -3.9794  -18.7686   21.9233 C.3     1  UNL1        0.0723
     11 O          -5.0748  -17.4620   23.0595 O.3     1  UNL1       -0.4384
     12 C          -6.4328  -16.9432   23.4295 C.2     1  UNL1        0.4086
     13 O          -6.7213  -15.8598   24.4259 O.2     1  UNL1       -0.2258
     14 C         -14.9546  -18.3917   24.8291 C.3     1  UNL1        0.0725
     15 C         -13.6240  -18.0729   24.2146 C.ar    1  UNL1        0.1233
     16 C         -12.3018  -18.6492   24.6266 C.ar    1  UNL1        0.0360
     17 C         -11.2425  -18.0543   23.7467 C.ar    1  UNL1        0.0385
     18 C          -9.7563  -18.2502   23.6924 C.ar    1  UNL1        0.0181
     19 C          -8.9377  -17.5022   22.6824 C.ar    1  UNL1        0.0573
     20 C          -9.6052  -16.5583   21.7266 C.ar    1  UNL1        0.0181
     21 C         -11.0913  -16.3625   21.7809 C.ar    1  UNL1        0.0388
     22 C         -11.9099  -17.1105   22.7910 C.ar    1  UNL1        0.1449
     23 O         -13.3818  -17.1220   23.0801 O.2     1  UNL1       -0.4577
@<TRIPOS>BOND
     1    14    15    1
     2    15    16   ar
     3    16    17   ar
     4    17    18   ar
     5    18    19   ar
     6    19     1    1
     7     1     2    1
     8     3     2    1
     9     3     4    1
    10     4     5    1
    11     5     6    1
    12     6     7    1
    13     7     8    1
    14     8     9    1
    15     9    10    1
    16     3    11    1
    17    11    12    1
    18    12    13    2
    19    19    20   ar
    20    20    21   ar
    21    21    22   ar
    22    22    23   ar
    23    23    15   ar
    24    22    17   ar
    25    12     1   am
    26     8     3    1
    27    10     5    1
@<TRIPOS>MOLECULE
*****
 23 27 0 0 0
SMALL
GASTEIGER

@<TRIPOS>ATOM
      1 N          -7.7169  -18.8647   20.8143 N.am    1  UNL1       -0.2214
      2 C          -8.6264  -17.9753   21.6091 C.3     1  UNL1        0.1428
      3 C         -10.0201  -18.1475   21.0818 C.3     1  UNL1        0.1706
      4 C         -11.3534  -18.4223   20.4521 C.3     1  UNL1        0.1145
      5 N         -12.5800  -17.7217   20.9568 N.3     1  UNL1       -0.2697
      6 C         -12.4731  -16.7462   22.0912 C.3     1  UNL1        0.0723
      7 C         -11.1398  -16.4713   22.7209 C.3     1  UNL1        0.0209
      8 C          -9.9132  -17.1719   22.2162 C.3     1  UNL1        0.0427
      9 C         -10.5925  -17.8205   21.3173 C.3     1  UNL1        0.0209
     10 C         -11.3036  -17.9671   20.9815 C.3     1  UNL1        0.0723
     11 O          -9.9718  -19.1433   19.9611 O.3     1  UNL1       -0.4384
     12 C          -8.5484  -19.5866   19.7958 C.2     1  UNL1        0.4086
     13 O          -8.0449  -20.5778   18.7888 O.2     1  UNL1       -0.2258
     14 C           0.0112  -18.4250   19.5087 C.3     1  UNL1        0.0725
     15 C          -1.3885  -18.6378   20.0039 C.ar    1  UNL1        0.1233
     16 C          -2.6461  -18.2342   19.2931 C.ar    1  UNL1        0.0360
     17 C          -3.8114  -18.6386   20.1469 C.ar    1  UNL1        0.0385
     18 C          -5.2924  -18.4961   19.9565 C.ar    1  UNL1        0.0181
     19 C          -6.2358  -19.0072   21.0047 C.ar    1  UNL1        0.0573
     20 C          -5.6983  -19.6607   22.2432 C.ar    1  UNL1        0.0181
     21 C          -4.2173  -19.8032   22.4335 C.ar    1  UNL1        0.0388
     22 C          -3.2738  -19.2921   21.3854 C.ar    1  UNL1        0.1449
     23 O          -1.7764  -19.2916   21.2970 O.2     1  UNL1       -0.4577
@<TRIPOS>BOND
     1    14    15    1
     2    15    16   ar
     3    16    17   ar
     4    17    18   ar
     5    18    19   ar
     6    19     1    1
     7     1     2    1
     8     3     2    1
     9     3     4    1
    10     4     5    1
    11     5     6    1
    12     6     7    1
    13     7     8    1
    14     8     9    1
    15     9    10    1
    16     3    11    1
    17    11    12    1
    18    12    13    2
    19    19    20   ar
    20    20    21   ar
    21    21    22   ar
    22    22    23   ar
    23    23    15   ar
    24    22    17   ar
    25    12     1   am
    26     8     3    1
    27    10     5    1
@<TRIPOS>MOLECULE
*****
 23 27 0 0 0
SMALL
GASTEIGER

@<TRIPOS>ATOM
      1 N          -5.5514  -19.2370   21.2598 N.am    1  UNL1       -0.2214
      2 C          -4.4315  -18.2518   21.4191 C.3     1  UNL1        0.1428
      3 C          -3.2209  -18.8111   20.7325 C.3     1  UNL1        0.1706
      4 C          -2.0988  -19.4946   20.0088 C.3     1  UNL1        0.1145
      5 N          -0.7529  -18.8382   19.9212 N.3     1  UNL1       -0.2697
      6 C          -0.5290  -17.4984   20.5573 C.3     1  UNL1        0.0723
      7 C          -1.6511  -16.8149   21.2810 C.3     1  UNL1        0.0209
      8 C          -2.9970  -17.4712   21.3685 C.3     1  UNL1        0.0427
      9 C          -2.5928  -18.5048   20.6916 C.3     1  UNL1        0.0209
     10 C          -1.9943  -18.8693   20.3056 C.3     1  UNL1        0.0723
     11 O          -3.5925  -20.1420   20.1488 O.3     1  UNL1       -0.4384
     12 C          -5.0328  -20.4052   20.4747 C.2     1  UNL1        0.4086
     13 O          -5.8168  -21.6229   20.0841 O.2     1  UNL1       -0.2258
     14 C         -12.6217  -16.1795   22.7710 C.3     1  UNL1        0.0725
     15 C         -11.3639  -16.9859   22.6399 C.ar    1  UNL1        0.1233
     16 C         -10.1321  -16.5819   21.8853 C.ar    1  UNL1        0.0360
     17 C          -9.1238  -17.6844   22.0193 C.ar    1  UNL1        0.0385
     18 C          -7.7301  -17.8401   21.4870 C.ar    1  UNL1        0.0181
     19 C          -6.9451  -19.0813   21.7921 C.ar    1  UNL1        0.0573
     20 C          -7.5537  -20.1668   22.6295 C.ar    1  UNL1        0.0181
     21 C          -8.9474  -20.0110   23.1618 C.ar    1  UNL1        0.0388
     22 C          -9.7324  -18.7698   22.8567 C.ar    1  UNL1        0.1449
     23 O         -11.1169  -18.3382   23.2402 O.2     1  UNL1       -0.4577
@<TRIPOS>BOND
     1    14    15    1
     2    15    16   ar
     3    16    17   ar
     4    17    18   ar
     5    18    19   ar
     6    19     1    1
     7     1     2    1
     8     3     2    1
     9     3     4    1
    10     4     5    1
    11     5     6    1
    12     6     7    1
    13     7     8    1
    14     8     9    1
    15     9    10    1
    16     3    11    1
    17    11    12    1
    18    12    13    2
    19    19    20   ar
    20    20    21   ar
    21    21    22   ar
    22    22    23   ar
    23    23    15   ar
    24    22    17   ar
    25    12     1   am
    26     8     3    1
    27    10     5    1
@<TRIPOS>MOLECULE
*****
 23 27 0 0 0
SMALL
GASTEIGER

@<TRIPOS>ATOM
      1 N          -8.5628  -19.2382   22.3988 N.am    1  UNL1       -0.2214
      2 C          -9.4914  -18.1302   21.9986 C.3     1  UNL1        0.1428
      3 C         -10.7452  -18.2598   22.8117 C.3     1  UNL1        0.1706
      4 C         -11.9327  -18.5148   23.6919 C.3     1  UNL1        0.1145
      5 N         -13.1300  -17.6143   23.6157 N.3     1  UNL1       -0.2697
      6 C         -13.1398  -16.4589   22.6592 C.3     1  UNL1        0.0723
      7 C         -11.9523  -16.2039   21.7790 C.3     1  UNL1        0.0209
      8 C         -10.7550  -17.1043   21.8552 C.3     1  UNL1        0.0427
      9 C         -11.3040  -17.8396   22.7761 C.3     1  UNL1        0.0209
     10 C         -11.9373  -17.9756   23.2455 C.3     1  UNL1        0.0723
     11 O         -10.5916  -19.4478   23.7143 O.3     1  UNL1       -0.4384
     12 C          -9.2428  -20.0526   23.4592 C.2     1  UNL1        0.4086
     13 O          -8.6739  -21.2597   24.1441 O.2     1  UNL1       -0.2258
     14 C          -0.8892  -18.4770   20.9301 C.3     1  UNL1        0.0725
     15 C          -2.3391  -18.8472   21.0315 C.ar    1  UNL1        0.1233
     16 C          -3.3735  -18.1419   21.8577 C.ar    1  UNL1        0.0360
     17 C          -4.6831  -18.8467   21.6614 C.ar    1  UNL1        0.0385
     18 C          -6.0513  -18.5969   22.2230 C.ar    1  UNL1        0.0181
     19 C          -7.1946  -19.4880   21.8371 C.ar    1  UNL1        0.0573
     20 C          -6.9696  -20.6288   20.8895 C.ar    1  UNL1        0.0181
     21 C          -5.6013  -20.8785   20.3280 C.ar    1  UNL1        0.0388
     22 C          -4.4581  -19.9875   20.7139 C.ar    1  UNL1        0.1449
     23 O          -3.0094  -19.9878   20.3246 O.2     1  UNL1       -0.4577
@<TRIPOS>BOND
     1    14    15    1
     2    15    16   ar
     3    16    17   ar
     4    17    18   ar
     5    18    19   ar
     6    19     1    1
     7     1     2    1
     8     3     2    1
     9     3     4    1
    10     4     5    1
    11     5     6    1
    12     6     7    1
    13     7     8    1
    14     8     9    1
    15     9    10    1
    16     3    11    1
    17    11    12    1
    18    12    13    2
    19    19    20   ar
    20    20    21   ar
    21    21    22   ar
    22    22    23   ar
    23    23    15   ar
    24    22    17   ar
    25    12     1   am
    26     8     3    1
    27    10     5    1
@<TRIPOS>MOLECULE
*****
 23 27 0 0 0
SMALL
GASTEIGER

@<TRIPOS>ATOM
      1 N          -6.5204  -18.2289   22.4349 N.am    1  UNL1       -0.2214
      2 C          -7.7501  -19.0878   22.4159 C.3     1  UNL1        0.1428
      3 C          -8.8250  -18.3754   23.1821 C.3     1  UNL1        0.1706
      4 C          -9.7953  -17.5484   23.9723 C.3     1  UNL1        0.1145
      5 N         -11.1905  -18.0475   24.2051 N.3     1  UNL1       -0.2697
      6 C         -11.6154  -19.3737   23.6478 C.3     1  UNL1        0.0723
      7 C         -10.6451  -20.2007   22.8576 C.3     1  UNL1        0.0209
      8 C          -9.2499  -19.7016   22.6248 C.3     1  UNL1        0.0427
      9 C          -9.4761  -18.6084   23.2908 C.3     1  UNL1        0.0209
     10 C          -9.9936  -18.1673   23.7122 C.3     1  UNL1        0.0723
     11 O          -8.2596  -17.0763   23.6747 O.3     1  UNL1       -0.4384
     12 C          -6.8354  -16.9857   23.2129 C.2     1  UNL1        0.4086
     13 O          -5.8917  -15.8512   23.4819 O.2     1  UNL1       -0.2258
     14 C           0.9167  -17.5966   20.0035 C.3     1  UNL1        0.0725
     15 C          -0.4958  -17.9743   20.3383 C.ar    1  UNL1        0.1233
     16 C          -1.4726  -17.1381   21.1107 C.ar    1  UNL1        0.0360
     17 C          -2.7601  -17.9016   21.2093 C.ar    1  UNL1        0.0385
     18 C          -4.0739  -17.5747   21.8549 C.ar    1  UNL1        0.0181
     19 C          -5.2066  -18.5558   21.7892 C.ar    1  UNL1        0.0573
     20 C          -5.0254  -19.8639   21.0778 C.ar    1  UNL1        0.0181
     21 C          -3.7116  -20.1908   20.4322 C.ar    1  UNL1        0.0388
     22 C          -2.5789  -19.2096   20.4979 C.ar    1  UNL1        0.1449
     23 O          -1.1795  -19.2546   19.9596 O.2     1  UNL1       -0.4577
@<TRIPOS>BOND
     1    14    15    1
     2    15    16   ar
     3    16    17   ar
     4    17    18   ar
     5    18    19   ar
     6    19     1    1
     7     1     2    1
     8     3     2    1
     9     3     4    1
    10     4     5    1
    11     5     6    1
    12     6     7    1
    13     7     8    1
    14     8     9    1
    15     9    10    1
    16     3    11    1
    17    11    12    1
    18    12    13    2
    19    19    20   ar
    20    20    21   ar
    21    21    22   ar
    22    22    23   ar
    23    23    15   ar
    24    22    17   ar
    25    12     1   am
    26     8     3    1
    27    10     5    1
@<TRIPOS>MOLECULE
*****
 23 27 0 0 0
SMALL
GASTEIGER

@<TRIPOS>ATOM
      1 N         -13.4643   -6.5928   18.0574 N.am    1  UNL1       -0.2214
      2 C         -14.6799   -6.9901   18.8413 C.3     1  UNL1        0.1428
      3 C         -15.0309   -8.4003   18.4693 C.3     1  UNL1        0.1706
      4 C         -15.2582   -9.8069   18.0007 C.3     1  UNL1        0.1145
      5 N         -16.4063  -10.6030   18.5466 N.3     1  UNL1       -0.2697
      6 C         -17.3270   -9.9926   19.5613 C.3     1  UNL1        0.0723
      7 C         -17.0997   -8.5860   20.0300 C.3     1  UNL1        0.0209
      8 C         -15.9516   -7.7898   19.4840 C.3     1  UNL1        0.0427
      9 C         -15.5666   -8.7718   18.7241 C.3     1  UNL1        0.0209
     10 C         -15.6879   -9.5220   18.4742 C.3     1  UNL1        0.0723
     11 O         -14.0322   -8.8744   17.4556 O.3     1  UNL1       -0.4384
     12 C         -13.0640   -7.7574   17.2010 C.2     1  UNL1        0.4086
     13 O         -11.8999   -7.7978   16.2559 O.2     1  UNL1       -0.2258
     14 C         -12.0703    1.0951   17.2992 C.3     1  UNL1        0.0725
     15 C         -12.0724   -0.3823   17.5581 C.ar    1  UNL1        0.1233
     16 C         -13.1926   -1.3302   17.2476 C.ar    1  UNL1        0.0360
     17 C         -12.7672   -2.7051   17.6706 C.ar    1  UNL1        0.0385
     18 C         -13.4606   -4.0337   17.6089 C.ar    1  UNL1        0.0181
     19 C         -12.7709   -5.2641   18.1191 C.ar    1  UNL1        0.0573
     20 C         -11.3877   -5.1659   18.6911 C.ar    1  UNL1        0.0181
     21 C         -10.6943   -3.8373   18.7528 C.ar    1  UNL1        0.0388
     22 C         -11.3841   -2.6069   18.2425 C.ar    1  UNL1        0.1449
     23 O         -10.9546   -1.1713   18.1730 O.2     1  UNL1       -0.4577
@<TRIPOS>BOND
     1    14    15    1
     2    15    16   ar
     3    16    17   ar
     4    17    18   ar
     5    18    19   ar
     6    19     1    1
     7     1     2    1
     8     3     2    1
     9     3     4    1
    10     4     5    1
    11     5     6    1
    12     6     7    1
    13     7     8    1
    14     8     9    1
    15     9    10    1
    16     3    11    1
    17    11    12    1
    18    12    13    2
    19    19    20   ar
    20    20    21   ar
    21    21    22   ar
    22    22    23   ar
    23    23    15   ar
    24    22    17   ar
    25    12     1   am
    26     8     3    1
    27    10     5    1
@<TRIPOS>MOLECULE
*****
 23 27 0 0 0
SMALL
GASTEIGER

@<TRIPOS>ATOM
      1 N         -13.6674   -5.6492   18.8411 N.am    1  UNL1       -0.2214
      2 C         -13.9491   -4.1821   18.7054 C.3     1  UNL1        0.1428
      3 C         -12.6353   -3.4590   18.6723 C.3     1  UNL1        0.1706
      4 C         -11.2532   -2.8766   18.6531 C.3     1  UNL1        0.1145
      5 N         -11.0659   -1.3937   18.5270 N.3     1  UNL1       -0.2697
      6 C         -12.2607   -0.4932   18.4200 C.3     1  UNL1        0.0723
      7 C         -13.6429   -1.0757   18.4392 C.3     1  UNL1        0.0209
      8 C         -13.8301   -2.5586   18.5653 C.3     1  UNL1        0.0427
      9 C         -12.5479   -2.7670   18.6134 C.3     1  UNL1        0.0209
     10 C         -11.8108   -2.4564   18.6032 C.3     1  UNL1        0.0723
     11 O         -11.5417   -4.4792   18.7875 O.3     1  UNL1       -0.4384
     12 C         -12.1796   -5.8328   18.8918 C.2     1  UNL1        0.4086
     13 O         -11.4565   -7.1404   19.0236 O.2     1  UNL1       -0.2258
     14 C         -20.4186   -9.4119   20.2142 C.3     1  UNL1        0.0725
     15 C         -19.0386   -8.9481   19.8534 C.ar    1  UNL1        0.1233
     16 C         -18.5010   -7.5589   20.0300 C.ar    1  UNL1        0.0360
     17 C         -17.0839   -7.5443   19.5383 C.ar    1  UNL1        0.0385
     18 C         -16.0578   -6.4526   19.4660 C.ar    1  UNL1        0.0181
     19 C         -14.6935   -6.7410   18.9133 C.ar    1  UNL1        0.0573
     20 C         -14.3553   -8.1211   18.4328 C.ar    1  UNL1        0.0181
     21 C         -15.3814   -9.2128   18.5051 C.ar    1  UNL1        0.0388
     22 C         -16.7457   -8.9244   19.0578 C.ar    1  UNL1        0.1449
     23 O         -17.9538   -9.7920   19.2526 O.2     1  UNL1       -0.4577
@<TRIPOS>BOND
     1    14    15    1
     2    15    16   ar
     3    16    17   ar
     4    17    18   ar
     5    18    19   ar
     6    19     1    1
     7     1     2    1
     8     3     2    1
     9     3     4    1
    10     4     5    1
    11     5     6    1
    12     6     7    1
    13     7     8    1
    14     8     9    1
    15     9    10    1
    16     3    11    1
    17    11    12    1
    18    12    13    2
    19    19    20   ar
    20    20    21   ar
    21    21    22   ar
    22    22    23   ar
    23    23    15   ar
    24    22    17   ar
    25    12     1   am
    26     8     3    1
    27    10     5    1
@<TRIPOS>MOLECULE
*****
 23 27 0 0 0
SMALL
GASTEIGER

@<TRIPOS>ATOM
      1 N          -9.4857  -18.8242   21.8560 N.am    1  UNL1       -0.2214
      2 C         -10.2594  -18.9521   23.1347 C.3     1  UNL1        0.1428
      3 C         -11.6489  -18.4435   22.8887 C.3     1  UNL1        0.1706
      4 C         -12.9929  -17.9063   22.4951 C.3     1  UNL1        0.1145
      5 N         -14.1025  -17.8499   23.5029 N.3     1  UNL1       -0.2697
      6 C         -13.8681  -18.3306   24.9043 C.3     1  UNL1        0.0723
      7 C         -12.5240  -18.8678   25.2978 C.3     1  UNL1        0.0209
      8 C         -11.4144  -18.9242   24.2901 C.3     1  UNL1        0.0427
      9 C         -12.1667  -18.4171   23.3590 C.3     1  UNL1        0.0209
     10 C         -12.8835  -18.1307   23.1491 C.3     1  UNL1        0.0723
     11 O         -11.7340  -18.0012   21.4579 O.3     1  UNL1       -0.4384
     12 C         -10.3971  -18.2365   20.8197 C.2     1  UNL1        0.4086
     13 O         -10.0351  -17.9367   19.3952 O.2     1  UNL1       -0.2258
     14 C          -2.1586  -18.9569   19.0423 C.3     1  UNL1        0.0725
     15 C          -3.4685  -19.1476   19.7475 C.ar    1  UNL1        0.1233
     16 C          -4.7221  -18.3597   19.5074 C.ar    1  UNL1        0.0360
     17 C          -5.7833  -18.8849   20.4283 C.ar    1  UNL1        0.0385
     18 C          -7.2167  -18.4938   20.6344 C.ar    1  UNL1        0.0181
     19 C          -8.0523  -19.2153   21.6499 C.ar    1  UNL1        0.0573
     20 C          -7.4546  -20.3279   22.4592 C.ar    1  UNL1        0.0181
     21 C          -6.0213  -20.7189   22.2530 C.ar    1  UNL1        0.0388
     22 C          -5.1857  -19.9974   21.2376 C.ar    1  UNL1        0.1449
     23 O          -3.7550  -20.1598   20.8168 O.2     1  UNL1       -0.4577
@<TRIPOS>BOND
     1    14    15    1
     2    15    16   ar
     3    16    17   ar
     4    17    18   ar
     5    18    19   ar
     6    19     1    1
     7     1     2    1
     8     3     2    1
     9     3     4    1
    10     4     5    1
    11     5     6    1
    12     6     7    1
    13     7     8    1
    14     8     9    1
    15     9    10    1
    16     3    11    1
    17    11    12    1
    18    12    13    2
    19    19    20   ar
    20    20    21   ar
    21    21    22   ar
    22    22    23   ar
    23    23    15   ar
    24    22    17   ar
    25    12     1   am
    26     8     3    1
    27    10     5    1
