@<TRIPOS>MOLECULE
*****
 33 36 0 0 0
SMALL
GASTEIGER

@<TRIPOS>ATOM
      1 C           8.0421   -7.7707   26.0932 C.ar    1  UNL1       -0.0045
      2 C           8.8073   -8.0306   24.8296 C.ar    1  UNL1       -0.0026
      3 C           8.8001   -7.0148   23.7260 C.ar    1  UNL1        0.0029
      4 C           8.0277   -5.7389   23.8861 C.ar    1  UNL1        0.0391
      5 C           7.2625   -5.4790   25.1498 C.ar    1  UNL1        0.0029
      6 C           7.2697   -6.4948   26.2533 C.ar    1  UNL1       -0.0026
      7 C           8.0205   -4.7230   22.7825 C.ar    1  UNL1        0.2033
      8 N           9.0934   -3.7111   22.5086 N.ar    1  UNL1       -0.0560
      9 O           8.6752   -2.9034   21.3158 O.2     1  UNL1       -0.3370
     10 C           7.3438   -3.4161   20.8526 C.ar    1  UNL1        0.2366
     11 N           6.9392   -4.5407   21.7590 N.ar    1  UNL1       -0.1907
     12 C           6.5555   -2.8956   19.6874 C.3     1  UNL1        0.0880
     13 C           5.0820   -3.1621   19.5997 C.3     1  UNL1        0.0098
     14 C           4.1393   -2.0528   19.2380 C.3     1  UNL1        0.0005
     15 C           4.3187   -1.3064   17.9493 C.3     1  UNL1        0.0000
     16 C           3.3761   -0.1972   17.5875 C.3     1  UNL1        0.0000
     17 C           2.2541    0.1658   18.5145 C.3     1  UNL1        0.0000
     18 C           2.0746   -0.5806   19.8032 C.3     1  UNL1        0.0000
     19 C           3.0173   -1.6899   20.1649 C.3     1  UNL1        0.0000
     20 C           9.2851   -8.9880   28.0228 C.3     1  UNL1        0.0262
     21 C           8.0493   -8.7866   27.1969 C.3     1  UNL1        0.0942
     22 N           6.8206   -9.6010   27.4745 N.am    1  UNL1       -0.3010
     23 C           6.9418  -11.0695   27.7554 C.2     1  UNL1        0.2394
     24 O           8.2917  -11.7236   27.7586 O.2     1  UNL1       -0.2736
     25 H           5.9346   -9.1717   27.4725 H       1  UNL1        0.1497
     26 C           5.7131  -11.8839   28.0330 C.3     1  UNL1        0.1586
     27 N           5.6717  -13.2008   28.7499 N.3     1  UNL1       -0.2893
     28 C           4.2431  -13.6552   28.8025 C.3     1  UNL1        0.0715
     29 C           3.4016  -12.6191   28.1182 C.3     1  UNL1        0.0482
     30 C           4.3102  -11.5243   27.6426 C.3     1  UNL1        0.1350
     31 O           3.8895  -10.2872   26.9060 O.3     1  UNL1       -0.3825
     32 H           6.0351  -13.0912   29.6966 H       1  UNL1        0.1237
     33 H           2.9279  -10.2976   26.7793 H       1  UNL1        0.2104
@<TRIPOS>BOND
     1    21    20    1
     2    21    22    1
     3    22    23   am
     4    23    24    2
     5    26    23    1
     6    26    27    1
     7    27    28    1
     8    28    29    1
     9    29    30    1
    10    30    31    1
    11    21     1    1
    12     1     2   ar
    13     2     3   ar
    14     3     4   ar
    15     4     7    1
    16     7     8   ar
    17     8     9   ar
    18     9    10   ar
    19    10    12    1
    20    12    13    1
    21    13    14    1
    22    14    15    1
    23    15    16    1
    24    16    17    1
    25    17    18    1
    26    18    19    1
    27    10    11   ar
    28     4     5   ar
    29     5     6   ar
    30    30    26    1
    31     6     1   ar
    32    11     7   ar
    33    19    14    1
    34    22    25    1
    35    27    32    1
    36    31    33    1
@<TRIPOS>MOLECULE
*****
 33 36 0 0 0
SMALL
GASTEIGER

@<TRIPOS>ATOM
      1 C         -12.3306   -5.2877   18.7751 C.ar    1  UNL1       -0.0045
      2 C         -13.7359   -4.7896   18.9395 C.ar    1  UNL1       -0.0026
      3 C         -14.0260   -3.3206   18.8515 C.ar    1  UNL1        0.0029
      4 C         -12.9108   -2.3496   18.5993 C.ar    1  UNL1        0.0391
      5 C         -11.5055   -2.8477   18.4349 C.ar    1  UNL1        0.0029
      6 C         -11.2154   -4.3167   18.5228 C.ar    1  UNL1       -0.0026
      7 C         -13.2010   -0.8806   18.5114 C.ar    1  UNL1        0.2033
      8 N         -12.2228    0.1900   18.1278 N.ar    1  UNL1       -0.0560
      9 O         -12.9375    1.5080   18.1709 O.2     1  UNL1       -0.3370
     10 C         -14.3574    1.2521   18.5812 C.ar    1  UNL1        0.2366
     11 N         -14.5203   -0.2241   18.7916 N.ar    1  UNL1       -0.1907
     12 C         -15.4268    2.2902   18.7512 C.3     1  UNL1        0.0880
     13 C         -16.5970    2.0212   19.6502 C.3     1  UNL1        0.0098
     14 C         -16.6169    2.5787   21.0426 C.3     1  UNL1        0.0005
     15 C         -15.9054    3.8638   21.3462 C.3     1  UNL1        0.0000
     16 C         -15.9253    4.4213   22.7385 C.3     1  UNL1        0.0000
     17 C         -16.6567    3.6937   23.8274 C.3     1  UNL1        0.0000
     18 C         -17.3681    2.4085   23.5238 C.3     1  UNL1        0.0000
     19 C         -17.3483    1.8510   22.1314 C.3     1  UNL1        0.0000
     20 C         -10.6474   -7.2614   18.6289 C.3     1  UNL1        0.0262
     21 C         -12.0404   -6.7568   18.8630 C.3     1  UNL1        0.0942
     22 N         -13.1433   -7.7211   19.1850 N.am    1  UNL1       -0.3010
     23 C         -14.0168   -8.2548   18.0886 C.2     1  UNL1        0.2394
     24 O         -13.7875   -7.8241   16.6702 O.2     1  UNL1       -0.2736
     25 H         -13.2938   -8.0038   20.1160 H       1  UNL1        0.1497
     26 C         -15.1197   -9.2191   18.4106 C.3     1  UNL1        0.1586
     27 N         -15.1531  -10.6739   18.0467 N.3     1  UNL1       -0.2893
     28 C         -16.4369  -11.2519   18.5642 C.3     1  UNL1        0.0715
     29 C         -17.1969  -10.1543   19.2481 C.3     1  UNL1        0.0482
     30 C         -16.3829   -8.8980   19.1531 C.3     1  UNL1        0.1350
     31 O         -16.7650   -7.5562   19.7040 O.3     1  UNL1       -0.3825
     32 H         -14.3606  -11.1553   18.4717 H       1  UNL1        0.1237
     33 H         -17.6300   -7.6193   20.1383 H       1  UNL1        0.2104
@<TRIPOS>BOND
     1    21    20    1
     2    21    22    1
     3    22    23   am
     4    23    24    2
     5    26    23    1
     6    26    27    1
     7    27    28    1
     8    28    29    1
     9    29    30    1
    10    30    31    1
    11    21     1    1
    12     1     2   ar
    13     2     3   ar
    14     3     4   ar
    15     4     7    1
    16     7     8   ar
    17     8     9   ar
    18     9    10   ar
    19    10    12    1
    20    12    13    1
    21    13    14    1
    22    14    15    1
    23    15    16    1
    24    16    17    1
    25    17    18    1
    26    18    19    1
    27    10    11   ar
    28     4     5   ar
    29     5     6   ar
    30    30    26    1
    31     6     1   ar
    32    11     7   ar
    33    19    14    1
    34    22    25    1
    35    27    32    1
    36    31    33    1
@<TRIPOS>MOLECULE
*****
 33 36 0 0 0
SMALL
GASTEIGER

@<TRIPOS>ATOM
      1 C           6.8650   -4.7246   28.9167 C.ar    1  UNL1       -0.0045
      2 C           7.0681   -5.8990   28.0059 C.ar    1  UNL1       -0.0026
      3 C           6.9138   -5.7335   26.5231 C.ar    1  UNL1        0.0029
      4 C           6.5563   -4.3938   25.9511 C.ar    1  UNL1        0.0391
      5 C           6.3532   -3.2194   26.8618 C.ar    1  UNL1        0.0029
      6 C           6.5075   -3.3848   28.3447 C.ar    1  UNL1       -0.0026
      7 C           6.4020   -4.2284   24.4682 C.ar    1  UNL1        0.2033
      8 N           7.2134   -4.9223   23.4145 N.ar    1  UNL1       -0.0560
      9 O           6.7221   -4.4629   22.0737 O.2     1  UNL1       -0.3370
     10 C           5.6071   -3.4850   22.2988 C.ar    1  UNL1        0.2366
     11 N           5.4093   -3.3401   23.7787 N.ar    1  UNL1       -0.1907
     12 C           4.8269   -2.7765   21.2315 C.3     1  UNL1        0.0880
     13 C           3.9695   -1.5980   21.5865 C.3     1  UNL1        0.0098
     14 C           3.1654   -0.9085   20.5244 C.3     1  UNL1        0.0005
     15 C           1.6982   -0.6729   20.7290 C.3     1  UNL1        0.0000
     16 C           0.8941    0.0166   19.6670 C.3     1  UNL1        0.0000
     17 C           1.5571    0.4705   18.4004 C.3     1  UNL1        0.0000
     18 C           3.0243    0.2349   18.1958 C.3     1  UNL1        0.0000
     19 C           3.8284   -0.4546   19.2579 C.3     1  UNL1        0.0000
     20 C           7.9124   -5.9643   30.9455 C.3     1  UNL1        0.0262
     21 C           7.0193   -4.8900   30.3996 C.3     1  UNL1        0.0942
     22 N           6.2805   -3.9810   31.3365 N.am    1  UNL1       -0.3010
     23 C           6.9866   -2.8155   31.9634 C.2     1  UNL1        0.2394
     24 O           8.4317   -2.5590   31.6533 O.2     1  UNL1       -0.2736
     25 H           5.3320   -4.1493   31.5400 H       1  UNL1        0.1497
     26 C           6.2478   -1.9065   32.9003 C.3     1  UNL1        0.1586
     27 N           6.7525   -0.6035   33.4457 N.3     1  UNL1       -0.2893
     28 C           5.6911   -0.0326   34.3388 C.3     1  UNL1        0.0715
     29 C           4.5305   -0.9827   34.3454 C.3     1  UNL1        0.0482
     30 C           4.8745   -2.1409   33.4564 C.3     1  UNL1        0.1350
     31 O           3.9990   -3.3254   33.1731 O.3     1  UNL1       -0.3825
     32 H           6.9437    0.0417   32.6792 H       1  UNL1        0.1237
     33 H           3.1632   -3.2327   33.6566 H       1  UNL1        0.2104
@<TRIPOS>BOND
     1    21    20    1
     2    21    22    1
     3    22    23   am
     4    23    24    2
     5    26    23    1
     6    26    27    1
     7    27    28    1
     8    28    29    1
     9    29    30    1
    10    30    31    1
    11    21     1    1
    12     1     2   ar
    13     2     3   ar
    14     3     4   ar
    15     4     7    1
    16     7     8   ar
    17     8     9   ar
    18     9    10   ar
    19    10    12    1
    20    12    13    1
    21    13    14    1
    22    14    15    1
    23    15    16    1
    24    16    17    1
    25    17    18    1
    26    18    19    1
    27    10    11   ar
    28     4     5   ar
    29     5     6   ar
    30    30    26    1
    31     6     1   ar
    32    11     7   ar
    33    19    14    1
    34    22    25    1
    35    27    32    1
    36    31    33    1
@<TRIPOS>MOLECULE
*****
 33 36 0 0 0
SMALL
GASTEIGER

@<TRIPOS>ATOM
      1 C           3.6295   -1.1558   19.4454 C.ar    1  UNL1       -0.0045
      2 C           2.4766   -1.3396   20.3871 C.ar    1  UNL1       -0.0026
      3 C           1.3633   -0.3348   20.4149 C.ar    1  UNL1        0.0029
      4 C           1.4030    0.8540   19.5009 C.ar    1  UNL1        0.0391
      5 C           2.5559    1.0379   18.5592 C.ar    1  UNL1        0.0029
      6 C           3.6692    0.0330   18.5314 C.ar    1  UNL1       -0.0026
      7 C           0.2896    1.8589   19.5287 C.ar    1  UNL1        0.2033
      8 N          -0.1197    2.7528   18.3959 N.ar    1  UNL1       -0.0560
      9 O          -1.2721    3.5927   18.8612 O.2     1  UNL1       -0.3370
     10 C          -1.5751    3.2177   20.2817 C.ar    1  UNL1        0.2366
     11 N          -0.6099    2.1462   20.6942 N.ar    1  UNL1       -0.1907
     12 C          -2.6539    3.8103   21.1391 C.3     1  UNL1        0.0880
     13 C          -3.9972    3.1478   21.2188 C.3     1  UNL1        0.0098
     14 C          -5.0090    3.6217   22.2197 C.3     1  UNL1        0.0005
     15 C          -6.3141    4.1951   21.7530 C.3     1  UNL1        0.0000
     16 C          -7.3258    4.6690   22.7538 C.3     1  UNL1        0.0000
     17 C          -7.0324    4.5695   24.2215 C.3     1  UNL1        0.0000
     18 C          -5.7273    3.9961   24.6882 C.3     1  UNL1        0.0000
     19 C          -4.7155    3.5222   23.6873 C.3     1  UNL1        0.0000
     20 C           5.0799   -2.8714   18.1404 C.3     1  UNL1        0.0262
     21 C           4.7429   -2.1606   19.4176 C.3     1  UNL1        0.0942
     22 N           5.5192   -2.4547   20.6669 N.am    1  UNL1       -0.3010
     23 C           5.2502   -3.7125   21.4385 C.2     1  UNL1        0.2394
     24 O           4.2048   -4.6765   20.9607 O.2     1  UNL1       -0.2736
     25 H           6.2052   -1.8220   20.9805 H       1  UNL1        0.1497
     26 C           6.0264   -4.0066   22.6879 C.3     1  UNL1        0.1586
     27 N           7.2237   -4.9042   22.7913 N.3     1  UNL1       -0.2893
     28 C           7.6790   -4.9070   24.2205 C.3     1  UNL1        0.0715
     29 C           6.7631   -4.0110   25.0005 C.3     1  UNL1        0.0482
     30 C           5.7418   -3.4545   24.0533 C.3     1  UNL1        0.1350
     31 O           4.6308   -2.5116   24.4090 O.3     1  UNL1       -0.3825
     32 H           7.9708   -4.5554   22.1908 H       1  UNL1        0.1237
     33 H           4.6689   -2.3100   25.3570 H       1  UNL1        0.2104
@<TRIPOS>BOND
     1    21    20    1
     2    21    22    1
     3    22    23   am
     4    23    24    2
     5    26    23    1
     6    26    27    1
     7    27    28    1
     8    28    29    1
     9    29    30    1
    10    30    31    1
    11    21     1    1
    12     1     2   ar
    13     2     3   ar
    14     3     4   ar
    15     4     7    1
    16     7     8   ar
    17     8     9   ar
    18     9    10   ar
    19    10    12    1
    20    12    13    1
    21    13    14    1
    22    14    15    1
    23    15    16    1
    24    16    17    1
    25    17    18    1
    26    18    19    1
    27    10    11   ar
    28     4     5   ar
    29     5     6   ar
    30    30    26    1
    31     6     1   ar
    32    11     7   ar
    33    19    14    1
    34    22    25    1
    35    27    32    1
    36    31    33    1
@<TRIPOS>MOLECULE
*****
 33 36 0 0 0
SMALL
GASTEIGER

@<TRIPOS>ATOM
      1 C           5.9863   -0.3148   34.5283 C.ar    1  UNL1       -0.0045
      2 C           4.8196   -1.2038   34.2150 C.ar    1  UNL1       -0.0026
      3 C           4.9868   -2.3546   33.2675 C.ar    1  UNL1        0.0029
      4 C           6.3207   -2.6163   32.6334 C.ar    1  UNL1        0.0391
      5 C           7.4875   -1.7272   32.9467 C.ar    1  UNL1        0.0029
      6 C           7.3203   -0.5765   33.8942 C.ar    1  UNL1       -0.0026
      7 C           6.4878   -3.7671   31.6859 C.ar    1  UNL1        0.2033
      8 N           6.6628   -5.2067   32.0694 N.ar    1  UNL1       -0.0560
      9 O           6.7925   -6.0097   30.8091 O.2     1  UNL1       -0.3370
     10 C           6.6976   -5.0664   29.6467 C.ar    1  UNL1        0.2366
     11 N           6.5094   -3.6804   30.1885 N.ar    1  UNL1       -0.1907
     12 C           6.7771   -5.4430   28.1969 C.3     1  UNL1        0.0880
     13 C           7.9983   -5.0964   27.3978 C.3     1  UNL1        0.0098
     14 C           8.3009   -5.8391   26.1301 C.3     1  UNL1        0.0005
     15 C           7.9088   -5.2534   24.8060 C.3     1  UNL1        0.0000
     16 C           8.2113   -5.9960   23.5384 C.3     1  UNL1        0.0000
     17 C           8.9059   -7.3243   23.5949 C.3     1  UNL1        0.0000
     18 C           9.2980   -7.9099   24.9190 C.3     1  UNL1        0.0000
     19 C           8.9955   -7.1673   26.1867 C.3     1  UNL1        0.0000
     20 C           6.6123    2.0934   35.2760 C.3     1  UNL1        0.0262
     21 C           5.8192    0.8361   35.4759 C.3     1  UNL1        0.0942
     22 N           4.8589    0.7295   36.6232 N.am    1  UNL1       -0.3010
     23 C           3.6011    1.5467   36.6270 C.2     1  UNL1        0.2394
     24 O           3.3036    2.4706   35.4833 O.2     1  UNL1       -0.2736
     25 H           5.0542    0.1231   37.3739 H       1  UNL1        0.1497
     26 C           2.6408    1.4401   37.7744 C.3     1  UNL1        0.1586
     27 N           2.4583    0.2458   38.6633 N.3     1  UNL1       -0.2893
     28 C           1.3991    0.5766   39.6726 C.3     1  UNL1        0.0715
     29 C           0.9270    1.9755   39.4074 C.3     1  UNL1        0.0482
     30 C           1.6944    2.5091   38.2343 C.3     1  UNL1        0.1350
     31 O           1.5422    3.8725   37.6275 O.3     1  UNL1       -0.3825
     32 H           3.3347    0.0311   39.1390 H       1  UNL1        0.1237
     33 H           0.8636    4.3681   38.1121 H       1  UNL1        0.2104
@<TRIPOS>BOND
     1    21    20    1
     2    21    22    1
     3    22    23   am
     4    23    24    2
     5    26    23    1
     6    26    27    1
     7    27    28    1
     8    28    29    1
     9    29    30    1
    10    30    31    1
    11    21     1    1
    12     1     2   ar
    13     2     3   ar
    14     3     4   ar
    15     4     7    1
    16     7     8   ar
    17     8     9   ar
    18     9    10   ar
    19    10    12    1
    20    12    13    1
    21    13    14    1
    22    14    15    1
    23    15    16    1
    24    16    17    1
    25    17    18    1
    26    18    19    1
    27    10    11   ar
    28     4     5   ar
    29     5     6   ar
    30    30    26    1
    31     6     1   ar
    32    11     7   ar
    33    19    14    1
    34    22    25    1
    35    27    32    1
    36    31    33    1
@<TRIPOS>MOLECULE
*****
 33 36 0 0 0
SMALL
GASTEIGER

@<TRIPOS>ATOM
      1 C           7.9957   -5.0998   23.1364 C.ar    1  UNL1       -0.0045
      2 C           8.8177   -5.1461   21.8826 C.ar    1  UNL1       -0.0026
      3 C           8.3829   -4.3745   20.6719 C.ar    1  UNL1        0.0029
      4 C           7.1262   -3.5567   20.7151 C.ar    1  UNL1        0.0391
      5 C           6.3042   -3.5105   21.9690 C.ar    1  UNL1        0.0029
      6 C           6.7389   -4.2821   23.1796 C.ar    1  UNL1       -0.0026
      7 C           6.6914   -2.7852   19.5044 C.ar    1  UNL1        0.2033
      8 N           7.5832   -2.3046   18.3981 N.ar    1  UNL1       -0.0560
      9 O           6.7316   -1.5811   17.3974 O.2     1  UNL1       -0.3370
     10 C           5.3135   -1.6147   17.8853 C.ar    1  UNL1        0.2366
     11 N           5.2887   -2.3588   19.1874 N.ar    1  UNL1       -0.1907
     12 C           4.1283   -1.0101   17.1925 C.3     1  UNL1        0.0880
     13 C           3.6357    0.3479   17.5963 C.3     1  UNL1        0.0098
     14 C           2.4758    0.4753   18.5389 C.3     1  UNL1        0.0005
     15 C           1.6681    1.7390   18.5677 C.3     1  UNL1        0.0000
     16 C           0.5083    1.8664   19.5102 C.3     1  UNL1        0.0000
     17 C           0.1561    0.7302   20.4239 C.3     1  UNL1        0.0000
     18 C           0.9637   -0.5334   20.3951 C.3     1  UNL1        0.0000
     19 C           2.1236   -0.6608   19.4526 C.3     1  UNL1        0.0000
     20 C           8.5863   -7.3613   24.2709 C.3     1  UNL1        0.0262
     21 C           8.4304   -5.8714   24.3471 C.3     1  UNL1        0.0942
     22 N           8.7092   -5.1530   25.6340 N.am    1  UNL1       -0.3010
     23 C           7.7617   -5.2882   26.7890 C.2     1  UNL1        0.2394
     24 O           6.5353   -6.1418   26.6570 O.2     1  UNL1       -0.2736
     25 H           9.5141   -4.5927   25.7206 H       1  UNL1        0.1497
     26 C           8.0405   -4.5698   28.0759 C.3     1  UNL1        0.1586
     27 N           8.9032   -3.3534   28.2376 N.3     1  UNL1       -0.2893
     28 C           8.9014   -2.9734   29.6887 C.3     1  UNL1        0.0715
     29 C           8.0377   -3.9550   30.4238 C.3     1  UNL1        0.0482
     30 C           7.5056   -4.9416   29.4270 C.3     1  UNL1        0.1350
     31 O           6.5980   -6.0972   29.7285 O.3     1  UNL1       -0.3825
     32 H           8.5288   -2.5867   27.6786 H       1  UNL1        0.1237
     33 H           6.4013   -6.1147   30.6782 H       1  UNL1        0.2104
@<TRIPOS>BOND
     1    21    20    1
     2    21    22    1
     3    22    23   am
     4    23    24    2
     5    26    23    1
     6    26    27    1
     7    27    28    1
     8    28    29    1
     9    29    30    1
    10    30    31    1
    11    21     1    1
    12     1     2   ar
    13     2     3   ar
    14     3     4   ar
    15     4     7    1
    16     7     8   ar
    17     8     9   ar
    18     9    10   ar
    19    10    12    1
    20    12    13    1
    21    13    14    1
    22    14    15    1
    23    15    16    1
    24    16    17    1
    25    17    18    1
    26    18    19    1
    27    10    11   ar
    28     4     5   ar
    29     5     6   ar
    30    30    26    1
    31     6     1   ar
    32    11     7   ar
    33    19    14    1
    34    22    25    1
    35    27    32    1
    36    31    33    1
@<TRIPOS>MOLECULE
*****
 33 36 0 0 0
SMALL
GASTEIGER

@<TRIPOS>ATOM
      1 C           7.5320   -4.0325   25.8580 C.ar    1  UNL1       -0.0045
      2 C           6.4254   -3.0399   25.6574 C.ar    1  UNL1       -0.0026
      3 C           5.7387   -2.9408   24.3275 C.ar    1  UNL1        0.0029
      4 C           6.1587   -3.8343   23.1982 C.ar    1  UNL1        0.0391
      5 C           7.2652   -4.8269   23.3987 C.ar    1  UNL1        0.0029
      6 C           7.9519   -4.9260   24.7286 C.ar    1  UNL1       -0.0026
      7 C           5.4720   -3.7352   21.8682 C.ar    1  UNL1        0.2033
      8 N           4.4206   -4.6695   21.3470 N.ar    1  UNL1       -0.0560
      9 O           4.0149   -4.1962   19.9827 O.2     1  UNL1       -0.3370
     10 C           4.8156   -2.9692   19.6608 C.ar    1  UNL1        0.2366
     11 N           5.7161   -2.6843   20.8261 N.ar    1  UNL1       -0.1907
     12 C           4.7306   -2.1679   18.3956 C.3     1  UNL1        0.0880
     13 C           4.4518   -0.6953   18.4578 C.3     1  UNL1        0.0098
     14 C           3.1009   -0.2053   18.8879 C.3     1  UNL1        0.0005
     15 C           2.5509    1.0706   18.3226 C.3     1  UNL1        0.0000
     16 C           1.2001    1.5606   18.7527 C.3     1  UNL1        0.0000
     17 C           0.3992    0.7747   19.7482 C.3     1  UNL1        0.0000
     18 C           0.9491   -0.5012   20.3135 C.3     1  UNL1        0.0000
     19 C           2.3000   -0.9912   19.8833 C.3     1  UNL1        0.0000
     20 C           9.4020   -5.0380   27.3552 C.3     1  UNL1        0.0262
     21 C           8.2187   -4.1316   27.1879 C.3     1  UNL1        0.0942
     22 N           7.7220   -3.3243   28.3505 N.am    1  UNL1       -0.3010
     23 C           6.9119   -3.9815   29.4284 C.2     1  UNL1        0.2394
     24 O           6.5985   -5.4460   29.3438 O.2     1  UNL1       -0.2736
     25 H           7.9276   -2.3632   28.4060 H       1  UNL1        0.1497
     26 C           6.4152   -3.1742   30.5909 C.3     1  UNL1        0.1586
     27 N           6.0556   -1.7182   30.5638 N.3     1  UNL1       -0.2893
     28 C           5.6090   -1.3253   31.9409 C.3     1  UNL1        0.0715
     29 C           5.6926   -2.5385   32.8190 C.3     1  UNL1        0.0482
     30 C           6.1908   -3.6811   31.9847 C.3     1  UNL1        0.1350
     31 O           6.4239   -5.0844   32.4607 O.3     1  UNL1       -0.3825
     32 H           5.3002   -1.5606   29.8968 H       1  UNL1        0.1237
     33 H           6.2018   -5.1473   33.4028 H       1  UNL1        0.2104
@<TRIPOS>BOND
     1    21    20    1
     2    21    22    1
     3    22    23   am
     4    23    24    2
     5    26    23    1
     6    26    27    1
     7    27    28    1
     8    28    29    1
     9    29    30    1
    10    30    31    1
    11    21     1    1
    12     1     2   ar
    13     2     3   ar
    14     3     4   ar
    15     4     7    1
    16     7     8   ar
    17     8     9   ar
    18     9    10   ar
    19    10    12    1
    20    12    13    1
    21    13    14    1
    22    14    15    1
    23    15    16    1
    24    16    17    1
    25    17    18    1
    26    18    19    1
    27    10    11   ar
    28     4     5   ar
    29     5     6   ar
    30    30    26    1
    31     6     1   ar
    32    11     7   ar
    33    19    14    1
    34    22    25    1
    35    27    32    1
    36    31    33    1
@<TRIPOS>MOLECULE
*****
 33 36 0 0 0
SMALL
GASTEIGER

@<TRIPOS>ATOM
      1 C           1.0678    3.2509   18.5749 C.ar    1  UNL1       -0.0045
      2 C           2.5584    3.3889   18.4807 C.ar    1  UNL1       -0.0026
      3 C           3.4150    2.1697   18.3079 C.ar    1  UNL1        0.0029
      4 C           2.7809    0.8126   18.2293 C.ar    1  UNL1        0.0391
      5 C           1.2902    0.6747   18.3235 C.ar    1  UNL1        0.0029
      6 C           0.4337    1.8938   18.4963 C.ar    1  UNL1       -0.0026
      7 C           3.6375   -0.4066   18.0565 C.ar    1  UNL1        0.2033
      8 N           4.7287   -0.5809   17.0421 N.ar    1  UNL1       -0.0560
      9 O           5.3189   -1.9475   17.2263 O.2     1  UNL1       -0.3370
     10 C           4.5924   -2.6179   18.3546 C.ar    1  UNL1        0.2366
     11 N           3.5533   -1.6655   18.8676 N.ar    1  UNL1       -0.1907
     12 C           4.8585   -3.9983   18.8779 C.3     1  UNL1        0.0880
     13 C           4.4529   -4.3615   20.2756 C.3     1  UNL1        0.0098
     14 C           5.2290   -3.8297   21.4439 C.3     1  UNL1        0.0005
     15 C           4.5080   -3.3665   22.6750 C.3     1  UNL1        0.0000
     16 C           5.2840   -2.8348   23.8432 C.3     1  UNL1        0.0000
     17 C           6.7812   -2.7662   23.7805 C.3     1  UNL1        0.0000
     18 C           7.5022   -3.2294   22.5494 C.3     1  UNL1        0.0000
     19 C           6.7261   -3.7612   21.3811 C.3     1  UNL1        0.0000
     20 C           0.8066    5.8359   18.5742 C.3     1  UNL1        0.0262
     21 C           0.2112    4.4702   18.7478 C.3     1  UNL1        0.0942
     22 N          -1.2409    4.3236   19.0942 N.am    1  UNL1       -0.3010
     23 C          -2.2726    4.2969   18.0057 C.2     1  UNL1        0.2394
     24 O          -1.8523    4.4168   16.5708 O.2     1  UNL1       -0.2736
     25 H          -1.5168    4.2448   20.0360 H       1  UNL1        0.1497
     26 C          -3.7247    4.1503   18.3522 C.3     1  UNL1        0.1586
     27 N          -4.8787    4.6926   17.5621 N.3     1  UNL1       -0.2893
     28 C          -6.1450    4.3131   18.2711 C.3     1  UNL1        0.0715
     29 C          -5.7735    3.5363   19.4994 C.3     1  UNL1        0.0482
     30 C          -4.2777    3.4356   19.5494 C.3     1  UNL1        0.1350
     31 O          -3.4758    2.7421   20.6105 O.3     1  UNL1       -0.3825
     32 H          -4.8742    4.2926   16.6238 H       1  UNL1        0.1237
     33 H          -4.0749    2.3613   21.2715 H       1  UNL1        0.2104
@<TRIPOS>BOND
     1    21    20    1
     2    21    22    1
     3    22    23   am
     4    23    24    2
     5    26    23    1
     6    26    27    1
     7    27    28    1
     8    28    29    1
     9    29    30    1
    10    30    31    1
    11    21     1    1
    12     1     2   ar
    13     2     3   ar
    14     3     4   ar
    15     4     7    1
    16     7     8   ar
    17     8     9   ar
    18     9    10   ar
    19    10    12    1
    20    12    13    1
    21    13    14    1
    22    14    15    1
    23    15    16    1
    24    16    17    1
    25    17    18    1
    26    18    19    1
    27    10    11   ar
    28     4     5   ar
    29     5     6   ar
    30    30    26    1
    31     6     1   ar
    32    11     7   ar
    33    19    14    1
    34    22    25    1
    35    27    32    1
    36    31    33    1
@<TRIPOS>MOLECULE
*****
 33 36 0 0 0
SMALL
GASTEIGER

@<TRIPOS>ATOM
      1 C           5.1253   -0.3239   34.6197 C.ar    1  UNL1       -0.0045
      2 C           4.3544   -1.5196   34.1444 C.ar    1  UNL1       -0.0026
      3 C           4.0271   -1.6707   32.6884 C.ar    1  UNL1        0.0029
      4 C           4.4707   -0.6260   31.7076 C.ar    1  UNL1        0.0391
      5 C           5.2417    0.5696   32.1829 C.ar    1  UNL1        0.0029
      6 C           5.5690    0.7207   33.6389 C.ar    1  UNL1       -0.0026
      7 C           4.1434   -0.7771   30.2516 C.ar    1  UNL1        0.2033
      8 N           2.7843   -1.0463   29.6767 N.ar    1  UNL1       -0.0560
      9 O           2.9185   -1.1211   28.1847 O.2     1  UNL1       -0.3370
     10 C           4.3607   -0.8982   27.8373 C.ar    1  UNL1        0.2366
     11 N           5.1176   -0.6856   29.1147 N.ar    1  UNL1       -0.1907
     12 C           4.9435   -0.8894   26.4552 C.3     1  UNL1        0.0880
     13 C           4.2381   -1.6015   25.3392 C.3     1  UNL1        0.0098
     14 C           3.4207   -0.8233   24.3512 C.3     1  UNL1        0.0005
     15 C           3.4271   -1.2107   22.9021 C.3     1  UNL1        0.0000
     16 C           2.6097   -0.4326   21.9141 C.3     1  UNL1        0.0000
     17 C           1.7859    0.7331   22.3752 C.3     1  UNL1        0.0000
     18 C           1.7795    1.1205   23.8242 C.3     1  UNL1        0.0000
     19 C           2.5969    0.3423   24.8123 C.3     1  UNL1        0.0000
     20 C           6.8834   -0.0868   36.5178 C.3     1  UNL1        0.0262
     21 C           5.4527   -0.1728   36.0757 C.3     1  UNL1        0.0942
     22 N           4.3492   -0.1078   37.0897 N.am    1  UNL1       -0.3010
     23 C           3.6283    1.1851   37.3318 C.2     1  UNL1        0.2394
     24 O           4.0109    2.4131   36.5599 O.2     1  UNL1       -0.2736
     25 H           4.0981   -0.9138   37.5963 H       1  UNL1        0.1497
     26 C           2.5248    1.2501   38.3457 C.3     1  UNL1        0.1586
     27 N           2.2752    0.2572   39.4421 N.3     1  UNL1       -0.2893
     28 C           1.0733    0.7129   40.2153 C.3     1  UNL1        0.0715
     29 C           0.5801    1.9874   39.5969 C.3     1  UNL1        0.0482
     30 C           1.4772    2.3194   38.4414 C.3     1  UNL1        0.1350
     31 O           1.3492    3.5114   37.5400 O.3     1  UNL1       -0.3825
     32 H           3.0864    0.2112   40.0587 H       1  UNL1        0.1237
     33 H           0.5888    4.0462   37.8171 H       1  UNL1        0.2104
@<TRIPOS>BOND
     1    21    20    1
     2    21    22    1
     3    22    23   am
     4    23    24    2
     5    26    23    1
     6    26    27    1
     7    27    28    1
     8    28    29    1
     9    29    30    1
    10    30    31    1
    11    21     1    1
    12     1     2   ar
    13     2     3   ar
    14     3     4   ar
    15     4     7    1
    16     7     8   ar
    17     8     9   ar
    18     9    10   ar
    19    10    12    1
    20    12    13    1
    21    13    14    1
    22    14    15    1
    23    15    16    1
    24    16    17    1
    25    17    18    1
    26    18    19    1
    27    10    11   ar
    28     4     5   ar
    29     5     6   ar
    30    30    26    1
    31     6     1   ar
    32    11     7   ar
    33    19    14    1
    34    22    25    1
    35    27    32    1
    36    31    33    1
