@<TRIPOS>MOLECULE
*****
 33 38 0 0 0
SMALL
GASTEIGER

@<TRIPOS>ATOM
      1 N           4.0359   -2.0998   27.0475 N.3     1  UNL1       -0.3219
      2 C           5.2454   -2.3477   26.1956 C.3     1  UNL1        0.0563
      3 C           5.1744   -2.1350   24.7124 C.3     1  UNL1        0.0318
      4 C           6.3838   -2.3829   23.8604 C.3     1  UNL1        0.0595
      5 C           7.6642   -2.8435   24.4916 C.3     1  UNL1        0.0164
      6 C           7.7352   -3.0562   25.9748 C.3     1  UNL1        0.0071
      7 C           6.5258   -2.8083   26.8268 C.3     1  UNL1        0.0389
      8 H           3.2616   -1.7944   26.4580 H       1  UNL1        0.1188
      9 H           4.2465   -1.3757   27.7343 H       1  UNL1        0.1188
     10 N           6.3128   -2.1702   22.3773 N.3     1  UNL1       -0.2652
     11 C           7.4171   -2.4288   21.3956 C.3     1  UNL1        0.1021
     12 C           6.9118   -2.0800   20.0271 C.ar    1  UNL1        0.0266
     13 C           7.5586   -2.1329   18.6747 C.ar    1  UNL1        0.1003
     14 N           6.7887   -1.7115   17.4582 N.ar    1  UNL1       -0.2086
     15 C           5.3722   -1.2372   17.5941 C.ar    1  UNL1        0.2564
     16 N           4.3715   -0.7618   16.5828 N.ar    1  UNL1       -0.1084
     17 N           3.1064   -0.4150   17.3102 N.ar    1  UNL1       -0.1315
     18 C           3.3251   -0.6761   18.7710 C.ar    1  UNL1        0.1476
     19 N           4.7255   -1.1843   18.9464 N.ar    1  UNL1       -0.2647
     20 C           5.4952   -1.6057   20.1629 C.ar    1  UNL1        0.0603
     21 C           5.1251   -1.6614   21.6155 C.3     1  UNL1        0.1171
     22 C           2.3199   -0.4660   19.8643 C.3     1  UNL1        0.0592
     23 C           0.9027   -0.5156   20.3531 C.3     1  UNL1        0.0080
     24 C           1.9962   -0.0524   21.2694 C.3     1  UNL1        0.0080
     25 C           6.5968   -3.0210   28.3099 C.ar    1  UNL1        0.0086
     26 C           6.6303   -4.4133   28.8671 C.ar    1  UNL1        0.0300
     27 C           6.7013   -4.6260   30.3502 C.ar    1  UNL1        0.1672
     28 F           6.7348   -6.0183   30.9075 F       1  UNL1       -0.2018
     29 C           6.7388   -3.4466   31.2761 C.ar    1  UNL1        0.1696
     30 F           6.8098   -3.6593   32.7593 F       1  UNL1       -0.2017
     31 C           6.7053   -2.0542   30.7190 C.ar    1  UNL1        0.0612
     32 C           6.6342   -1.8415   29.2358 C.ar    1  UNL1        0.1385
     33 F           6.6007   -0.4493   28.6786 F       1  UNL1       -0.2044
@<TRIPOS>BOND
     1     2     1    1
     2     2     3    1
     3     3     4    1
     4     4    10    1
     5    10    11    1
     6    11    12    1
     7    12    13   ar
     8    13    14   ar
     9    14    15   ar
    10    15    16   ar
    11    16    17   ar
    12    17    18   ar
    13    18    22    1
    14    22    23    1
    15    23    24    1
    16    18    19   ar
    17    19    20   ar
    18    20    21    1
    19     4     5    1
    20     5     6    1
    21     6     7    1
    22     7    25    1
    23    25    26   ar
    24    26    27   ar
    25    27    28    1
    26    27    29   ar
    27    29    30    1
    28    29    31   ar
    29    31    32   ar
    30    32    33    1
    31     7     2    1
    32    32    25   ar
    33    21    10    1
    34    20    12   ar
    35    19    15   ar
    36    24    22    1
    37     1     8    1
    38     1     9    1
@<TRIPOS>MOLECULE
*****
 33 38 0 0 0
SMALL
GASTEIGER

@<TRIPOS>ATOM
      1 N           0.3667    4.6576   27.7179 N.3     1  UNL1       -0.3219
      2 C           0.2361    3.2235   28.1378 C.3     1  UNL1        0.0563
      3 C           1.1508    2.6626   29.1861 C.3     1  UNL1        0.0318
      4 C           1.0203    1.2286   29.6060 C.3     1  UNL1        0.0595
      5 C          -0.0250    0.3553   28.9778 C.3     1  UNL1        0.0164
      6 C          -0.9397    0.9161   27.9295 C.3     1  UNL1        0.0071
      7 C          -0.8092    2.3502   27.5096 C.3     1  UNL1        0.0389
      8 H           1.1218    5.0982   28.2433 H       1  UNL1        0.1188
      9 H          -0.5083    5.1475   27.9044 H       1  UNL1        0.1188
     10 N           1.9350    0.6678   30.6543 N.3     1  UNL1       -0.2652
     11 C           2.7456   -0.5888   30.5363 C.3     1  UNL1        0.1021
     12 C           3.5113   -0.7680   31.8137 C.ar    1  UNL1        0.0266
     13 C           4.4721   -1.8265   32.2678 C.ar    1  UNL1        0.1003
     14 N           5.0957   -1.7392   33.6293 N.ar    1  UNL1       -0.2086
     15 C           4.7583   -0.5934   34.5366 C.ar    1  UNL1        0.2564
     16 N           5.2124   -0.2434   35.9228 N.ar    1  UNL1       -0.1084
     17 N           4.5321    1.0314   36.3253 N.ar    1  UNL1       -0.1315
     18 C           3.6577    1.4693   35.1880 C.ar    1  UNL1        0.1476
     19 N           3.7975    0.4651   34.0825 N.ar    1  UNL1       -0.2647
     20 C           3.1740    0.3778   32.7210 C.ar    1  UNL1        0.0603
     21 C           2.1997    1.2652   32.0045 C.3     1  UNL1        0.1171
     22 C           2.7949    2.6961   35.1608 C.3     1  UNL1        0.0592
     23 C           2.0271    3.7273   34.3883 C.3     1  UNL1        0.0080
     24 C           2.0684    3.7895   35.8865 C.3     1  UNL1        0.0080
     25 C          -1.7240    2.9110   26.4613 C.ar    1  UNL1        0.0086
     26 C          -3.0491    3.4926   26.8558 C.ar    1  UNL1        0.0300
     27 C          -3.9638    4.0534   25.8076 C.ar    1  UNL1        0.1672
     28 F          -5.2891    4.6351   26.2020 F       1  UNL1       -0.2018
     29 C          -3.5535    4.0325   24.3650 C.ar    1  UNL1        0.1696
     30 F          -4.4683    4.5933   23.3168 F       1  UNL1       -0.2017
     31 C          -2.2283    3.4508   23.9705 C.ar    1  UNL1        0.0612
     32 C          -1.3135    2.8901   25.0187 C.ar    1  UNL1        0.1385
     33 F           0.0116    2.3084   24.6244 F       1  UNL1       -0.2044
@<TRIPOS>BOND
     1     2     1    1
     2     2     3    1
     3     3     4    1
     4     4    10    1
     5    10    11    1
     6    11    12    1
     7    12    13   ar
     8    13    14   ar
     9    14    15   ar
    10    15    16   ar
    11    16    17   ar
    12    17    18   ar
    13    18    22    1
    14    22    23    1
    15    23    24    1
    16    18    19   ar
    17    19    20   ar
    18    20    21    1
    19     4     5    1
    20     5     6    1
    21     6     7    1
    22     7    25    1
    23    25    26   ar
    24    26    27   ar
    25    27    28    1
    26    27    29   ar
    27    29    30    1
    28    29    31   ar
    29    31    32   ar
    30    32    33    1
    31     7     2    1
    32    32    25   ar
    33    21    10    1
    34    20    12   ar
    35    19    15   ar
    36    24    22    1
    37     1     8    1
    38     1     9    1
@<TRIPOS>MOLECULE
*****
 33 38 0 0 0
SMALL
GASTEIGER

@<TRIPOS>ATOM
      1 N           0.8811    0.7554   17.9722 N.3     1  UNL1       -0.3219
      2 C           0.8299    1.0040   19.4505 C.3     1  UNL1        0.0563
      3 C          -0.2493    1.8709   20.0283 C.3     1  UNL1        0.0318
      4 C          -0.3006    2.1196   21.5066 C.3     1  UNL1        0.0595
      5 C           0.7273    1.5015   22.4073 C.3     1  UNL1        0.0164
      6 C           1.8066    0.6346   21.8295 C.3     1  UNL1        0.0071
      7 C           1.8578    0.3859   20.3511 C.3     1  UNL1        0.0389
      8 H           0.1127    1.2487   17.5176 H       1  UNL1        0.1188
      9 H           0.7964   -0.2451   17.7925 H       1  UNL1        0.1188
     10 N          -1.3799    2.9865   22.0844 N.3     1  UNL1       -0.2652
     11 C          -1.3442    3.6655   23.4214 C.3     1  UNL1        0.1021
     12 C          -2.6266    4.4252   23.5898 C.ar    1  UNL1        0.0266
     13 C          -3.1471    5.2806   24.7066 C.ar    1  UNL1        0.1003
     14 N          -4.4959    5.9267   24.5903 N.ar    1  UNL1       -0.2086
     15 C          -5.3241    5.7172   23.3574 C.ar    1  UNL1        0.2564
     16 N          -6.6803    6.2213   22.9616 N.ar    1  UNL1       -0.1084
     17 N          -6.9979    5.6774   21.6003 N.ar    1  UNL1       -0.1315
     18 C          -5.8380    4.8372   21.1547 C.ar    1  UNL1        0.1476
     19 N          -4.8035    4.8618   22.2406 N.ar    1  UNL1       -0.2647
     20 C          -3.4548    4.2158   22.3568 C.ar    1  UNL1        0.0603
     21 C          -2.6843    3.3266   21.4264 C.3     1  UNL1        0.1171
     22 C          -5.7313    4.1015   19.8519 C.3     1  UNL1        0.0592
     23 C          -6.3128    3.1573   18.8418 C.3     1  UNL1        0.0080
     24 C          -4.9650    3.7715   18.6054 C.3     1  UNL1        0.0080
     25 C           2.9371   -0.4810   19.7734 C.ar    1  UNL1        0.0086
     26 C           2.7705   -1.9716   19.7518 C.ar    1  UNL1        0.0300
     27 C           3.8498   -2.8385   19.1741 C.ar    1  UNL1        0.1672
     28 F           3.6833   -4.3291   19.1524 F       1  UNL1       -0.2018
     29 C           5.0955   -2.2149   18.6180 C.ar    1  UNL1        0.1696
     30 F           6.1747   -3.0818   18.0403 F       1  UNL1       -0.2017
     31 C           5.2621   -0.7242   18.6397 C.ar    1  UNL1        0.0612
     32 C           4.1828    0.1426   19.2174 C.ar    1  UNL1        0.1385
     33 F           4.3493    1.6332   19.2391 F       1  UNL1       -0.2044
@<TRIPOS>BOND
     1     2     1    1
     2     2     3    1
     3     3     4    1
     4     4    10    1
     5    10    11    1
     6    11    12    1
     7    12    13   ar
     8    13    14   ar
     9    14    15   ar
    10    15    16   ar
    11    16    17   ar
    12    17    18   ar
    13    18    22    1
    14    22    23    1
    15    23    24    1
    16    18    19   ar
    17    19    20   ar
    18    20    21    1
    19     4     5    1
    20     5     6    1
    21     6     7    1
    22     7    25    1
    23    25    26   ar
    24    26    27   ar
    25    27    28    1
    26    27    29   ar
    27    29    30    1
    28    29    31   ar
    29    31    32   ar
    30    32    33    1
    31     7     2    1
    32    32    25   ar
    33    21    10    1
    34    20    12   ar
    35    19    15   ar
    36    24    22    1
    37     1     8    1
    38     1     9    1
@<TRIPOS>MOLECULE
*****
 33 38 0 0 0
SMALL
GASTEIGER

@<TRIPOS>ATOM
      1 N           7.1922   -4.2385   20.8571 N.3     1  UNL1       -0.3219
      2 C           6.5142   -3.6196   22.0433 C.3     1  UNL1        0.0563
      3 C           6.8243   -4.1121   23.4259 C.3     1  UNL1        0.0318
      4 C           6.1463   -3.4933   24.6122 C.3     1  UNL1        0.0595
      5 C           5.1581   -2.3819   24.4160 C.3     1  UNL1        0.0164
      6 C           4.8480   -1.8895   23.0335 C.3     1  UNL1        0.0071
      7 C           5.5260   -2.5083   21.8471 C.3     1  UNL1        0.0389
      8 H           7.8264   -4.9724   21.1726 H       1  UNL1        0.1188
      9 H           7.7210   -3.5241   20.3567 H       1  UNL1        0.1188
     10 N           6.4564   -3.9858   25.9947 N.3     1  UNL1       -0.2652
     11 C           7.0911   -5.3001   26.3407 C.3     1  UNL1        0.1021
     12 C           7.2132   -5.3770   27.8337 C.ar    1  UNL1        0.0266
     13 C           7.7614   -6.4368   28.7426 C.ar    1  UNL1        0.1003
     14 N           7.7504   -6.2299   30.2283 N.ar    1  UNL1       -0.2086
     15 C           7.1912   -4.9632   30.8050 C.ar    1  UNL1        0.2564
     16 N           7.0474   -4.4815   32.2183 N.ar    1  UNL1       -0.1084
     17 N           6.4104   -3.1240   32.1828 N.ar    1  UNL1       -0.1315
     18 C           6.1605   -2.7666   30.7476 C.ar    1  UNL1        0.1476
     19 N           6.6430   -3.9033   29.8961 N.ar    1  UNL1       -0.2647
     20 C           6.6540   -4.1102   28.4105 C.ar    1  UNL1        0.0603
     21 C           6.1863   -3.2504   27.2738 C.3     1  UNL1        0.1171
     22 C           5.5374   -1.4957   30.2511 C.3     1  UNL1        0.0592
     23 C           5.6410   -0.2123   29.4818 C.3     1  UNL1        0.0080
     24 C           4.3544   -0.5779   30.1606 C.3     1  UNL1        0.0080
     25 C           5.2159   -2.0158   20.4647 C.ar    1  UNL1        0.0086
     26 C           5.9009   -0.7916   19.9335 C.ar    1  UNL1        0.0300
     27 C           5.5907   -0.2991   18.5510 C.ar    1  UNL1        0.1672
     28 F           6.2757    0.9251   18.0196 F       1  UNL1       -0.2018
     29 C           4.5957   -1.0307   17.6998 C.ar    1  UNL1        0.1696
     30 F           4.2856   -0.5382   16.3173 F       1  UNL1       -0.2017
     31 C           3.9107   -2.2549   18.2310 C.ar    1  UNL1        0.0612
     32 C           4.2209   -2.7474   19.6135 C.ar    1  UNL1        0.1385
     33 F           3.5359   -3.9716   20.1448 F       1  UNL1       -0.2044
@<TRIPOS>BOND
     1     2     1    1
     2     2     3    1
     3     3     4    1
     4     4    10    1
     5    10    11    1
     6    11    12    1
     7    12    13   ar
     8    13    14   ar
     9    14    15   ar
    10    15    16   ar
    11    16    17   ar
    12    17    18   ar
    13    18    22    1
    14    22    23    1
    15    23    24    1
    16    18    19   ar
    17    19    20   ar
    18    20    21    1
    19     4     5    1
    20     5     6    1
    21     6     7    1
    22     7    25    1
    23    25    26   ar
    24    26    27   ar
    25    27    28    1
    26    27    29   ar
    27    29    30    1
    28    29    31   ar
    29    31    32   ar
    30    32    33    1
    31     7     2    1
    32    32    25   ar
    33    21    10    1
    34    20    12   ar
    35    19    15   ar
    36    24    22    1
    37     1     8    1
    38     1     9    1
@<TRIPOS>MOLECULE
*****
 33 38 0 0 0
SMALL
GASTEIGER

@<TRIPOS>ATOM
      1 N           3.6571   -0.7229   28.3414 N.3     1  UNL1       -0.3219
      2 C           3.0880   -0.2403   27.0402 C.3     1  UNL1        0.0563
      3 C           3.5619   -0.8358   25.7475 C.3     1  UNL1        0.0318
      4 C           2.9929   -0.3532   24.4462 C.3     1  UNL1        0.0595
      5 C           1.9500    0.7249   24.4375 C.3     1  UNL1        0.0164
      6 C           1.4762    1.3204   25.7301 C.3     1  UNL1        0.0071
      7 C           2.0451    0.8378   27.0314 C.3     1  UNL1        0.0389
      8 H           4.3475   -1.4517   28.1611 H       1  UNL1        0.1188
      9 H           2.9075   -1.1004   28.9211 H       1  UNL1        0.1188
     10 N           3.4669   -0.9488   23.1536 N.3     1  UNL1       -0.2652
     11 C           4.3046   -2.1843   23.0069 C.3     1  UNL1        0.1021
     12 C           4.5417   -2.4124   21.5435 C.ar    1  UNL1        0.0266
     13 C           5.2977   -3.4755   20.8029 C.ar    1  UNL1        0.1003
     14 N           5.3625   -3.4439   19.3046 N.ar    1  UNL1       -0.2086
     15 C           4.6713   -2.3493   18.5469 C.ar    1  UNL1        0.2564
     16 N           4.5610   -2.0594   17.0793 N.ar    1  UNL1       -0.1084
     17 N           3.7368   -0.8173   16.9129 N.ar    1  UNL1       -0.1315
     18 C           3.3378   -0.3394   18.2775 C.ar    1  UNL1        0.1476
     19 N           3.9153   -1.2863   19.2875 N.ar    1  UNL1       -0.2647
     20 C           3.8505   -1.3178   20.7857 C.ar    1  UNL1        0.0603
     21 C           3.1862   -0.4132   21.7809 C.3     1  UNL1        0.1171
     22 C           2.5070    0.8725   18.5793 C.3     1  UNL1        0.0592
     23 C           2.4057    2.2952   19.0435 C.3     1  UNL1        0.0080
     24 C           1.1694    1.5488   18.6378 C.3     1  UNL1        0.0080
     25 C           1.5712    1.4334   28.3240 C.ar    1  UNL1        0.0086
     26 C           2.1962    2.6946   28.8423 C.ar    1  UNL1        0.0300
     27 C           1.7222    3.2902   30.1348 C.ar    1  UNL1        0.1672
     28 F           2.3472    4.5515   30.6532 F       1  UNL1       -0.2018
     29 C           0.6235    2.6245   30.9091 C.ar    1  UNL1        0.1696
     30 F           0.1496    3.2201   32.2017 F       1  UNL1       -0.2017
     31 C          -0.0015    1.3632   30.3908 C.ar    1  UNL1        0.0612
     32 C           0.4724    0.7677   29.0982 C.ar    1  UNL1        0.1385
     33 F          -0.1524   -0.4936   28.5799 F       1  UNL1       -0.2044
@<TRIPOS>BOND
     1     2     1    1
     2     2     3    1
     3     3     4    1
     4     4    10    1
     5    10    11    1
     6    11    12    1
     7    12    13   ar
     8    13    14   ar
     9    14    15   ar
    10    15    16   ar
    11    16    17   ar
    12    17    18   ar
    13    18    22    1
    14    22    23    1
    15    23    24    1
    16    18    19   ar
    17    19    20   ar
    18    20    21    1
    19     4     5    1
    20     5     6    1
    21     6     7    1
    22     7    25    1
    23    25    26   ar
    24    26    27   ar
    25    27    28    1
    26    27    29   ar
    27    29    30    1
    28    29    31   ar
    29    31    32   ar
    30    32    33    1
    31     7     2    1
    32    32    25   ar
    33    21    10    1
    34    20    12   ar
    35    19    15   ar
    36    24    22    1
    37     1     8    1
    38     1     9    1
@<TRIPOS>MOLECULE
*****
 33 38 0 0 0
SMALL
GASTEIGER

@<TRIPOS>ATOM
      1 N           5.8483   -4.2504   21.8110 N.3     1  UNL1       -0.3219
      2 C           5.7172   -3.3337   22.9909 C.3     1  UNL1        0.0563
      3 C           6.2600   -3.7479   24.3266 C.3     1  UNL1        0.0318
      4 C           6.1289   -2.8312   25.5066 C.3     1  UNL1        0.0595
      5 C           5.4550   -1.5002   25.3510 C.3     1  UNL1        0.0164
      6 C           4.9122   -1.0859   24.0154 C.3     1  UNL1        0.0071
      7 C           5.0433   -2.0026   22.8354 C.3     1  UNL1        0.0389
      8 H           6.3284   -5.1042   22.0955 H       1  UNL1        0.1188
      9 H           6.3851   -3.7866   21.0781 H       1  UNL1        0.1188
     10 N           6.6717   -3.2456   26.8421 N.3     1  UNL1       -0.2652
     11 C           6.6570   -2.4201   28.0944 C.3     1  UNL1        0.1021
     12 C           7.3007   -3.2225   29.1861 C.ar    1  UNL1        0.0266
     13 C           7.5645   -2.9206   30.6315 C.ar    1  UNL1        0.1003
     14 N           8.2409   -3.9402   31.4993 N.ar    1  UNL1       -0.2086
     15 C           8.6534   -5.2615   30.9217 C.ar    1  UNL1        0.2564
     16 N           9.3329   -6.4537   31.5276 N.ar    1  UNL1       -0.1084
     17 N           9.4890   -7.4923   30.4567 N.ar    1  UNL1       -0.1315
     18 C           8.9060   -6.9421   29.1889 C.ar    1  UNL1        0.1476
     19 N           8.3896   -5.5634   29.4763 N.ar    1  UNL1       -0.2647
     20 C           7.7133   -4.5439   28.6085 C.ar    1  UNL1        0.0603
     21 C           7.3245   -4.5582   27.1598 C.3     1  UNL1        0.1171
     22 C           8.8494   -7.6469   27.8660 C.3     1  UNL1        0.0592
     23 C           9.4945   -8.0199   26.5642 C.3     1  UNL1        0.0080
     24 C           8.1063   -8.4945   26.8764 C.3     1  UNL1        0.0080
     25 C           4.5005   -1.5883   21.4998 C.ar    1  UNL1        0.0086
     26 C           3.0198   -1.4554   21.3006 C.ar    1  UNL1        0.0300
     27 C           2.4770   -1.0411   19.9651 C.ar    1  UNL1        0.1672
     28 F           0.9962   -0.9081   19.7658 F       1  UNL1       -0.2018
     29 C           3.4148   -0.7597   18.8288 C.ar    1  UNL1        0.1696
     30 F           2.8720   -0.3453   17.4933 F       1  UNL1       -0.2017
     31 C           4.8956   -0.8926   19.0280 C.ar    1  UNL1        0.0612
     32 C           5.4384   -1.3069   20.3636 C.ar    1  UNL1        0.1385
     33 F           6.9192   -1.4398   20.5629 F       1  UNL1       -0.2044
@<TRIPOS>BOND
     1     2     1    1
     2     2     3    1
     3     3     4    1
     4     4    10    1
     5    10    11    1
     6    11    12    1
     7    12    13   ar
     8    13    14   ar
     9    14    15   ar
    10    15    16   ar
    11    16    17   ar
    12    17    18   ar
    13    18    22    1
    14    22    23    1
    15    23    24    1
    16    18    19   ar
    17    19    20   ar
    18    20    21    1
    19     4     5    1
    20     5     6    1
    21     6     7    1
    22     7    25    1
    23    25    26   ar
    24    26    27   ar
    25    27    28    1
    26    27    29   ar
    27    29    30    1
    28    29    31   ar
    29    31    32   ar
    30    32    33    1
    31     7     2    1
    32    32    25   ar
    33    21    10    1
    34    20    12   ar
    35    19    15   ar
    36    24    22    1
    37     1     8    1
    38     1     9    1
@<TRIPOS>MOLECULE
*****
 33 38 0 0 0
SMALL
GASTEIGER

@<TRIPOS>ATOM
      1 N           3.4011    0.2054   17.4838 N.3     1  UNL1       -0.3219
      2 C           2.3687    0.4381   18.5468 C.3     1  UNL1        0.0563
      3 C           1.3304    1.5050   18.3632 C.3     1  UNL1        0.0318
      4 C           0.2979    1.7377   19.4261 C.3     1  UNL1        0.0595
      5 C           0.3037    0.9035   20.6727 C.3     1  UNL1        0.0164
      6 C           1.3420   -0.1634   20.8563 C.3     1  UNL1        0.0071
      7 C           2.3745   -0.3961   19.7934 C.3     1  UNL1        0.0389
      8 H           3.2486    0.8564   16.7134 H       1  UNL1        0.1188
      9 H           3.3253   -0.7519   17.1400 H       1  UNL1        0.1188
     10 N          -0.7403    2.8047   19.2425 N.3     1  UNL1       -0.2652
     11 C          -0.8973    3.6840   18.0374 C.3     1  UNL1        0.1021
     12 C          -2.0578    4.6024   18.2819 C.ar    1  UNL1        0.0266
     13 C          -2.6768    5.6822   17.4448 C.ar    1  UNL1        0.1003
     14 N          -3.8561    6.4503   17.9639 N.ar    1  UNL1       -0.2086
     15 C          -4.4163    6.1386   19.3199 C.ar    1  UNL1        0.2564
     16 N          -5.5628    6.7229   20.0908 N.ar    1  UNL1       -0.1084
     17 N          -5.6523    6.0041   21.4044 N.ar    1  UNL1       -0.1315
     18 C          -4.5612    4.9756   21.4452 C.ar    1  UNL1        0.1476
     19 N          -3.7973    5.0587   20.1570 N.ar    1  UNL1       -0.2647
     20 C          -2.6181    4.2906   19.6380 C.ar    1  UNL1        0.0603
     21 C          -1.8038    3.1796   20.2316 C.3     1  UNL1        0.1171
     22 C          -4.2828    4.0300   22.5758 C.3     1  UNL1        0.0592
     23 C          -4.7140    2.8940   23.4553 C.3     1  UNL1        0.0080
     24 C          -3.3695    3.5283   23.6547 C.3     1  UNL1        0.0080
     25 C           3.4127   -1.4631   19.9770 C.ar    1  UNL1        0.0086
     26 C           3.2124   -2.8176   19.3647 C.ar    1  UNL1        0.0300
     27 C           4.2507   -3.8846   19.5484 C.ar    1  UNL1        0.1672
     28 F           4.0504   -5.2393   18.9360 F       1  UNL1       -0.2018
     29 C           5.4891   -3.5970   20.3443 C.ar    1  UNL1        0.1696
     30 F           6.5273   -4.6639   20.5279 F       1  UNL1       -0.2017
     31 C           5.6894   -2.2423   20.9566 C.ar    1  UNL1        0.0612
     32 C           4.6511   -1.1754   20.7730 C.ar    1  UNL1        0.1385
     33 F           4.8513    0.1792   21.3853 F       1  UNL1       -0.2044
@<TRIPOS>BOND
     1     2     1    1
     2     2     3    1
     3     3     4    1
     4     4    10    1
     5    10    11    1
     6    11    12    1
     7    12    13   ar
     8    13    14   ar
     9    14    15   ar
    10    15    16   ar
    11    16    17   ar
    12    17    18   ar
    13    18    22    1
    14    22    23    1
    15    23    24    1
    16    18    19   ar
    17    19    20   ar
    18    20    21    1
    19     4     5    1
    20     5     6    1
    21     6     7    1
    22     7    25    1
    23    25    26   ar
    24    26    27   ar
    25    27    28    1
    26    27    29   ar
    27    29    30    1
    28    29    31   ar
    29    31    32   ar
    30    32    33    1
    31     7     2    1
    32    32    25   ar
    33    21    10    1
    34    20    12   ar
    35    19    15   ar
    36    24    22    1
    37     1     8    1
    38     1     9    1
@<TRIPOS>MOLECULE
*****
 33 38 0 0 0
SMALL
GASTEIGER

@<TRIPOS>ATOM
      1 N           1.9862    2.8066   26.8973 N.3     1  UNL1       -0.3219
      2 C           2.5559    1.4283   27.0566 C.3     1  UNL1        0.0563
      3 C           3.0479    0.6766   25.8554 C.3     1  UNL1        0.0318
      4 C           3.6176   -0.7019   26.0147 C.3     1  UNL1        0.0595
      5 C           3.6954   -1.3287   27.3752 C.3     1  UNL1        0.0164
      6 C           3.2034   -0.5770   28.5764 C.3     1  UNL1        0.0071
      7 C           2.6336    0.8015   28.4172 C.3     1  UNL1        0.0389
      8 H           2.0104    3.0728   25.9129 H       1  UNL1        0.1188
      9 H           2.5393    3.4682   27.4421 H       1  UNL1        0.1188
     10 N           4.1096   -1.4535   24.8134 N.3     1  UNL1       -0.2652
     11 C           5.2071   -2.4759   24.8016 C.3     1  UNL1        0.1021
     12 C           5.3662   -2.9689   23.3939 C.ar    1  UNL1        0.0266
     13 C           6.2919   -3.9786   22.7827 C.ar    1  UNL1        0.1003
     14 N           6.2183   -4.2706   21.3132 N.ar    1  UNL1       -0.2086
     15 C           5.2191   -3.5530   20.4551 C.ar    1  UNL1        0.2564
     16 N           4.9161   -3.6313   18.9880 N.ar    1  UNL1       -0.1084
     17 N           3.8032   -2.6699   18.6926 N.ar    1  UNL1       -0.1315
     18 C           3.4184   -1.9975   19.9770 C.ar    1  UNL1        0.1476
     19 N           4.2935   -2.5432   21.0662 N.ar    1  UNL1       -0.2647
     20 C           4.3670   -2.2512   22.5357 C.ar    1  UNL1        0.0603
     21 C           3.5904   -1.3146   23.4130 C.3     1  UNL1        0.1171
     22 C           2.3467   -0.9613   20.1430 C.3     1  UNL1        0.0592
     23 C           1.9429    0.4695   20.3422 C.3     1  UNL1        0.0080
     24 C           0.8942   -0.5972   20.2314 C.3     1  UNL1        0.0080
     25 C           2.1417    1.5531   29.6185 C.ar    1  UNL1        0.0086
     26 C           3.0693    2.4667   30.3631 C.ar    1  UNL1        0.0300
     27 C           2.5774    3.2183   31.5644 C.ar    1  UNL1        0.1672
     28 F           3.5051    4.1321   32.3092 F       1  UNL1       -0.2018
     29 C           1.1578    3.0563   32.0210 C.ar    1  UNL1        0.1696
     30 F           0.6659    3.8079   33.2222 F       1  UNL1       -0.2017
     31 C           0.2301    2.1426   31.2763 C.ar    1  UNL1        0.0612
     32 C           0.7221    1.3910   30.0750 C.ar    1  UNL1        0.1385
     33 F          -0.2056    0.4773   29.3302 F       1  UNL1       -0.2044
@<TRIPOS>BOND
     1     2     1    1
     2     2     3    1
     3     3     4    1
     4     4    10    1
     5    10    11    1
     6    11    12    1
     7    12    13   ar
     8    13    14   ar
     9    14    15   ar
    10    15    16   ar
    11    16    17   ar
    12    17    18   ar
    13    18    22    1
    14    22    23    1
    15    23    24    1
    16    18    19   ar
    17    19    20   ar
    18    20    21    1
    19     4     5    1
    20     5     6    1
    21     6     7    1
    22     7    25    1
    23    25    26   ar
    24    26    27   ar
    25    27    28    1
    26    27    29   ar
    27    29    30    1
    28    29    31   ar
    29    31    32   ar
    30    32    33    1
    31     7     2    1
    32    32    25   ar
    33    21    10    1
    34    20    12   ar
    35    19    15   ar
    36    24    22    1
    37     1     8    1
    38     1     9    1
@<TRIPOS>MOLECULE
*****
 33 38 0 0 0
SMALL
GASTEIGER

@<TRIPOS>ATOM
      1 N           7.0238    1.1079   33.7712 N.3     1  UNL1       -0.3219
      2 C           6.2511   -0.1461   33.4876 C.3     1  UNL1        0.0563
      3 C           6.7045   -1.0772   32.4025 C.3     1  UNL1        0.0318
      4 C           5.9319   -2.3313   32.1189 C.3     1  UNL1        0.0595
      5 C           4.7059   -2.6542   32.9204 C.3     1  UNL1        0.0164
      6 C           4.2525   -1.7231   34.0055 C.3     1  UNL1        0.0071
      7 C           5.0250   -0.4691   34.2891 C.3     1  UNL1        0.0389
      8 H           7.8205    1.1670   33.1371 H       1  UNL1        0.1188
      9 H           7.3568    1.0914   34.7351 H       1  UNL1        0.1188
     10 N           6.3854   -3.2623   31.0337 N.3     1  UNL1       -0.2652
     11 C           7.0165   -4.6084   31.2336 C.3     1  UNL1        0.1021
     12 C           7.3085   -5.1887   29.8816 C.ar    1  UNL1        0.0266
     13 C           7.9265   -6.4887   29.4596 C.ar    1  UNL1        0.1003
     14 N           8.0939   -6.8013   28.0021 N.ar    1  UNL1       -0.2086
     15 C           7.6433   -5.8140   26.9667 C.ar    1  UNL1        0.2564
     16 N           7.6788   -5.8452   25.4674 N.ar    1  UNL1       -0.1084
     17 N           7.0828   -4.5645   24.9629 N.ar    1  UNL1       -0.1315
     18 C           6.6789   -3.7418   26.1503 C.ar    1  UNL1        0.1476
     19 N           7.0254   -4.5140   27.3887 N.ar    1  UNL1       -0.2647
     20 C           6.8579   -4.2014   28.8462 C.ar    1  UNL1        0.0603
     21 C           6.2874   -3.0108   29.5582 C.3     1  UNL1        0.1171
     22 C           6.0406   -2.3851   26.1069 C.3     1  UNL1        0.0592
     23 C           4.8757   -1.5082   25.7549 C.3     1  UNL1        0.0080
     24 C           6.1001   -0.9120   26.3837 C.3     1  UNL1        0.0080
     25 C           4.5716    0.4620   35.3743 C.ar    1  UNL1        0.0086
     26 C           3.4916    1.4657   35.0984 C.ar    1  UNL1        0.0300
     27 C           3.0381    2.3968   36.1835 C.ar    1  UNL1        0.1672
     28 F           1.9580    3.4005   35.9076 F       1  UNL1       -0.2018
     29 C           3.6646    2.3242   37.5444 C.ar    1  UNL1        0.1696
     30 F           3.2111    3.2552   38.6295 F       1  UNL1       -0.2017
     31 C           4.7446    1.3204   37.8203 C.ar    1  UNL1        0.0612
     32 C           5.1981    0.3894   36.7352 C.ar    1  UNL1        0.1385
     33 F           6.2781   -0.6144   37.0110 F       1  UNL1       -0.2044
@<TRIPOS>BOND
     1     2     1    1
     2     2     3    1
     3     3     4    1
     4     4    10    1
     5    10    11    1
     6    11    12    1
     7    12    13   ar
     8    13    14   ar
     9    14    15   ar
    10    15    16   ar
    11    16    17   ar
    12    17    18   ar
    13    18    22    1
    14    22    23    1
    15    23    24    1
    16    18    19   ar
    17    19    20   ar
    18    20    21    1
    19     4     5    1
    20     5     6    1
    21     6     7    1
    22     7    25    1
    23    25    26   ar
    24    26    27   ar
    25    27    28    1
    26    27    29   ar
    27    29    30    1
    28    29    31   ar
    29    31    32   ar
    30    32    33    1
    31     7     2    1
    32    32    25   ar
    33    21    10    1
    34    20    12   ar
    35    19    15   ar
    36    24    22    1
    37     1     8    1
    38     1     9    1
