@<TRIPOS>MOLECULE
*****
 15 16 0 0 0
SMALL
GASTEIGER

@<TRIPOS>ATOM
      1 C         -11.4383  -17.5268   22.7448 C.ar    1  UNL1        0.0232
      2 C         -11.3677  -18.6572   23.7283 C.ar    1  UNL1        0.0040
      3 C         -10.2509  -18.3683   24.6871 C.ar    1  UNL1        0.0067
      4 C          -9.6314  -17.0593   24.2962 C.ar    1  UNL1        0.0307
      5 S         -10.3652  -16.5393   23.0957 S.2     1  UNL1       -0.0899
      6 C          -8.4800  -16.3882   24.9848 C.ar    1  UNL1        0.0252
      7 C          -8.3849  -16.4108   26.4816 C.ar    1  UNL1        0.0036
      8 C          -7.2336  -15.7398   27.1701 C.ar    1  UNL1        0.0207
      9 C          -6.1774  -15.0461   26.3618 C.ar    1  UNL1        0.0989
     10 N          -6.2725  -15.0235   24.8651 N.ar    1  UNL1       -0.2423
     11 C          -7.4238  -15.6945   24.1765 C.ar    1  UNL1        0.0993
     12 C         -12.4113  -17.4054   21.6096 C.3     1  UNL1        0.1022
     13 C         -11.6752  -15.9181   19.6105 C.3     1  UNL1        0.0861
     14 N         -11.9092  -17.2766   20.2020 N.3     1  UNL1       -0.2922
     15 H         -11.0193  -17.7732   20.1603 H       1  UNL1        0.1236
@<TRIPOS>BOND
     1    13    14    1
     2    14    12    1
     3    12     1    1
     4     1     2   ar
     5     2     3   ar
     6     3     4   ar
     7     4     6    1
     8     6     7   ar
     9     7     8   ar
    10     8     9   ar
    11     9    10   ar
    12    10    11   ar
    13     4     5   ar
    14     5     1   ar
    15    11     6   ar
    16    14    15    1
@<TRIPOS>MOLECULE
*****
 15 16 0 0 0
SMALL
GASTEIGER

@<TRIPOS>ATOM
      1 C          -6.6694  -15.6968   24.2131 C.ar    1  UNL1        0.0232
      2 C          -7.5057  -15.4331   25.4302 C.ar    1  UNL1        0.0040
      3 C          -8.9270  -15.7810   25.1002 C.ar    1  UNL1        0.0067
      4 C          -8.9692  -16.2597   23.6793 C.ar    1  UNL1        0.0307
      5 S          -7.5740  -16.2077   23.1310 S.2     1  UNL1       -0.0899
      6 C         -10.1920  -16.7111   22.9369 C.ar    1  UNL1        0.0252
      7 C         -11.1521  -17.6653   23.5832 C.ar    1  UNL1        0.0036
      8 C         -12.3749  -18.1166   22.8409 C.ar    1  UNL1        0.0207
      9 C         -12.6375  -17.6139   21.4523 C.ar    1  UNL1        0.0989
     10 N         -11.6774  -16.6597   20.8060 N.ar    1  UNL1       -0.2423
     11 C         -10.4547  -16.2083   21.5483 C.ar    1  UNL1        0.0993
     12 C          -5.1887  -15.4866   24.0982 C.3     1  UNL1        0.1022
     13 C          -3.9528  -17.6843   23.4718 C.3     1  UNL1        0.0861
     14 N          -4.3903  -16.2939   23.1180 N.3     1  UNL1       -0.2922
     15 H          -4.9533  -16.3690   22.2708 H       1  UNL1        0.1236
@<TRIPOS>BOND
     1    13    14    1
     2    14    12    1
     3    12     1    1
     4     1     2   ar
     5     2     3   ar
     6     3     4   ar
     7     4     6    1
     8     6     7   ar
     9     7     8   ar
    10     8     9   ar
    11     9    10   ar
    12    10    11   ar
    13     4     5   ar
    14     5     1   ar
    15    11     6   ar
    16    14    15    1
@<TRIPOS>MOLECULE
*****
 15 16 0 0 0
SMALL
GASTEIGER

@<TRIPOS>ATOM
      1 C          -9.1914  -17.8609   22.7908 C.ar    1  UNL1        0.0232
      2 C          -9.4189  -19.3170   23.0703 C.ar    1  UNL1        0.0040
      3 C          -8.1650  -20.0588   22.7132 C.ar    1  UNL1        0.0067
      4 C          -7.1627  -19.0613   22.2130 C.ar    1  UNL1        0.0307
      5 S          -7.7970  -17.7029   22.2610 S.2     1  UNL1       -0.0899
      6 C          -5.7704  -19.3682   21.7467 C.ar    1  UNL1        0.0252
      7 C          -5.5577  -20.1999   20.5167 C.ar    1  UNL1        0.0036
      8 C          -4.1654  -20.5068   20.0504 C.ar    1  UNL1        0.0207
      9 C          -2.9859  -19.9821   20.8142 C.ar    1  UNL1        0.0989
     10 N          -3.1986  -19.1504   22.0443 N.ar    1  UNL1       -0.2423
     11 C          -4.5909  -18.8435   22.5105 C.ar    1  UNL1        0.0993
     12 C         -10.1841  -16.7567   23.0037 C.3     1  UNL1        0.1022
     13 C         -11.1085  -16.0733   20.6738 C.3     1  UNL1        0.0861
     14 N         -10.3897  -15.7178   21.9415 N.3     1  UNL1       -0.2922
     15 H         -10.9124  -14.9553   22.3725 H       1  UNL1        0.1236
@<TRIPOS>BOND
     1    13    14    1
     2    14    12    1
     3    12     1    1
     4     1     2   ar
     5     2     3   ar
     6     3     4   ar
     7     4     6    1
     8     6     7   ar
     9     7     8   ar
    10     8     9   ar
    11     9    10   ar
    12    10    11   ar
    13     4     5   ar
    14     5     1   ar
    15    11     6   ar
    16    14    15    1
@<TRIPOS>MOLECULE
*****
 15 16 0 0 0
SMALL
GASTEIGER

@<TRIPOS>ATOM
      1 C          -8.5625  -16.3719   26.0610 C.ar    1  UNL1        0.0232
      2 C          -9.1716  -17.7185   26.3174 C.ar    1  UNL1        0.0040
      3 C          -9.9136  -18.1344   25.0819 C.ar    1  UNL1        0.0067
      4 C          -9.7630  -17.0449   24.0619 C.ar    1  UNL1        0.0307
      5 S          -8.9280  -15.9556   24.6670 S.2     1  UNL1       -0.0899
      6 C         -10.3452  -17.0448   22.6795 C.ar    1  UNL1        0.0252
      7 C         -11.6796  -16.4076   22.4277 C.ar    1  UNL1        0.0036
      8 C         -12.2617  -16.4075   21.0453 C.ar    1  UNL1        0.0207
      9 C         -11.5095  -17.0445   19.9147 C.ar    1  UNL1        0.0989
     10 N         -10.1752  -17.6817   20.1664 N.ar    1  UNL1       -0.2423
     11 C          -9.5930  -17.6818   21.5488 C.ar    1  UNL1        0.0993
     12 C          -7.7334  -15.5805   27.0287 C.3     1  UNL1        0.1022
     13 C          -5.3421  -15.4849   26.0176 C.3     1  UNL1        0.0861
     14 N          -6.5623  -14.7832   26.5359 N.3     1  UNL1       -0.2922
     15 H          -6.9060  -14.1923   25.7789 H       1  UNL1        0.1236
@<TRIPOS>BOND
     1    13    14    1
     2    14    12    1
     3    12     1    1
     4     1     2   ar
     5     2     3   ar
     6     3     4   ar
     7     4     6    1
     8     6     7   ar
     9     7     8   ar
    10     8     9   ar
    11     9    10   ar
    12    10    11   ar
    13     4     5   ar
    14     5     1   ar
    15    11     6   ar
    16    14    15    1
@<TRIPOS>MOLECULE
*****
 15 16 0 0 0
SMALL
GASTEIGER

@<TRIPOS>ATOM
      1 C          -6.1957  -19.1221   21.5715 C.ar    1  UNL1        0.0232
      2 C          -6.5349  -19.7160   20.2364 C.ar    1  UNL1        0.0040
      3 C          -8.0050  -19.5280   20.0056 C.ar    1  UNL1        0.0067
      4 C          -8.5744  -18.8179   21.1980 C.ar    1  UNL1        0.0307
      5 S          -7.4562  -18.5671   22.1657 S.2     1  UNL1       -0.0899
      6 C         -10.0101  -18.4273   21.3890 C.ar    1  UNL1        0.0252
      7 C         -10.6809  -18.6589   22.7104 C.ar    1  UNL1        0.0036
      8 C         -12.1165  -18.2683   22.9014 C.ar    1  UNL1        0.0207
      9 C         -12.8812  -17.6461   21.7709 C.ar    1  UNL1        0.0989
     10 N         -12.2104  -17.4145   20.4495 N.ar    1  UNL1       -0.2423
     11 C         -10.7748  -17.8051   20.2585 C.ar    1  UNL1        0.0993
     12 C          -4.8348  -19.0890   22.2016 C.3     1  UNL1        0.1022
     13 C          -2.8162  -17.5112   22.6327 C.3     1  UNL1        0.0861
     14 N          -3.7916  -18.1433   21.6845 N.3     1  UNL1       -0.2922
     15 H          -3.2421  -18.6585   20.9968 H       1  UNL1        0.1236
@<TRIPOS>BOND
     1    13    14    1
     2    14    12    1
     3    12     1    1
     4     1     2   ar
     5     2     3   ar
     6     3     4   ar
     7     4     6    1
     8     6     7   ar
     9     7     8   ar
    10     8     9   ar
    11     9    10   ar
    12    10    11   ar
    13     4     5   ar
    14     5     1   ar
    15    11     6   ar
    16    14    15    1
@<TRIPOS>MOLECULE
*****
 15 16 0 0 0
SMALL
GASTEIGER

@<TRIPOS>ATOM
      1 C         -10.8033  -17.5695   22.6356 C.ar    1  UNL1        0.0232
      2 C          -9.8681  -17.2444   21.5088 C.ar    1  UNL1        0.0040
      3 C          -8.6298  -16.6342   22.0956 C.ar    1  UNL1        0.0067
      4 C          -8.7997  -16.5822   23.5850 C.ar    1  UNL1        0.0307
      5 S         -10.1430  -17.1602   23.9188 S.2     1  UNL1       -0.0899
      6 C          -7.8016  -16.0462   24.5681 C.ar    1  UNL1        0.0252
      7 C          -8.1256  -16.0298   26.0326 C.ar    1  UNL1        0.0036
      8 C          -7.1275  -15.4938   27.0156 C.ar    1  UNL1        0.0207
      9 C          -5.8052  -14.9742   26.5341 C.ar    1  UNL1        0.0989
     10 N          -5.4812  -14.9907   25.0697 N.ar    1  UNL1       -0.2423
     11 C          -6.4793  -15.5267   24.0867 C.ar    1  UNL1        0.0993
     12 C         -12.1606  -18.1942   22.5026 C.3     1  UNL1        0.1022
     13 C         -13.9599  -18.2027   24.3767 C.3     1  UNL1        0.0861
     14 N         -13.3463  -17.5607   23.1679 N.3     1  UNL1       -0.2922
     15 H         -13.0610  -16.6217   23.4461 H       1  UNL1        0.1236
@<TRIPOS>BOND
     1    13    14    1
     2    14    12    1
     3    12     1    1
     4     1     2   ar
     5     2     3   ar
     6     3     4   ar
     7     4     6    1
     8     6     7   ar
     9     7     8   ar
    10     8     9   ar
    11     9    10   ar
    12    10    11   ar
    13     4     5   ar
    14     5     1   ar
    15    11     6   ar
    16    14    15    1
@<TRIPOS>MOLECULE
*****
 15 16 0 0 0
SMALL
GASTEIGER

@<TRIPOS>ATOM
      1 C          -6.9071  -16.2473   23.5571 C.ar    1  UNL1        0.0232
      2 C          -6.7718  -17.5029   22.7476 C.ar    1  UNL1        0.0040
      3 C          -8.1328  -18.1201   22.6187 C.ar    1  UNL1        0.0067
      4 C          -9.1093  -17.2460   23.3485 C.ar    1  UNL1        0.0307
      5 S          -8.3517  -16.0886   23.9285 S.2     1  UNL1       -0.0899
      6 C         -10.5843  -17.4872   23.4759 C.ar    1  UNL1        0.0252
      7 C         -11.5454  -16.7341   22.6047 C.ar    1  UNL1        0.0036
      8 C         -13.0204  -16.9752   22.7321 C.ar    1  UNL1        0.0207
      9 C         -13.5342  -17.9694   23.7308 C.ar    1  UNL1        0.0989
     10 N         -12.5732  -18.7225   24.6021 N.ar    1  UNL1       -0.2423
     11 C         -11.0982  -18.4814   24.4746 C.ar    1  UNL1        0.0993
     12 C          -5.7933  -15.3142   23.9298 C.3     1  UNL1        0.1022
     13 C          -5.9260  -15.4219   26.5223 C.3     1  UNL1        0.0861
     14 N          -5.8094  -14.6205   25.2596 N.3     1  UNL1       -0.2922
     15 H          -4.9401  -14.0911   25.3261 H       1  UNL1        0.1236
@<TRIPOS>BOND
     1    13    14    1
     2    14    12    1
     3    12     1    1
     4     1     2   ar
     5     2     3   ar
     6     3     4   ar
     7     4     6    1
     8     6     7   ar
     9     7     8   ar
    10     8     9   ar
    11     9    10   ar
    12    10    11   ar
    13     4     5   ar
    14     5     1   ar
    15    11     6   ar
    16    14    15    1
@<TRIPOS>MOLECULE
*****
 15 16 0 0 0
SMALL
GASTEIGER

@<TRIPOS>ATOM
      1 C          -8.2650  -16.0323   24.2574 C.ar    1  UNL1        0.0232
      2 C          -9.1766  -17.0195   24.9243 C.ar    1  UNL1        0.0040
      3 C          -9.5291  -18.0766   23.9202 C.ar    1  UNL1        0.0067
      4 C          -8.8354  -17.7427   22.6328 C.ar    1  UNL1        0.0307
      5 S          -8.0542  -16.4793   22.8412 S.2     1  UNL1       -0.0899
      6 C          -8.9100  -18.5336   21.3603 C.ar    1  UNL1        0.0252
      7 C         -10.2355  -18.7644   20.6973 C.ar    1  UNL1        0.0036
      8 C         -10.3100  -19.5552   19.4249 C.ar    1  UNL1        0.0207
      9 C          -9.0589  -20.1151   18.8155 C.ar    1  UNL1        0.0989
     10 N          -7.7334  -19.8843   19.4785 N.ar    1  UNL1       -0.2423
     11 C          -7.6589  -19.0935   20.7509 C.ar    1  UNL1        0.0993
     12 C          -7.6690  -14.8123   24.8949 C.3     1  UNL1        0.1022
     13 C          -5.4387  -15.5280   26.0191 C.3     1  UNL1        0.0861
     14 N          -6.1800  -14.6851   25.0240 N.3     1  UNL1       -0.2922
     15 H          -5.7858  -14.8967   24.1074 H       1  UNL1        0.1236
@<TRIPOS>BOND
     1    13    14    1
     2    14    12    1
     3    12     1    1
     4     1     2   ar
     5     2     3   ar
     6     3     4   ar
     7     4     6    1
     8     6     7   ar
     9     7     8   ar
    10     8     9   ar
    11     9    10   ar
    12    10    11   ar
    13     4     5   ar
    14     5     1   ar
    15    11     6   ar
    16    14    15    1
@<TRIPOS>MOLECULE
*****
 15 16 0 0 0
SMALL
GASTEIGER

@<TRIPOS>ATOM
      1 C          -7.4254  -15.7399   24.2355 C.ar    1  UNL1        0.0232
      2 C          -8.7610  -15.5900   24.9019 C.ar    1  UNL1        0.0040
      3 C          -9.7925  -16.2318   24.0221 C.ar    1  UNL1        0.0067
      4 C          -9.0946  -16.7782   22.8120 C.ar    1  UNL1        0.0307
      5 S          -7.6317  -16.4742   22.9439 S.2     1  UNL1       -0.0899
      6 C          -9.7454  -17.5017   21.6704 C.ar    1  UNL1        0.0252
      7 C          -9.2717  -18.8711   21.2827 C.ar    1  UNL1        0.0036
      8 C          -9.9224  -19.5945   20.1412 C.ar    1  UNL1        0.0207
      9 C         -11.0469  -18.9485   19.3874 C.ar    1  UNL1        0.0989
     10 N         -11.5207  -17.5791   19.7751 N.ar    1  UNL1       -0.2423
     11 C         -10.8699  -16.8557   20.9166 C.ar    1  UNL1        0.0993
     12 C          -6.1140  -15.2427   24.7674 C.3     1  UNL1        0.1022
     13 C          -6.4597  -15.3619   27.3396 C.3     1  UNL1        0.0861
     14 N          -6.0500  -14.5936   26.1182 N.3     1  UNL1       -0.2922
     15 H          -5.0817  -14.3071   26.2616 H       1  UNL1        0.1236
@<TRIPOS>BOND
     1    13    14    1
     2    14    12    1
     3    12     1    1
     4     1     2   ar
     5     2     3   ar
     6     3     4   ar
     7     4     6    1
     8     6     7   ar
     9     7     8   ar
    10     8     9   ar
    11     9    10   ar
    12    10    11   ar
    13     4     5   ar
    14     5     1   ar
    15    11     6   ar
    16    14    15    1
