@<TRIPOS>MOLECULE
*****
 27 29 0 0 0
SMALL
GASTEIGER

@<TRIPOS>ATOM
      1 C          -8.0906  -19.0798   20.5442 C.ar    1  UNL1        0.0045
      2 C          -9.1773  -19.3911   19.5583 C.ar    1  UNL1        0.0004
      3 C         -10.5490  -18.8143   19.7470 C.ar    1  UNL1        0.0076
      4 C         -10.8341  -17.9261   20.9217 C.ar    1  UNL1        0.0870
      5 C          -9.7474  -17.6148   21.9076 C.ar    1  UNL1        0.1427
      6 C          -8.3757  -18.1917   21.7189 C.ar    1  UNL1        0.0371
      7 C          -4.1489  -19.3312   20.1575 C.ar    1  UNL1        0.0077
      8 C          -3.9754  -20.8103   19.9780 C.ar    1  UNL1        0.0953
      9 N          -5.1737  -21.7125   19.9873 N.ar    1  UNL1       -0.2426
     10 C          -6.5454  -21.1357   20.1760 C.ar    1  UNL1        0.0988
     11 C          -6.7189  -19.6566   20.3555 C.ar    1  UNL1        0.0190
     12 C          -5.5206  -18.7544   20.3463 C.ar    1  UNL1       -0.0005
     13 C          -3.0501  -17.5755   22.6794 C.3     1  UNL1        0.0499
     14 C          -2.4456  -17.6220   21.3075 C.2     1  UNL1        0.0681
     15 N          -1.2299  -16.8695   20.8538 N.2     1  UNL1       -0.1563
     16 N          -0.9835  -17.2115   19.4142 N.2     1  UNL1       -0.1510
     17 C          -2.0470  -18.1752   18.9782 C.2     1  UNL1        0.1054
     18 C          -2.9506  -18.4289   20.1483 C.3     1  UNL1        0.1047
     19 C         -12.2058  -17.3493   21.1104 C.2     1  UNL1        0.2457
     20 N         -13.0157  -17.7198   22.3174 N.am    1  UNL1       -0.3252
     21 O         -12.7677  -16.4020   20.0922 O.2     1  UNL1       -0.2703
     22 H         -12.6469  -18.3416   22.9857 H       1  UNL1        0.1453
     23 H         -13.9160  -17.3412   22.4412 H       1  UNL1        0.1453
     24 O         -10.0324  -16.7267   23.0824 O.3     1  UNL1       -0.4790
     25 C          -9.5390  -17.1066   24.4470 C.3     1  UNL1        0.1661
     26 C          -8.6463  -16.1723   25.2088 C.3     1  UNL1        0.0472
     27 C          -9.9382  -18.4208   25.0499 C.3     1  UNL1        0.0472
@<TRIPOS>BOND
     1    13    14    1
     2    14    15    2
     3    15    16    1
     4    16    17    2
     5    17    18    1
     6    18     7    1
     7     7     8   ar
     8     8     9   ar
     9     9    10   ar
    10    10    11   ar
    11    11     1    1
    12     1     2   ar
    13     2     3   ar
    14     3     4   ar
    15     4    19    1
    16    19    20   am
    17    19    21    2
    18     4     5   ar
    19     5    24    1
    20    24    25    1
    21    25    26    1
    22    25    27    1
    23     5     6   ar
    24    11    12   ar
    25    18    14    1
    26    12     7   ar
    27     6     1   ar
    28    20    22    1
    29    20    23    1
@<TRIPOS>MOLECULE
*****
 27 29 0 0 0
SMALL
GASTEIGER

@<TRIPOS>ATOM
      1 C          -6.7811  -19.0848   21.1025 C.ar    1  UNL1        0.0045
      2 C          -5.7985  -19.6946   20.1473 C.ar    1  UNL1        0.0004
      3 C          -4.3277  -19.6124   20.4302 C.ar    1  UNL1        0.0076
      4 C          -3.8395  -18.9205   21.6683 C.ar    1  UNL1        0.0870
      5 C          -4.8222  -18.3107   22.6235 C.ar    1  UNL1        0.1427
      6 C          -6.2930  -18.3928   22.3406 C.ar    1  UNL1        0.0371
      7 C         -10.7132  -18.9483   21.6223 C.ar    1  UNL1        0.0077
      8 C         -11.1935  -19.3312   20.2539 C.ar    1  UNL1        0.0953
      9 N         -10.2030  -19.6319   19.1683 N.ar    1  UNL1       -0.2426
     10 C          -8.7322  -19.5498   19.4512 C.ar    1  UNL1        0.0988
     11 C          -8.2519  -19.1669   20.8196 C.ar    1  UNL1        0.0190
     12 C          -9.2424  -18.8662   21.9052 C.ar    1  UNL1       -0.0005
     13 C         -10.4708  -19.8598   24.7465 C.3     1  UNL1        0.0499
     14 C         -11.5923  -19.0665   24.1439 C.2     1  UNL1        0.0681
     15 N         -12.7992  -18.5529   24.8716 N.2     1  UNL1       -0.1563
     16 N         -13.6566  -17.8165   23.8853 N.2     1  UNL1       -0.1510
     17 C         -12.9795  -17.8750   22.5481 C.2     1  UNL1        0.1054
     18 C         -11.7037  -18.6475   22.7079 C.3     1  UNL1        0.1047
     19 C          -2.3688  -18.8384   21.9512 C.2     1  UNL1        0.2457
     20 N          -1.7969  -17.6122   22.5988 N.am    1  UNL1       -0.3252
     21 O          -1.4698  -19.9824   21.5864 O.2     1  UNL1       -0.2703
     22 H          -2.3869  -16.8614   22.8383 H       1  UNL1        0.1453
     23 H          -0.8316  -17.5583   22.7845 H       1  UNL1        0.1453
     24 O          -4.3341  -17.6187   23.8617 O.3     1  UNL1       -0.4790
     25 C          -4.8197  -16.2381   24.1901 C.3     1  UNL1        0.1661
     26 C          -4.7650  -15.1569   23.1517 C.3     1  UNL1        0.0472
     27 C          -5.3600  -15.9384   25.5570 C.3     1  UNL1        0.0472
@<TRIPOS>BOND
     1    13    14    1
     2    14    15    2
     3    15    16    1
     4    16    17    2
     5    17    18    1
     6    18     7    1
     7     7     8   ar
     8     8     9   ar
     9     9    10   ar
    10    10    11   ar
    11    11     1    1
    12     1     2   ar
    13     2     3   ar
    14     3     4   ar
    15     4    19    1
    16    19    20   am
    17    19    21    2
    18     4     5   ar
    19     5    24    1
    20    24    25    1
    21    25    26    1
    22    25    27    1
    23     5     6   ar
    24    11    12   ar
    25    18    14    1
    26    12     7   ar
    27     6     1   ar
    28    20    22    1
    29    20    23    1
@<TRIPOS>MOLECULE
*****
 27 29 0 0 0
SMALL
GASTEIGER

@<TRIPOS>ATOM
      1 C          -6.6734  -19.1548   20.9808 C.ar    1  UNL1        0.0045
      2 C          -6.2175  -19.0645   22.4069 C.ar    1  UNL1        0.0004
      3 C          -4.7522  -19.0201   22.7245 C.ar    1  UNL1        0.0076
      4 C          -3.7428  -19.0658   21.6160 C.ar    1  UNL1        0.0870
      5 C          -4.1987  -19.1561   20.1898 C.ar    1  UNL1        0.1427
      6 C          -5.6640  -19.2006   19.8722 C.ar    1  UNL1        0.0371
      7 C         -10.6122  -18.9273   21.4102 C.ar    1  UNL1        0.0077
      8 C         -11.0694  -19.2882   20.0280 C.ar    1  UNL1        0.0953
      9 N         -10.0613  -19.6048   18.9634 N.ar    1  UNL1       -0.2426
     10 C          -8.5960  -19.5603   19.2810 C.ar    1  UNL1        0.0988
     11 C          -8.1388  -19.1993   20.6632 C.ar    1  UNL1        0.0190
     12 C          -9.1469  -18.8828   21.7278 C.ar    1  UNL1       -0.0005
     13 C         -10.4896  -19.9078   24.5204 C.3     1  UNL1        0.0499
     14 C         -11.5639  -19.0614   23.9045 C.2     1  UNL1        0.0681
     15 N         -12.7706  -18.5171   24.6100 N.2     1  UNL1       -0.1563
     16 N         -13.5727  -17.7300   23.6165 N.2     1  UNL1       -0.1510
     17 C         -12.8618  -17.7879   22.2970 C.2     1  UNL1        0.1054
     18 C         -11.6203  -18.6107   22.4749 C.3     1  UNL1        0.1047
     19 C          -2.2775  -19.0213   21.9335 C.2     1  UNL1        0.2457
     20 N          -1.6924  -17.8157   22.6074 N.am    1  UNL1       -0.3252
     21 O          -1.3973  -20.1825   21.5773 O.2     1  UNL1       -0.2703
     22 H          -2.2701  -17.0536   22.8412 H       1  UNL1        0.1453
     23 H          -0.7306  -17.7865   22.8158 H       1  UNL1        0.1453
     24 O          -3.1893  -19.2018   19.0811 O.3     1  UNL1       -0.4790
     25 C          -2.3971  -17.9755   18.7370 C.3     1  UNL1        0.1661
     26 C          -3.0844  -16.7795   18.1476 C.3     1  UNL1        0.0472
     27 C          -0.9176  -17.9450   18.9823 C.3     1  UNL1        0.0472
@<TRIPOS>BOND
     1    13    14    1
     2    14    15    2
     3    15    16    1
     4    16    17    2
     5    17    18    1
     6    18     7    1
     7     7     8   ar
     8     8     9   ar
     9     9    10   ar
    10    10    11   ar
    11    11     1    1
    12     1     2   ar
    13     2     3   ar
    14     3     4   ar
    15     4    19    1
    16    19    20   am
    17    19    21    2
    18     4     5   ar
    19     5    24    1
    20    24    25    1
    21    25    26    1
    22    25    27    1
    23     5     6   ar
    24    11    12   ar
    25    18    14    1
    26    12     7   ar
    27     6     1   ar
    28    20    22    1
    29    20    23    1
@<TRIPOS>MOLECULE
*****
 27 29 0 0 0
SMALL
GASTEIGER

@<TRIPOS>ATOM
      1 C          -6.6392  -19.5623   21.7155 C.ar    1  UNL1        0.0045
      2 C          -6.1916  -20.4106   20.5622 C.ar    1  UNL1        0.0004
      3 C          -4.7436  -20.4426   20.1722 C.ar    1  UNL1        0.0076
      4 C          -3.7431  -19.6263   20.9354 C.ar    1  UNL1        0.0870
      5 C          -4.1906  -18.7780   22.0887 C.ar    1  UNL1        0.1427
      6 C          -5.6386  -18.7460   22.4787 C.ar    1  UNL1        0.0371
      7 C         -10.4742  -18.5462   21.8161 C.ar    1  UNL1        0.0077
      8 C         -10.9833  -19.4664   22.8856 C.ar    1  UNL1        0.0953
      9 N         -10.0444  -20.4186   23.5651 N.ar    1  UNL1       -0.2426
     10 C          -8.5964  -20.4505   23.1751 C.ar    1  UNL1        0.0988
     11 C          -8.0872  -19.5304   22.1056 C.ar    1  UNL1        0.0190
     12 C          -9.0261  -18.5782   21.4260 C.ar    1  UNL1       -0.0005
     13 C         -13.2561  -17.3792   23.0606 C.3     1  UNL1        0.0499
     14 C         -12.6917  -17.0575   21.7086 C.2     1  UNL1        0.0681
     15 N         -13.3070  -16.1430   20.6912 N.2     1  UNL1       -0.1563
     16 N         -12.4086  -16.1142   19.4903 N.2     1  UNL1       -0.1510
     17 C         -11.2381  -17.0109   19.7656 C.2     1  UNL1        0.1054
     18 C         -11.4131  -17.5939   21.1365 C.3     1  UNL1        0.1047
     19 C          -2.2950  -19.6583   20.5454 C.2     1  UNL1        0.2457
     20 N          -1.8193  -18.8683   19.3624 N.am    1  UNL1       -0.3252
     21 O          -1.3227  -20.4804   21.3383 O.2     1  UNL1       -0.2703
     22 H          -2.4575  -18.3287   18.8420 H       1  UNL1        0.1453
     23 H          -0.8689  -18.8893   19.1064 H       1  UNL1        0.1453
     24 O          -3.1901  -17.9617   22.8520 O.3     1  UNL1       -0.4790
     25 C          -3.0279  -16.5011   22.5512 C.3     1  UNL1        0.1661
     26 C          -4.0053  -15.5079   23.1065 C.3     1  UNL1        0.0472
     27 C          -1.8883  -16.0337   21.6951 C.3     1  UNL1        0.0472
@<TRIPOS>BOND
     1    13    14    1
     2    14    15    2
     3    15    16    1
     4    16    17    2
     5    17    18    1
     6    18     7    1
     7     7     8   ar
     8     8     9   ar
     9     9    10   ar
    10    10    11   ar
    11    11     1    1
    12     1     2   ar
    13     2     3   ar
    14     3     4   ar
    15     4    19    1
    16    19    20   am
    17    19    21    2
    18     4     5   ar
    19     5    24    1
    20    24    25    1
    21    25    26    1
    22    25    27    1
    23     5     6   ar
    24    11    12   ar
    25    18    14    1
    26    12     7   ar
    27     6     1   ar
    28    20    22    1
    29    20    23    1
@<TRIPOS>MOLECULE
*****
 27 29 0 0 0
SMALL
GASTEIGER

@<TRIPOS>ATOM
      1 C          -7.8153  -19.4249   22.0026 C.ar    1  UNL1        0.0045
      2 C          -8.3470  -20.2802   23.1142 C.ar    1  UNL1        0.0004
      3 C          -9.7025  -20.0009   23.6927 C.ar    1  UNL1        0.0076
      4 C         -10.5262  -18.8664   23.1596 C.ar    1  UNL1        0.0870
      5 C          -9.9945  -18.0111   22.0480 C.ar    1  UNL1        0.1427
      6 C          -8.6390  -18.2903   21.4695 C.ar    1  UNL1        0.0371
      7 C          -4.0145  -18.9591   20.9598 C.ar    1  UNL1        0.0077
      8 C          -3.7488  -20.2627   20.2670 C.ar    1  UNL1        0.0953
      9 N          -4.8386  -21.2871   20.1528 N.ar    1  UNL1       -0.2426
     10 C          -6.1941  -21.0078   20.7313 C.ar    1  UNL1        0.0988
     11 C          -6.4598  -19.7042   21.4241 C.ar    1  UNL1        0.0190
     12 C          -5.3700  -18.6798   21.5383 C.ar    1  UNL1       -0.0005
     13 C          -1.9201  -18.1155   18.6036 C.3     1  UNL1        0.0499
     14 C          -1.9621  -17.5469   19.9911 C.2     1  UNL1        0.0681
     15 N          -1.0487  -16.4908   20.5391 N.2     1  UNL1       -0.1563
     16 N          -1.4469  -16.2258   21.9608 N.2     1  UNL1       -0.1510
     17 C          -2.6063  -17.1182   22.2914 C.2     1  UNL1        0.1054
     18 C          -2.9247  -17.9347   21.0741 C.3     1  UNL1        0.1047
     19 C         -11.8817  -18.5871   23.7381 C.2     1  UNL1        0.2457
     20 N         -12.9719  -18.0407   22.8647 N.am    1  UNL1       -0.3252
     21 O         -12.1470  -18.8542   25.1901 O.2     1  UNL1       -0.2703
     22 H         -12.7977  -17.8654   21.9117 H       1  UNL1        0.1453
     23 H         -13.8615  -17.8574   23.2444 H       1  UNL1        0.1453
     24 O         -10.8182  -16.8764   21.5149 O.3     1  UNL1       -0.4790
     25 C         -11.3032  -16.9038   20.0958 C.3     1  UNL1        0.1661
     26 C         -11.3911  -18.2070   19.3582 C.3     1  UNL1        0.0472
     27 C         -11.7003  -15.6280   19.4141 C.3     1  UNL1        0.0472
@<TRIPOS>BOND
     1    13    14    1
     2    14    15    2
     3    15    16    1
     4    16    17    2
     5    17    18    1
     6    18     7    1
     7     7     8   ar
     8     8     9   ar
     9     9    10   ar
    10    10    11   ar
    11    11     1    1
    12     1     2   ar
    13     2     3   ar
    14     3     4   ar
    15     4    19    1
    16    19    20   am
    17    19    21    2
    18     4     5   ar
    19     5    24    1
    20    24    25    1
    21    25    26    1
    22    25    27    1
    23     5     6   ar
    24    11    12   ar
    25    18    14    1
    26    12     7   ar
    27     6     1   ar
    28    20    22    1
    29    20    23    1
@<TRIPOS>MOLECULE
*****
 27 29 0 0 0
SMALL
GASTEIGER

@<TRIPOS>ATOM
      1 C          -5.5836  -17.1993   23.2357 C.ar    1  UNL1        0.0045
      2 C          -4.2299  -16.7169   23.6654 C.ar    1  UNL1        0.0004
      3 C          -2.9948  -17.2915   23.0374 C.ar    1  UNL1        0.0076
      4 C          -3.1135  -18.3485   21.9797 C.ar    1  UNL1        0.0870
      5 C          -4.4672  -18.8308   21.5501 C.ar    1  UNL1        0.1427
      6 C          -5.7023  -18.2562   22.1781 C.ar    1  UNL1        0.0371
      7 C          -9.4074  -16.4307   23.9693 C.ar    1  UNL1        0.0077
      8 C          -9.2889  -15.4755   25.1198 C.ar    1  UNL1        0.0953
      9 N          -7.9354  -15.0949   25.6422 N.ar    1  UNL1       -0.2426
     10 C          -6.7003  -15.6695   25.0142 C.ar    1  UNL1        0.0988
     11 C          -6.8187  -16.6247   23.8637 C.ar    1  UNL1        0.0190
     12 C          -8.1723  -17.0053   23.3413 C.ar    1  UNL1       -0.0005
     13 C         -11.0121  -19.1939   24.6323 C.3     1  UNL1        0.0499
     14 C         -11.4986  -18.0814   23.7516 C.2     1  UNL1        0.0681
     15 N         -12.8080  -18.0437   23.0210 N.2     1  UNL1       -0.1563
     16 N         -12.8798  -16.7503   22.2646 N.2     1  UNL1       -0.1510
     17 C         -11.6147  -15.9887   22.5278 C.2     1  UNL1        0.1054
     18 C         -10.7610  -16.8113   23.4468 C.3     1  UNL1        0.1047
     19 C          -1.8784  -18.9231   21.3517 C.2     1  UNL1        0.2457
     20 N          -0.8345  -18.0110   20.7787 N.am    1  UNL1       -0.3252
     21 O          -1.6871  -20.4098   21.2967 O.2     1  UNL1       -0.2703
     22 H          -0.9600  -17.0352   20.8148 H       1  UNL1        0.1453
     23 H          -0.0239  -18.3881   20.3666 H       1  UNL1        0.1453
     24 O          -4.5859  -19.8878   20.4923 O.3     1  UNL1       -0.4790
     25 C          -5.9350  -20.4259   20.1178 C.3     1  UNL1        0.1661
     26 C          -7.0354  -19.4848   19.7257 C.3     1  UNL1        0.0472
     27 C          -6.1839  -21.9050   20.1353 C.3     1  UNL1        0.0472
@<TRIPOS>BOND
     1    13    14    1
     2    14    15    2
     3    15    16    1
     4    16    17    2
     5    17    18    1
     6    18     7    1
     7     7     8   ar
     8     8     9   ar
     9     9    10   ar
    10    10    11   ar
    11    11     1    1
    12     1     2   ar
    13     2     3   ar
    14     3     4   ar
    15     4    19    1
    16    19    20   am
    17    19    21    2
    18     4     5   ar
    19     5    24    1
    20    24    25    1
    21    25    26    1
    22    25    27    1
    23     5     6   ar
    24    11    12   ar
    25    18    14    1
    26    12     7   ar
    27     6     1   ar
    28    20    22    1
    29    20    23    1
@<TRIPOS>MOLECULE
*****
 27 29 0 0 0
SMALL
GASTEIGER

@<TRIPOS>ATOM
      1 C          -5.2472  -16.8107   23.2218 C.ar    1  UNL1        0.0045
      2 C          -4.1692  -15.7850   23.0327 C.ar    1  UNL1        0.0004
      3 C          -2.8847  -16.1629   22.3566 C.ar    1  UNL1        0.0076
      4 C          -2.6782  -17.5665   21.8695 C.ar    1  UNL1        0.0870
      5 C          -3.7562  -18.5922   22.0586 C.ar    1  UNL1        0.1427
      6 C          -5.0407  -18.2143   22.7348 C.ar    1  UNL1        0.0371
      7 C          -9.1176  -16.6110   24.0766 C.ar    1  UNL1        0.0077
      8 C          -9.1009  -15.6771   25.2502 C.ar    1  UNL1        0.0953
      9 N          -7.7996  -15.1211   25.7477 N.ar    1  UNL1       -0.2426
     10 C          -6.5151  -15.4989   25.0716 C.ar    1  UNL1        0.0988
     11 C          -6.5318  -16.4329   23.8980 C.ar    1  UNL1        0.0190
     12 C          -7.8330  -16.9889   23.4005 C.ar    1  UNL1       -0.0005
     13 C         -10.5820  -15.8418   21.2635 C.3     1  UNL1        0.0499
     14 C         -11.0919  -16.8135   22.2861 C.2     1  UNL1        0.0681
     15 N         -12.3645  -17.6023   22.1951 N.2     1  UNL1       -0.1563
     16 N         -12.4780  -18.4435   23.4319 N.2     1  UNL1       -0.1510
     17 C         -11.2755  -18.1745   24.2872 C.2     1  UNL1        0.1054
     18 C         -10.4188  -17.1671   23.5791 C.3     1  UNL1        0.1047
     19 C          -1.3936  -17.9444   21.1934 C.2     1  UNL1        0.2457
     20 N          -0.5219  -16.8821   20.5919 N.am    1  UNL1       -0.3252
     21 O          -0.9808  -19.3845   21.1187 O.2     1  UNL1       -0.2703
     22 H          -0.7929  -15.9369   20.6410 H       1  UNL1        0.1453
     23 H           0.3212  -17.1302   20.1482 H       1  UNL1        0.1453
     24 O          -3.5497  -19.9958   21.5716 O.3     1  UNL1       -0.4790
     25 C          -4.2289  -20.4623   20.3182 C.3     1  UNL1        0.1661
     26 C          -5.6346  -20.9825   20.3760 C.3     1  UNL1        0.0472
     27 C          -3.5023  -20.4087   19.0070 C.3     1  UNL1        0.0472
@<TRIPOS>BOND
     1    13    14    1
     2    14    15    2
     3    15    16    1
     4    16    17    2
     5    17    18    1
     6    18     7    1
     7     7     8   ar
     8     8     9   ar
     9     9    10   ar
    10    10    11   ar
    11    11     1    1
    12     1     2   ar
    13     2     3   ar
    14     3     4   ar
    15     4    19    1
    16    19    20   am
    17    19    21    2
    18     4     5   ar
    19     5    24    1
    20    24    25    1
    21    25    26    1
    22    25    27    1
    23     5     6   ar
    24    11    12   ar
    25    18    14    1
    26    12     7   ar
    27     6     1   ar
    28    20    22    1
    29    20    23    1
@<TRIPOS>MOLECULE
*****
 27 29 0 0 0
SMALL
GASTEIGER

@<TRIPOS>ATOM
      1 C           4.1632   -1.8054   23.1483 C.ar    1  UNL1        0.0045
      2 C           3.2201   -0.7261   23.5906 C.ar    1  UNL1        0.0004
      3 C           2.2668   -0.1138   22.6076 C.ar    1  UNL1        0.0076
      4 C           2.2565   -0.5809   21.1822 C.ar    1  UNL1        0.0870
      5 C           3.1996   -1.6602   20.7399 C.ar    1  UNL1        0.1427
      6 C           4.1529   -2.2725   21.7229 C.ar    1  UNL1        0.0371
      7 C           6.8654   -4.2426   24.7319 C.ar    1  UNL1        0.0077
      8 C           7.0231   -3.6421   26.0974 C.ar    1  UNL1        0.0953
      9 N           6.2275   -2.4294   26.4798 N.ar    1  UNL1       -0.2426
     10 C           5.2742   -1.8171   25.4967 C.ar    1  UNL1        0.0988
     11 C           5.1165   -2.4176   24.1313 C.ar    1  UNL1        0.0190
     12 C           5.9120   -3.6304   23.7489 C.ar    1  UNL1       -0.0005
     13 C           7.0641   -7.0210   26.4321 C.3     1  UNL1        0.0499
     14 C           7.7523   -6.7325   25.1309 C.2     1  UNL1        0.0681
     15 N           8.6526   -7.6704   24.3828 N.2     1  UNL1       -0.1563
     16 N           9.1178   -6.9730   23.1388 N.2     1  UNL1       -0.1510
     17 C           8.5049   -5.6041   23.1183 C.2     1  UNL1        0.1054
     18 C           7.6609   -5.4554   24.3494 C.3     1  UNL1        0.1047
     19 C           1.3032    0.0314   20.1992 C.2     1  UNL1        0.2457
     20 N           1.7731    0.3850   18.8193 N.am    1  UNL1       -0.3252
     21 O          -0.1200    0.2899   20.5960 O.2     1  UNL1       -0.2703
     22 H           2.7073    0.2154   18.5589 H       1  UNL1        0.1453
     23 H           1.1474    0.7869   18.1742 H       1  UNL1        0.1453
     24 O           3.1893   -2.1274   19.3145 O.3     1  UNL1       -0.4790
     25 C           4.0528   -3.2806   18.8969 C.3     1  UNL1        0.1661
     26 C           3.5908   -4.6879   19.1338 C.3     1  UNL1        0.0472
     27 C           5.3784   -3.0265   18.2425 C.3     1  UNL1        0.0472
@<TRIPOS>BOND
     1    13    14    1
     2    14    15    2
     3    15    16    1
     4    16    17    2
     5    17    18    1
     6    18     7    1
     7     7     8   ar
     8     8     9   ar
     9     9    10   ar
    10    10    11   ar
    11    11     1    1
    12     1     2   ar
    13     2     3   ar
    14     3     4   ar
    15     4    19    1
    16    19    20   am
    17    19    21    2
    18     4     5   ar
    19     5    24    1
    20    24    25    1
    21    25    26    1
    22    25    27    1
    23     5     6   ar
    24    11    12   ar
    25    18    14    1
    26    12     7   ar
    27     6     1   ar
    28    20    22    1
    29    20    23    1
@<TRIPOS>MOLECULE
*****
 27 29 0 0 0
SMALL
GASTEIGER

@<TRIPOS>ATOM
      1 C           2.0483    0.1569   18.9919 C.ar    1  UNL1        0.0045
      2 C           2.8490    0.2547   17.7274 C.ar    1  UNL1        0.0004
      3 C           3.9083   -0.7648   17.4297 C.ar    1  UNL1        0.0076
      4 C           4.1667   -1.8821   18.3965 C.ar    1  UNL1        0.0870
      5 C           3.3660   -1.9798   19.6611 C.ar    1  UNL1        0.1427
      6 C           2.3067   -0.9603   19.9588 C.ar    1  UNL1        0.0371
      7 C          -0.2702    3.3612   18.6642 C.ar    1  UNL1        0.0077
      8 C          -1.1294    3.2155   19.8850 C.ar    1  UNL1        0.0953
      9 N          -0.9294    2.0503   20.8081 N.ar    1  UNL1       -0.2426
     10 C           0.1298    1.0308   20.5105 C.ar    1  UNL1        0.0988
     11 C           0.9890    1.1765   19.2896 C.ar    1  UNL1        0.0190
     12 C           0.7890    2.3417   18.3665 C.ar    1  UNL1       -0.0005
     13 C          -2.7253    3.7313   16.5463 C.3     1  UNL1        0.0499
     14 C          -1.5987    4.6966   16.7676 C.2     1  UNL1        0.0681
     15 N          -1.4027    6.0014   16.0541 N.2     1  UNL1       -0.1563
     16 N          -0.1530    6.6378   16.5867 N.2     1  UNL1       -0.1510
     17 C           0.4232    5.7262   17.6292 C.2     1  UNL1        0.1054
     18 C          -0.4702    4.5265   17.7410 C.3     1  UNL1        0.1047
     19 C           5.2260   -2.9016   18.0988 C.2     1  UNL1        0.2457
     20 N           4.9618   -4.3552   18.3579 N.am    1  UNL1       -0.3252
     21 O           6.5494   -2.4675   17.5420 O.2     1  UNL1       -0.2703
     22 H           4.0932   -4.6401   18.7234 H       1  UNL1        0.1453
     23 H           5.6570   -5.0243   18.1625 H       1  UNL1        0.1453
     24 O           3.6244   -3.0971   20.6280 O.3     1  UNL1       -0.4790
     25 C           4.5541   -2.8867   21.7862 C.3     1  UNL1        0.1661
     26 C           4.1149   -2.0630   22.9604 C.3     1  UNL1        0.0472
     27 C           5.9229   -3.5000   21.7702 C.3     1  UNL1        0.0472
@<TRIPOS>BOND
     1    13    14    1
     2    14    15    2
     3    15    16    1
     4    16    17    2
     5    17    18    1
     6    18     7    1
     7     7     8   ar
     8     8     9   ar
     9     9    10   ar
    10    10    11   ar
    11    11     1    1
    12     1     2   ar
    13     2     3   ar
    14     3     4   ar
    15     4    19    1
    16    19    20   am
    17    19    21    2
    18     4     5   ar
    19     5    24    1
    20    24    25    1
    21    25    26    1
    22    25    27    1
    23     5     6   ar
    24    11    12   ar
    25    18    14    1
    26    12     7   ar
    27     6     1   ar
    28    20    22    1
    29    20    23    1
