@<TRIPOS>MOLECULE
*****
 29 31 0 0 0
SMALL
GASTEIGER

@<TRIPOS>ATOM
      1 N          -8.2213  -17.2105   22.6490 N.pl3   1  UNL1       -0.3035
      2 C          -4.2786  -20.1677   20.7540 C.2     1  UNL1        0.4049
      3 O          -4.0826  -21.2297   19.7131 O.2     1  UNL1       -0.2262
      4 N          -5.6378  -19.5709   20.9700 N.am    1  UNL1       -0.2443
      5 C          -6.8884  -19.9335   20.2253 C.3     1  UNL1        0.0986
      6 C          -8.0084  -19.0934   20.7637 C.3     1  UNL1        0.0431
      7 C          -7.4500  -18.2116   21.8411 C.3     1  UNL1        0.0947
      8 C          -5.9849  -18.5067   21.9686 C.3     1  UNL1        0.1164
      9 O          -3.1155  -19.7025   21.5791 O.3     1  UNL1       -0.4345
     10 C          -2.4138  -18.0560   19.6958 C.3     1  UNL1        0.0513
     11 C          -2.1239  -18.7372   21.0003 C.3     1  UNL1        0.2102
     12 C          -9.6315  -17.5085   23.0644 C.ar    1  UNL1        0.0490
     13 C          -9.9088  -18.6169   24.0363 C.ar    1  UNL1        0.0153
     14 C         -11.3189  -18.9149   24.4517 C.ar    1  UNL1        0.0124
     15 C         -12.4518  -18.1045   23.8953 C.ar    1  UNL1        0.0791
     16 C         -12.1746  -16.9961   22.9234 C.ar    1  UNL1        0.0685
     17 CL        -13.3076  -16.1857   22.3669 Cl      1  UNL1       -0.0815
     18 C         -10.7645  -16.6981   22.5080 C.ar    1  UNL1        0.0266
     19 C         -13.8621  -18.4025   24.3107 C.1     1  UNL1        0.1013
     20 N         -15.2722  -18.7005   24.7261 N.1     1  UNL1       -0.1908
     21 C          -7.5824  -15.9114   23.0416 C.3     1  UNL1        0.1175
     22 C          -7.2033  -15.6640   24.4718 C.ar    1  UNL1       -0.0041
     23 C          -8.2706  -15.4825   25.5099 C.ar    1  UNL1        0.0267
     24 C          -7.8915  -15.2352   26.9400 C.ar    1  UNL1        0.1399
     25 F          -8.9589  -15.0536   27.9782 F       1  UNL1       -0.2042
     26 C          -6.4451  -15.1694   27.3318 C.ar    1  UNL1        0.0293
     27 C          -5.3778  -15.3510   26.2937 C.ar    1  UNL1       -0.0022
     28 C          -5.7569  -15.5983   24.8636 C.ar    1  UNL1       -0.0241
     29 C          -4.6896  -15.7799   23.8254 C.3     1  UNL1        0.0308
@<TRIPOS>BOND
     1    10    11    1
     2    11     9    1
     3     9     2    1
     4     2     3    2
     5     2     4   am
     6     4     5    1
     7     5     6    1
     8     6     7    1
     9     7     1    1
    10     1    21    1
    11    21    22    1
    12    22    23   ar
    13    23    24   ar
    14    24    25    1
    15    24    26   ar
    16    26    27   ar
    17    27    28   ar
    18    28    29    1
    19     1    12    1
    20    12    13   ar
    21    13    14   ar
    22    14    15   ar
    23    15    19    1
    24    19    20    3
    25    15    16   ar
    26    16    17    1
    27    16    18   ar
    28     7     8    1
    29     8     4    1
    30    28    22   ar
    31    18    12   ar
@<TRIPOS>MOLECULE
*****
 29 31 0 0 0
SMALL
GASTEIGER

@<TRIPOS>ATOM
      1 N          -7.9932  -18.9480   21.7654 N.pl3   1  UNL1       -0.3035
      2 C          -2.7535  -19.5653   21.5553 C.2     1  UNL1        0.4049
      3 O          -1.7580  -20.3926   20.7972 O.2     1  UNL1       -0.2262
      4 N          -4.2203  -19.7204   21.2825 N.am    1  UNL1       -0.2443
      5 C          -4.8377  -20.6569   20.2865 C.3     1  UNL1        0.0986
      6 C          -6.3262  -20.4815   20.3462 C.3     1  UNL1        0.0431
      7 C          -6.6287  -19.4367   21.3791 C.3     1  UNL1        0.0947
      8 C          -5.3273  -18.9663   21.9577 C.3     1  UNL1        0.1164
      9 O          -2.2821  -18.5830   22.5862 O.3     1  UNL1       -0.4345
     10 C          -1.7315  -16.4023   21.2856 C.3     1  UNL1        0.0513
     11 C          -2.4863  -17.1128   22.3698 C.3     1  UNL1        0.2102
     12 C          -8.1656  -18.0911   22.9845 C.ar    1  UNL1        0.0490
     13 C          -8.9111  -18.6201   24.1738 C.ar    1  UNL1        0.0153
     14 C          -9.0835  -17.7632   25.3928 C.ar    1  UNL1        0.0124
     15 C          -8.5105  -16.3773   25.4224 C.ar    1  UNL1        0.0791
     16 C          -7.7650  -15.8483   24.2331 C.ar    1  UNL1        0.0685
     17 CL         -7.1920  -14.4623   24.2628 Cl      1  UNL1       -0.0815
     18 C          -7.5926  -16.7052   23.0141 C.ar    1  UNL1        0.0266
     19 C          -8.6829  -15.5203   26.6414 C.1     1  UNL1        0.1013
     20 N          -8.8553  -14.6634   27.8604 N.1     1  UNL1       -0.1908
     21 C          -9.1854  -19.3163   20.9329 C.3     1  UNL1        0.1175
     22 C         -10.3802  -18.4104   20.8918 C.ar    1  UNL1       -0.0041
     23 C         -10.4205  -17.2654   19.9236 C.ar    1  UNL1        0.0267
     24 C         -11.6153  -16.3596   19.8826 C.ar    1  UNL1        0.1399
     25 F         -11.6556  -15.2146   18.9143 F       1  UNL1       -0.2042
     26 C         -12.7699  -16.5986   20.8098 C.ar    1  UNL1        0.0293
     27 C         -12.7297  -17.7436   21.7780 C.ar    1  UNL1       -0.0022
     28 C         -11.5349  -18.6494   21.8190 C.ar    1  UNL1       -0.0241
     29 C         -11.4946  -19.7944   22.7873 C.3     1  UNL1        0.0308
@<TRIPOS>BOND
     1    10    11    1
     2    11     9    1
     3     9     2    1
     4     2     3    2
     5     2     4   am
     6     4     5    1
     7     5     6    1
     8     6     7    1
     9     7     1    1
    10     1    21    1
    11    21    22    1
    12    22    23   ar
    13    23    24   ar
    14    24    25    1
    15    24    26   ar
    16    26    27   ar
    17    27    28   ar
    18    28    29    1
    19     1    12    1
    20    12    13   ar
    21    13    14   ar
    22    14    15   ar
    23    15    19    1
    24    19    20    3
    25    15    16   ar
    26    16    17    1
    27    16    18   ar
    28     7     8    1
    29     8     4    1
    30    28    22   ar
    31    18    12   ar
@<TRIPOS>MOLECULE
*****
 29 31 0 0 0
SMALL
GASTEIGER

@<TRIPOS>ATOM
      1 N          -8.3564  -19.0404   22.3409 N.pl3   1  UNL1       -0.3035
      2 C          -3.1621  -19.5462   21.5381 C.2     1  UNL1        0.4049
      3 O          -2.2445  -20.2811   20.6065 O.2     1  UNL1       -0.2262
      4 N          -4.6482  -19.6997   21.4030 N.am    1  UNL1       -0.2443
      5 C          -5.3585  -20.5481   20.3902 C.3     1  UNL1        0.0986
      6 C          -6.8340  -20.4044   20.6183 C.3     1  UNL1        0.0431
      7 C          -7.0357  -19.4672   21.7720 C.3     1  UNL1        0.0947
      8 C          -5.6847  -19.0317   22.2570 C.3     1  UNL1        0.1164
      9 O          -2.5938  -18.6579   22.6048 O.3     1  UNL1       -0.4345
     10 C          -1.8816  -16.6515   21.1158 C.3     1  UNL1        0.0513
     11 C          -2.4995  -17.1783   22.3770 C.3     1  UNL1        0.2102
     12 C          -8.4013  -18.1040   23.5119 C.ar    1  UNL1        0.0490
     13 C          -8.9916  -18.5588   24.8136 C.ar    1  UNL1        0.0153
     14 C          -9.0366  -17.6225   25.9846 C.ar    1  UNL1        0.0124
     15 C          -8.4911  -16.2314   25.8538 C.ar    1  UNL1        0.0791
     16 C          -7.9007  -15.7766   24.5521 C.ar    1  UNL1        0.0685
     17 CL         -7.3552  -14.3853   24.4213 Cl      1  UNL1       -0.0815
     18 C          -7.8558  -16.7129   23.3811 C.ar    1  UNL1        0.0266
     19 C          -8.5360  -15.2950   27.0249 C.1     1  UNL1        0.1013
     20 N          -8.5808  -14.3587   28.1958 N.1     1  UNL1       -0.1908
     21 C          -9.6322  -19.5500   21.7388 C.3     1  UNL1        0.1175
     22 C         -10.9343  -18.8786   22.0611 C.ar    1  UNL1       -0.0041
     23 C         -11.5463  -19.0425   23.4207 C.ar    1  UNL1        0.0267
     24 C         -12.8483  -18.3711   23.7430 C.ar    1  UNL1        0.1399
     25 F         -13.4604  -18.5351   25.1026 F       1  UNL1       -0.2042
     26 C         -13.5383  -17.5357   22.7056 C.ar    1  UNL1        0.0293
     27 C         -12.9263  -17.3718   21.3460 C.ar    1  UNL1       -0.0022
     28 C         -11.6243  -18.0432   21.0238 C.ar    1  UNL1       -0.0241
     29 C         -11.0122  -17.8793   19.6641 C.3     1  UNL1        0.0308
@<TRIPOS>BOND
     1    10    11    1
     2    11     9    1
     3     9     2    1
     4     2     3    2
     5     2     4   am
     6     4     5    1
     7     5     6    1
     8     6     7    1
     9     7     1    1
    10     1    21    1
    11    21    22    1
    12    22    23   ar
    13    23    24   ar
    14    24    25    1
    15    24    26   ar
    16    26    27   ar
    17    27    28   ar
    18    28    29    1
    19     1    12    1
    20    12    13   ar
    21    13    14   ar
    22    14    15   ar
    23    15    19    1
    24    19    20    3
    25    15    16   ar
    26    16    17    1
    27    16    18   ar
    28     7     8    1
    29     8     4    1
    30    28    22   ar
    31    18    12   ar
@<TRIPOS>MOLECULE
*****
 29 31 0 0 0
SMALL
GASTEIGER

@<TRIPOS>ATOM
      1 N          -7.6942  -18.5559   21.8150 N.pl3   1  UNL1       -0.3035
      2 C          -7.7856  -15.3294   25.9937 C.2     1  UNL1        0.4049
      3 O          -8.5795  -15.1615   27.2553 O.2     1  UNL1       -0.2262
      4 N          -8.1187  -16.4382   25.0399 N.am    1  UNL1       -0.2443
      5 C          -9.2117  -17.4509   25.2123 C.3     1  UNL1        0.0986
      6 C          -9.1857  -18.3675   24.0252 C.3     1  UNL1        0.0431
      7 C          -8.0767  -17.9212   23.1192 C.3     1  UNL1        0.0947
      8 C          -7.4172  -16.7289   23.7463 C.3     1  UNL1        0.1164
      9 O          -6.6586  -14.3886   25.6860 O.3     1  UNL1       -0.4345
     10 C          -4.8478  -16.2125   26.0663 C.3     1  UNL1        0.0513
     11 C          -5.2493  -14.7676   26.0328 C.3     1  UNL1        0.2102
     12 C          -6.2498  -18.6490   21.4212 C.ar    1  UNL1        0.0490
     13 C          -5.8775  -19.0510   20.0249 C.ar    1  UNL1        0.0153
     14 C          -4.4331  -19.1441   19.6311 C.ar    1  UNL1        0.0124
     15 C          -3.3611  -18.8351   20.6336 C.ar    1  UNL1        0.0791
     16 C          -3.7333  -18.4330   22.0300 C.ar    1  UNL1        0.0685
     17 CL         -2.6612  -18.1240   23.0325 Cl      1  UNL1       -0.0815
     18 C          -5.1777  -18.3400   22.4238 C.ar    1  UNL1        0.0266
     19 C          -1.9166  -18.9281   20.2398 C.1     1  UNL1        0.1013
     20 N          -0.4723  -19.0212   19.8460 N.1     1  UNL1       -0.1908
     21 C          -8.7562  -19.0975   20.9045 C.3     1  UNL1        0.1175
     22 C         -10.0846  -18.4075   20.8078 C.ar    1  UNL1       -0.0041
     23 C         -10.2160  -17.1414   20.0143 C.ar    1  UNL1        0.0267
     24 C         -11.5444  -16.4515   19.9176 C.ar    1  UNL1        0.1399
     25 F         -11.6759  -15.1853   19.1241 F       1  UNL1       -0.2042
     26 C         -12.7413  -17.0276   20.6144 C.ar    1  UNL1        0.0293
     27 C         -12.6098  -18.2937   21.4080 C.ar    1  UNL1       -0.0022
     28 C         -11.2814  -18.9836   21.5046 C.ar    1  UNL1       -0.0241
     29 C         -11.1499  -20.2498   22.2982 C.3     1  UNL1        0.0308
@<TRIPOS>BOND
     1    10    11    1
     2    11     9    1
     3     9     2    1
     4     2     3    2
     5     2     4   am
     6     4     5    1
     7     5     6    1
     8     6     7    1
     9     7     1    1
    10     1    21    1
    11    21    22    1
    12    22    23   ar
    13    23    24   ar
    14    24    25    1
    15    24    26   ar
    16    26    27   ar
    17    27    28   ar
    18    28    29    1
    19     1    12    1
    20    12    13   ar
    21    13    14   ar
    22    14    15   ar
    23    15    19    1
    24    19    20    3
    25    15    16   ar
    26    16    17    1
    27    16    18   ar
    28     7     8    1
    29     8     4    1
    30    28    22   ar
    31    18    12   ar
