@<TRIPOS>MOLECULE
*****
 34 36 0 0 0
SMALL
GASTEIGER

@<TRIPOS>ATOM
      1 C         -11.4952   -4.1559   17.7545 C.ar    1  UNL1        0.1508
      2 C         -10.1765   -4.6203   17.2111 C.ar    1  UNL1        0.0778
      3 CL         -9.2696   -3.6507   16.5128 Cl      1  UNL1       -0.0808
      4 C          -9.7646   -6.0543   17.3658 C.ar    1  UNL1        0.0142
      5 C         -10.6714   -7.0239   18.0640 C.ar    1  UNL1        0.0187
      6 C         -11.9901   -6.5595   18.6074 C.ar    1  UNL1        0.0870
      7 C         -12.4020   -5.1255   18.4527 C.ar    1  UNL1        0.1650
      8 O         -13.7207   -4.6611   18.9962 O.3     1  UNL1       -0.5032
      9 H         -14.2872   -5.2668   19.4323 H       1  UNL1        0.2923
     10 N         -12.8970   -7.5291   19.3057 N.am    1  UNL1       -0.2656
     11 C         -14.2815   -7.7717   18.7818 C.2     1  UNL1        0.3083
     12 O         -14.7590   -7.0447   17.5597 O.2     1  UNL1       -0.2521
     13 N         -15.1883   -8.7413   19.4800 N.am    1  UNL1       -0.2672
     14 H         -12.5835   -8.0062   20.1078 H       1  UNL1        0.1565
     15 H         -14.8749   -9.2184   20.2821 H       1  UNL1        0.1564
     16 C         -16.5728   -8.9839   18.9561 C.ar    1  UNL1        0.0644
     17 C         -16.9092  -10.2918   18.3035 C.ar    1  UNL1        0.0157
     18 C         -18.2937  -10.5344   17.7796 C.ar    1  UNL1        0.0036
     19 C         -19.3417   -9.4691   17.9084 C.ar    1  UNL1        0.0306
     20 C         -19.0053   -8.1610   18.5611 C.ar    1  UNL1        0.1518
     21 F         -20.0533   -7.0957   18.6899 F       1  UNL1       -0.2032
     22 C         -17.6208   -7.9184   19.0850 C.ar    1  UNL1        0.0985
     23 CL        -17.2844   -6.6105   19.7377 Cl      1  UNL1       -0.0786
     24 S         -11.9071   -2.7218   17.5997 S.O2    1  UNL1        0.0108
     25 O         -12.7153   -3.0846   16.3893 O.2     1  UNL1       -0.1686
     26 O         -11.0988   -2.3591   18.8102 O.2     1  UNL1       -0.1686
     27 N         -13.1427    1.5802   17.1354 N.3     1  UNL1       -0.2726
     28 C         -12.1813    0.9667   16.1611 C.3     1  UNL1        0.0739
     29 C         -11.7695   -0.4674   16.3159 C.3     1  UNL1        0.0413
     30 C         -12.3189   -1.2878   17.4449 C.3     1  UNL1        0.1367
     31 C         -13.2803   -0.6743   18.4193 C.3     1  UNL1        0.0413
     32 C         -13.6921    0.7597   18.2645 C.3     1  UNL1        0.0739
     33 C         -12.8584    3.8909   15.9823 C.3     1  UNL1        0.0188
     34 C         -13.5545    3.0142   16.9806 C.3     1  UNL1        0.0721
@<TRIPOS>BOND
     1    33    34    1
     2    34    27    1
     3    27    28    1
     4    28    29    1
     5    29    30    1
     6    30    24    1
     7    24    25    2
     8    24    26    2
     9    24     1    1
    10     1     2   ar
    11     2     3    1
    12     2     4   ar
    13     4     5   ar
    14     5     6   ar
    15     6    10    1
    16    10    11   am
    17    11    12    2
    18    11    13   am
    19    13    16    1
    20    16    17   ar
    21    17    18   ar
    22    18    19   ar
    23    19    20   ar
    24    20    21    1
    25    20    22   ar
    26    22    23    1
    27     6     7   ar
    28     7     8    1
    29    30    31    1
    30    31    32    1
    31    32    27    1
    32     7     1   ar
    33    22    16   ar
    34    10    14    1
    35    13    15    1
    36     8     9    1
@<TRIPOS>MOLECULE
*****
 34 36 0 0 0
SMALL
GASTEIGER

@<TRIPOS>ATOM
      1 C           4.4793   -0.8917   19.4876 C.ar    1  UNL1        0.1508
      2 C           4.7664   -1.3580   18.0912 C.ar    1  UNL1        0.0778
      3 CL          3.8312   -1.0008   16.9740 Cl      1  UNL1       -0.0808
      4 C           5.9886   -2.1816   17.8119 C.ar    1  UNL1        0.0142
      5 C           6.9237   -2.5388   18.9290 C.ar    1  UNL1        0.0187
      6 C           6.6365   -2.0725   20.3254 C.ar    1  UNL1        0.0870
      7 C           5.4144   -1.2489   20.6047 C.ar    1  UNL1        0.1650
      8 O           5.1273   -0.7826   22.0013 O.3     1  UNL1       -0.5032
      9 H           5.7114   -1.0058   22.6991 H       1  UNL1        0.2923
     10 N           7.5717   -2.4297   21.4426 N.am    1  UNL1       -0.2656
     11 C           7.2581   -3.5890   22.3413 C.2     1  UNL1        0.3083
     12 O           6.0095   -4.3911   22.1229 O.2     1  UNL1       -0.2521
     13 N           8.1932   -3.9462   23.4585 N.am    1  UNL1       -0.2672
     14 H           8.3912   -1.9033   21.5859 H       1  UNL1        0.1565
     15 H           9.0127   -3.4198   23.6018 H       1  UNL1        0.1564
     16 C           7.8796   -5.1055   24.3572 C.ar    1  UNL1        0.0644
     17 C           8.3796   -6.4774   24.0138 C.ar    1  UNL1        0.0157
     18 C           8.0661   -7.6367   24.9125 C.ar    1  UNL1        0.0036
     19 C           7.2526   -7.4241   26.1547 C.ar    1  UNL1        0.0306
     20 C           6.7526   -6.0522   26.4982 C.ar    1  UNL1        0.1518
     21 F           5.9391   -5.8396   27.7403 F       1  UNL1       -0.2032
     22 C           7.0661   -4.8929   25.5994 C.ar    1  UNL1        0.0985
     23 CL          6.5661   -3.5210   25.9428 Cl      1  UNL1       -0.0786
     24 S           3.2571   -0.0682   19.7670 S.O2    1  UNL1        0.0108
     25 O           2.5184   -1.3056   20.1831 O.2     1  UNL1       -0.1686
     26 O           3.9957    1.1692   19.3509 O.2     1  UNL1       -0.1686
     27 N          -0.4095    2.4024   20.6050 N.3     1  UNL1       -0.2726
     28 C           0.1780    2.3764   19.2252 C.3     1  UNL1        0.0739
     29 C           1.4002    1.5528   18.9458 C.3     1  UNL1        0.0413
     30 C           2.0349    0.7553   20.0463 C.3     1  UNL1        0.1367
     31 C           1.4473    0.7814   21.4262 C.3     1  UNL1        0.0413
     32 C           0.2251    1.6049   21.7055 C.3     1  UNL1        0.0739
     33 C          -2.5524    3.6060   19.7629 C.3     1  UNL1        0.0188
     34 C          -1.6317    3.2259   20.8844 C.3     1  UNL1        0.0721
@<TRIPOS>BOND
     1    33    34    1
     2    34    27    1
     3    27    28    1
     4    28    29    1
     5    29    30    1
     6    30    24    1
     7    24    25    2
     8    24    26    2
     9    24     1    1
    10     1     2   ar
    11     2     3    1
    12     2     4   ar
    13     4     5   ar
    14     5     6   ar
    15     6    10    1
    16    10    11   am
    17    11    12    2
    18    11    13   am
    19    13    16    1
    20    16    17   ar
    21    17    18   ar
    22    18    19   ar
    23    19    20   ar
    24    20    21    1
    25    20    22   ar
    26    22    23    1
    27     6     7   ar
    28     7     8    1
    29    30    31    1
    30    31    32    1
    31    32    27    1
    32     7     1   ar
    33    22    16   ar
    34    10    14    1
    35    13    15    1
    36     8     9    1
@<TRIPOS>MOLECULE
*****
 34 36 0 0 0
SMALL
GASTEIGER

@<TRIPOS>ATOM
      1 C           8.2883   -5.9467   25.8073 C.ar    1  UNL1        0.1508
      2 C           8.7188   -7.3760   25.6599 C.ar    1  UNL1        0.0778
      3 CL          8.7161   -8.2868   26.8518 Cl      1  UNL1       -0.0808
      4 C           9.1520   -7.8946   24.3208 C.ar    1  UNL1        0.0142
      5 C           9.1547   -6.9839   23.1289 C.ar    1  UNL1        0.0187
      6 C           8.7242   -5.5546   23.2762 C.ar    1  UNL1        0.0870
      7 C           8.2910   -5.0360   24.6154 C.ar    1  UNL1        0.1650
      8 O           7.8605   -3.6066   24.7627 O.3     1  UNL1       -0.5032
      9 H           7.8622   -3.0377   24.0182 H       1  UNL1        0.2923
     10 N           8.7269   -4.6438   22.0844 N.am    1  UNL1       -0.2656
     11 C           7.4407   -4.0502   21.5911 C.2     1  UNL1        0.3083
     12 O           6.1517   -4.3675   22.2898 O.2     1  UNL1       -0.2521
     13 N           7.4433   -3.1395   20.3993 N.am    1  UNL1       -0.2672
     14 H           9.5729   -4.4356   21.6258 H       1  UNL1        0.1565
     15 H           8.2893   -2.9313   19.9408 H       1  UNL1        0.1564
     16 C           6.1571   -2.5459   19.9061 C.ar    1  UNL1        0.0644
     17 C           5.2138   -3.3757   19.0865 C.ar    1  UNL1        0.0157
     18 C           3.9276   -2.7821   18.5933 C.ar    1  UNL1        0.0036
     19 C           3.5846   -1.3588   18.9197 C.ar    1  UNL1        0.0306
     20 C           4.5278   -0.5290   19.7393 C.ar    1  UNL1        0.1518
     21 F           4.1848    0.8942   20.0657 F       1  UNL1       -0.2032
     22 C           5.8141   -1.1226   20.2325 C.ar    1  UNL1        0.0985
     23 CL          6.7573   -0.2928   21.0521 Cl      1  UNL1       -0.0786
     24 S           7.8551   -5.4281   27.1465 S.O2    1  UNL1        0.0108
     25 O           6.4754   -5.9663   26.9086 O.2     1  UNL1       -0.1686
     26 O           9.2349   -4.8900   27.3844 O.2     1  UNL1       -0.1686
     27 N           6.5555   -3.8724   31.1640 N.3     1  UNL1       -0.2726
     28 C           6.6318   -2.9434   29.9889 C.3     1  UNL1        0.0739
     29 C           7.0650   -3.4619   28.6497 C.3     1  UNL1        0.0413
     30 C           7.4219   -4.9096   28.4856 C.3     1  UNL1        0.1367
     31 C           7.3456   -5.8386   29.6608 C.3     1  UNL1        0.0413
     32 C           6.9124   -5.3200   31.0000 C.3     1  UNL1        0.0739
     33 C           4.9227   -2.4596   32.6089 C.3     1  UNL1        0.0188
     34 C           6.1223   -3.3538   32.5032 C.3     1  UNL1        0.0721
@<TRIPOS>BOND
     1    33    34    1
     2    34    27    1
     3    27    28    1
     4    28    29    1
     5    29    30    1
     6    30    24    1
     7    24    25    2
     8    24    26    2
     9    24     1    1
    10     1     2   ar
    11     2     3    1
    12     2     4   ar
    13     4     5   ar
    14     5     6   ar
    15     6    10    1
    16    10    11   am
    17    11    12    2
    18    11    13   am
    19    13    16    1
    20    16    17   ar
    21    17    18   ar
    22    18    19   ar
    23    19    20   ar
    24    20    21    1
    25    20    22   ar
    26    22    23    1
    27     6     7   ar
    28     7     8    1
    29    30    31    1
    30    31    32    1
    31    32    27    1
    32     7     1   ar
    33    22    16   ar
    34    10    14    1
    35    13    15    1
    36     8     9    1
@<TRIPOS>MOLECULE
*****
 34 36 0 0 0
SMALL
GASTEIGER

@<TRIPOS>ATOM
      1 C          -0.1141    2.8838   20.1185 C.ar    1  UNL1        0.1508
      2 C           0.6799    4.0151   19.5358 C.ar    1  UNL1        0.0778
      3 CL          0.2321    5.4314   19.7446 Cl      1  UNL1       -0.0808
      4 C           1.9217    3.7302   18.7442 C.ar    1  UNL1        0.0142
      5 C           2.3696    2.3139   18.5353 C.ar    1  UNL1        0.0187
      6 C           1.5756    1.1826   19.1181 C.ar    1  UNL1        0.0870
      7 C           0.3338    1.4676   19.9097 C.ar    1  UNL1        0.1650
      8 O          -0.4603    0.3361   20.4925 O.3     1  UNL1       -0.5032
      9 H          -0.1805   -0.5485   20.3620 H       1  UNL1        0.2923
     10 N           2.0234   -0.2337   18.9093 N.am    1  UNL1       -0.2656
     11 C           3.1198   -0.8064   19.7578 C.2     1  UNL1        0.3083
     12 O           3.7684    0.0372   20.8151 O.2     1  UNL1       -0.2521
     13 N           3.5677   -2.2227   19.5490 N.am    1  UNL1       -0.2672
     14 H           1.5978   -0.7873   18.2153 H       1  UNL1        0.1565
     15 H           3.1420   -2.7763   18.8551 H       1  UNL1        0.1564
     16 C           4.6641   -2.7954   20.3975 C.ar    1  UNL1        0.0644
     17 C           4.3823   -3.2005   21.8139 C.ar    1  UNL1        0.0157
     18 C           5.4787   -3.7733   22.6624 C.ar    1  UNL1        0.0036
     19 C           6.8568   -3.9409   22.0945 C.ar    1  UNL1        0.0306
     20 C           7.1386   -3.5357   20.6779 C.ar    1  UNL1        0.1518
     21 F           8.5167   -3.7033   20.1099 F       1  UNL1       -0.2032
     22 C           6.0422   -2.9630   19.8294 C.ar    1  UNL1        0.0985
     23 CL          6.3240   -2.5579   18.4129 Cl      1  UNL1       -0.0786
     24 S          -1.3560    3.1687   20.9101 S.O2    1  UNL1        0.0108
     25 O          -2.1256    3.3539   19.6360 O.2     1  UNL1       -0.1686
     26 O          -0.5863    2.9835   22.1842 O.2     1  UNL1       -0.1686
     27 N          -5.0815    4.0235   23.2849 N.3     1  UNL1       -0.2726
     28 C          -5.1851    3.6472   21.8366 C.3     1  UNL1        0.0739
     29 C          -3.9433    3.3622   21.0450 C.3     1  UNL1        0.0413
     30 C          -2.5978    3.4536   21.7017 C.3     1  UNL1        0.1367
     31 C          -2.4942    3.8299   23.1500 C.3     1  UNL1        0.0413
     32 C          -3.7360    4.1149   23.9416 C.3     1  UNL1        0.0739
     33 C          -7.6437    4.4438   23.3777 C.3     1  UNL1        0.0188
     34 C          -6.3234    4.3084   24.0765 C.3     1  UNL1        0.0721
@<TRIPOS>BOND
     1    33    34    1
     2    34    27    1
     3    27    28    1
     4    28    29    1
     5    29    30    1
     6    30    24    1
     7    24    25    2
     8    24    26    2
     9    24     1    1
    10     1     2   ar
    11     2     3    1
    12     2     4   ar
    13     4     5   ar
    14     5     6   ar
    15     6    10    1
    16    10    11   am
    17    11    12    2
    18    11    13   am
    19    13    16    1
    20    16    17   ar
    21    17    18   ar
    22    18    19   ar
    23    19    20   ar
    24    20    21    1
    25    20    22   ar
    26    22    23    1
    27     6     7   ar
    28     7     8    1
    29    30    31    1
    30    31    32    1
    31    32    27    1
    32     7     1   ar
    33    22    16   ar
    34    10    14    1
    35    13    15    1
    36     8     9    1
@<TRIPOS>MOLECULE
*****
 34 36 0 0 0
SMALL
GASTEIGER

@<TRIPOS>ATOM
      1 C         -12.8513   -3.4746   17.9297 C.ar    1  UNL1        0.1508
      2 C         -11.7077   -3.8585   17.0383 C.ar    1  UNL1        0.0778
      3 CL        -10.9947   -2.8086   16.2388 Cl      1  UNL1       -0.0808
      4 C         -11.2771   -5.2925   16.9463 C.ar    1  UNL1        0.0142
      5 C         -11.9901   -6.3424   17.7457 C.ar    1  UNL1        0.0187
      6 C         -13.1337   -5.9585   18.6372 C.ar    1  UNL1        0.0870
      7 C         -13.5643   -4.5245   18.7292 C.ar    1  UNL1        0.1650
      8 O         -14.7080   -4.1406   19.6207 O.3     1  UNL1       -0.5032
      9 H         -15.1534   -4.7965   20.1201 H       1  UNL1        0.2923
     10 N         -13.8468   -7.0084   19.4367 N.am    1  UNL1       -0.2656
     11 C         -15.3001   -7.2833   19.1867 C.2     1  UNL1        0.3083
     12 O         -16.0403   -6.5081   18.1372 O.2     1  UNL1       -0.2521
     13 N         -16.0131   -8.3332   19.9862 N.am    1  UNL1       -0.2672
     14 H         -13.3610   -7.5172   20.1255 H       1  UNL1        0.1565
     15 H         -15.5273   -8.8419   20.6749 H       1  UNL1        0.1564
     16 C         -17.4664   -8.6080   19.7362 C.ar    1  UNL1        0.0644
     17 C         -18.5147   -7.8032   20.4455 C.ar    1  UNL1        0.0157
     18 C         -19.9680   -8.0780   20.1956 C.ar    1  UNL1        0.0036
     19 C         -20.3729   -9.1577   19.2363 C.ar    1  UNL1        0.0306
     20 C         -19.3246   -9.9626   18.5268 C.ar    1  UNL1        0.1518
     21 F         -19.7295  -11.0422   17.5675 F       1  UNL1       -0.2032
     22 C         -17.8713   -9.6877   18.7768 C.ar    1  UNL1        0.0985
     23 CL        -16.8230  -10.4926   18.0675 Cl      1  UNL1       -0.0786
     24 S         -13.2819   -2.0407   18.0217 S.O2    1  UNL1        0.0108
     25 O         -12.1967   -1.7791   19.0237 O.2     1  UNL1       -0.1686
     26 O         -14.3671   -2.3022   17.0198 O.2     1  UNL1       -0.1686
     27 N         -14.5737    2.2611   18.2977 N.3     1  UNL1       -0.2726
     28 C         -15.2806    1.2125   19.1043 C.3     1  UNL1        0.0739
     29 C         -14.8500   -0.2214   19.0123 C.3     1  UNL1        0.0413
     30 C         -13.7125   -0.6067   18.1137 C.3     1  UNL1        0.1367
     31 C         -13.0056    0.4419   17.3071 C.3     1  UNL1        0.0413
     32 C         -13.4361    1.8758   17.3991 C.3     1  UNL1        0.0739
     33 C         -15.4895    4.2501   19.6960 C.3     1  UNL1        0.0188
     34 C         -15.0043    3.6950   18.3897 C.3     1  UNL1        0.0721
@<TRIPOS>BOND
     1    33    34    1
     2    34    27    1
     3    27    28    1
     4    28    29    1
     5    29    30    1
     6    30    24    1
     7    24    25    2
     8    24    26    2
     9    24     1    1
    10     1     2   ar
    11     2     3    1
    12     2     4   ar
    13     4     5   ar
    14     5     6   ar
    15     6    10    1
    16    10    11   am
    17    11    12    2
    18    11    13   am
    19    13    16    1
    20    16    17   ar
    21    17    18   ar
    22    18    19   ar
    23    19    20   ar
    24    20    21    1
    25    20    22   ar
    26    22    23    1
    27     6     7   ar
    28     7     8    1
    29    30    31    1
    30    31    32    1
    31    32    27    1
    32     7     1   ar
    33    22    16   ar
    34    10    14    1
    35    13    15    1
    36     8     9    1
@<TRIPOS>MOLECULE
*****
 34 36 0 0 0
SMALL
GASTEIGER

@<TRIPOS>ATOM
      1 C           6.9489   -3.7627   23.3333 C.ar    1  UNL1        0.1508
      2 C           8.2494   -3.7883   22.5862 C.ar    1  UNL1        0.0778
      3 CL          9.5358   -4.0039   23.3269 Cl      1  UNL1       -0.0808
      4 C           8.2634   -3.5983   21.0983 C.ar    1  UNL1        0.0142
      5 C           6.9770   -3.3827   20.3576 C.ar    1  UNL1        0.0187
      6 C           5.6766   -3.3571   21.1047 C.ar    1  UNL1        0.0870
      7 C           5.6626   -3.5471   22.5926 C.ar    1  UNL1        0.1650
      8 O           4.3621   -3.5216   23.3397 O.3     1  UNL1       -0.5032
      9 H           3.5585   -3.3869   22.8770 H       1  UNL1        0.2923
     10 N           4.3902   -3.1415   20.3640 N.am    1  UNL1       -0.2656
     11 C           3.7387   -1.7903   20.3699 C.2     1  UNL1        0.3083
     12 O           4.3738   -0.6548   21.1165 O.2     1  UNL1       -0.2521
     13 N           2.4523   -1.5747   19.6292 N.am    1  UNL1       -0.2672
     14 H           3.9734   -3.8868   19.8740 H       1  UNL1        0.1565
     15 H           2.0356   -2.3200   19.1392 H       1  UNL1        0.1564
     16 C           1.8009   -0.2235   19.6351 C.ar    1  UNL1        0.0644
     17 C           0.6147    0.0333   20.5164 C.ar    1  UNL1        0.0157
     18 C          -0.0367    1.3845   20.5223 C.ar    1  UNL1        0.0036
     19 C           0.4981    2.4788   19.6468 C.ar    1  UNL1        0.0306
     20 C           1.6844    2.2219   18.7654 C.ar    1  UNL1        0.1518
     21 F           2.2192    3.3162   17.8900 F       1  UNL1       -0.2032
     22 C           2.3358    0.8708   18.7596 C.ar    1  UNL1        0.0985
     23 CL          3.5221    0.6139   17.8782 Cl      1  UNL1       -0.0786
     24 S           6.9349   -3.9528   24.8211 S.O2    1  UNL1        0.0108
     25 O           6.7967   -2.4710   25.0091 O.2     1  UNL1       -0.1686
     26 O           7.0731   -5.4345   24.6332 O.2     1  UNL1       -0.1686
     27 N           6.8928   -4.5228   29.2847 N.3     1  UNL1       -0.2726
     28 C           6.6812   -5.6977   28.3765 C.3     1  UNL1        0.0739
     29 C           6.6953   -5.5077   26.8887 C.3     1  UNL1        0.0413
     30 C           6.9209   -4.1428   26.3090 C.3     1  UNL1        0.1367
     31 C           7.1324   -2.9679   27.2172 C.3     1  UNL1        0.0413
     32 C           7.1184   -3.1579   28.7050 C.3     1  UNL1        0.0739
     33 C           6.6912   -3.5316   31.6778 C.3     1  UNL1        0.0188
     34 C           6.8787   -4.7129   30.7725 C.3     1  UNL1        0.0721
@<TRIPOS>BOND
     1    33    34    1
     2    34    27    1
     3    27    28    1
     4    28    29    1
     5    29    30    1
     6    30    24    1
     7    24    25    2
     8    24    26    2
     9    24     1    1
    10     1     2   ar
    11     2     3    1
    12     2     4   ar
    13     4     5   ar
    14     5     6   ar
    15     6    10    1
    16    10    11   am
    17    11    12    2
    18    11    13   am
    19    13    16    1
    20    16    17   ar
    21    17    18   ar
    22    18    19   ar
    23    19    20   ar
    24    20    21    1
    25    20    22   ar
    26    22    23    1
    27     6     7   ar
    28     7     8    1
    29    30    31    1
    30    31    32    1
    31    32    27    1
    32     7     1   ar
    33    22    16   ar
    34    10    14    1
    35    13    15    1
    36     8     9    1
@<TRIPOS>MOLECULE
*****
 34 36 0 0 0
SMALL
GASTEIGER

@<TRIPOS>ATOM
      1 C           1.7403    0.7798   27.6246 C.ar    1  UNL1        0.1508
      2 C           0.2596    1.0130   27.6792 C.ar    1  UNL1        0.0778
      3 CL         -0.4776    0.8524   28.9757 Cl      1  UNL1       -0.0808
      4 C          -0.4840    1.4068   26.4375 C.ar    1  UNL1        0.0142
      5 C           0.2532    1.5674   25.1410 C.ar    1  UNL1        0.0187
      6 C           1.7339    1.3342   25.0864 C.ar    1  UNL1        0.0870
      7 C           2.4775    0.9404   26.3282 C.ar    1  UNL1        0.1650
      8 O           3.9583    0.7071   26.2735 O.3     1  UNL1       -0.5032
      9 H           4.4188    0.8075   25.4636 H       1  UNL1        0.2923
     10 N           2.4712    1.4947   23.7899 N.am    1  UNL1       -0.2656
     11 C           3.0706    0.2969   23.1147 C.2     1  UNL1        0.3083
     12 O           2.9327   -1.0615   23.7359 O.2     1  UNL1       -0.2521
     13 N           3.8078    0.4574   21.8183 N.am    1  UNL1       -0.2672
     14 H           2.5616    2.3863   23.3822 H       1  UNL1        0.1565
     15 H           3.8982    1.3490   21.4106 H       1  UNL1        0.1564
     16 C           4.4072   -0.7404   21.1430 C.ar    1  UNL1        0.0644
     17 C           5.8645   -1.0492   21.3183 C.ar    1  UNL1        0.0157
     18 C           6.4639   -2.2470   20.6431 C.ar    1  UNL1        0.0036
     19 C           5.6060   -3.1360   19.7925 C.ar    1  UNL1        0.0306
     20 C           4.1485   -2.8272   19.6171 C.ar    1  UNL1        0.1518
     21 F           3.2906   -3.7163   18.7666 F       1  UNL1       -0.2032
     22 C           3.5491   -1.6294   20.2924 C.ar    1  UNL1        0.0985
     23 CL          2.0918   -1.3206   20.1171 Cl      1  UNL1       -0.0786
     24 S           2.4839    0.3860   28.8664 S.O2    1  UNL1        0.0108
     25 O           2.4724   -1.0458   28.4192 O.2     1  UNL1       -0.1686
     26 O           2.4954    1.8177   29.3135 O.2     1  UNL1       -0.1686
     27 N           4.7146   -0.7954   32.5917 N.3     1  UNL1       -0.2726
     28 C           3.4450   -0.0036   32.6971 C.3     1  UNL1        0.0739
     29 C           2.7014    0.3902   31.4553 C.3     1  UNL1        0.0413
     30 C           3.2274   -0.0078   30.1082 C.3     1  UNL1        0.1367
     31 C           4.4970   -0.7996   30.0028 C.3     1  UNL1        0.0413
     32 C           5.2406   -1.1934   31.2446 C.3     1  UNL1        0.0739
     33 C           5.1183   -0.5481   35.1463 C.3     1  UNL1        0.0188
     34 C           5.4581   -1.1892   33.8335 C.3     1  UNL1        0.0721
@<TRIPOS>BOND
     1    33    34    1
     2    34    27    1
     3    27    28    1
     4    28    29    1
     5    29    30    1
     6    30    24    1
     7    24    25    2
     8    24    26    2
     9    24     1    1
    10     1     2   ar
    11     2     3    1
    12     2     4   ar
    13     4     5   ar
    14     5     6   ar
    15     6    10    1
    16    10    11   am
    17    11    12    2
    18    11    13   am
    19    13    16    1
    20    16    17   ar
    21    17    18   ar
    22    18    19   ar
    23    19    20   ar
    24    20    21    1
    25    20    22   ar
    26    22    23    1
    27     6     7   ar
    28     7     8    1
    29    30    31    1
    30    31    32    1
    31    32    27    1
    32     7     1   ar
    33    22    16   ar
    34    10    14    1
    35    13    15    1
    36     8     9    1
@<TRIPOS>MOLECULE
*****
 34 36 0 0 0
SMALL
GASTEIGER

@<TRIPOS>ATOM
      1 C         -12.7494   -4.6583   18.3587 C.ar    1  UNL1        0.1508
      2 C         -11.2909   -4.7734   18.6893 C.ar    1  UNL1        0.0778
      3 CL        -10.7148   -6.0996   19.0886 Cl      1  UNL1       -0.0808
      4 C         -10.4084   -3.5624   18.6207 C.ar    1  UNL1        0.0142
      5 C         -10.9845   -2.2363   18.2215 C.ar    1  UNL1        0.0187
      6 C         -12.4430   -2.1211   17.8909 C.ar    1  UNL1        0.0870
      7 C         -13.3255   -3.3321   17.9594 C.ar    1  UNL1        0.1650
      8 O         -14.7841   -3.2169   17.6287 O.3     1  UNL1       -0.5032
      9 H         -15.1439   -2.3885   17.3793 H       1  UNL1        0.2923
     10 N         -13.0191   -0.7949   17.4916 N.am    1  UNL1       -0.2656
     11 C         -14.1213   -0.1811   18.3031 C.2     1  UNL1        0.3083
     12 O         -14.6473   -0.8935   19.5138 O.2     1  UNL1       -0.2521
     13 N         -14.6974    1.1450   17.9039 N.am    1  UNL1       -0.2672
     14 H         -12.6738   -0.3274   16.6970 H       1  UNL1        0.1565
     15 H         -14.3521    1.6126   17.1092 H       1  UNL1        0.1564
     16 C         -15.7995    1.7588   18.7154 C.ar    1  UNL1        0.0644
     17 C         -15.4796    2.7913   19.7553 C.ar    1  UNL1        0.0157
     18 C         -16.5817    3.4051   20.5668 C.ar    1  UNL1        0.0036
     19 C         -18.0038    2.9864   20.3383 C.ar    1  UNL1        0.0306
     20 C         -18.3239    1.9539   19.2983 C.ar    1  UNL1        0.1518
     21 F         -19.7460    1.5352   19.0698 F       1  UNL1       -0.2032
     22 C         -17.2217    1.3401   18.4868 C.ar    1  UNL1        0.0985
     23 CL        -17.5417    0.3076   17.4469 Cl      1  UNL1       -0.0786
     24 S         -13.6319   -5.8693   18.4272 S.O2    1  UNL1        0.0108
     25 O         -13.7720   -5.6832   19.9091 O.2     1  UNL1       -0.1686
     26 O         -13.4918   -6.0553   16.9454 O.2     1  UNL1       -0.1686
     27 N         -16.2794   -9.5022   18.6330 N.3     1  UNL1       -0.2726
     28 C         -16.6959   -8.2313   19.3120 C.3     1  UNL1        0.0739
     29 C         -15.8134   -7.0203   19.2434 C.3     1  UNL1        0.0413
     30 C         -14.5144   -7.0803   18.4958 C.3     1  UNL1        0.1367
     31 C         -14.0979   -8.3512   17.8168 C.3     1  UNL1        0.0413
     32 C         -14.9804   -9.5622   17.8854 C.3     1  UNL1        0.0739
     33 C         -18.5144  -10.6933   18.0532 C.3     1  UNL1        0.0188
     34 C         -17.1619  -10.7132   18.7016 C.3     1  UNL1        0.0721
@<TRIPOS>BOND
     1    33    34    1
     2    34    27    1
     3    27    28    1
     4    28    29    1
     5    29    30    1
     6    30    24    1
     7    24    25    2
     8    24    26    2
     9    24     1    1
    10     1     2   ar
    11     2     3    1
    12     2     4   ar
    13     4     5   ar
    14     5     6   ar
    15     6    10    1
    16    10    11   am
    17    11    12    2
    18    11    13   am
    19    13    16    1
    20    16    17   ar
    21    17    18   ar
    22    18    19   ar
    23    19    20   ar
    24    20    21    1
    25    20    22   ar
    26    22    23    1
    27     6     7   ar
    28     7     8    1
    29    30    31    1
    30    31    32    1
    31    32    27    1
    32     7     1   ar
    33    22    16   ar
    34    10    14    1
    35    13    15    1
    36     8     9    1
@<TRIPOS>MOLECULE
*****
 34 36 0 0 0
SMALL
GASTEIGER

@<TRIPOS>ATOM
      1 C          -0.0918    2.9869   20.3487 C.ar    1  UNL1        0.1508
      2 C           0.4472    4.1370   19.5508 C.ar    1  UNL1        0.0778
      3 CL         -0.0422    5.5297   19.8177 Cl      1  UNL1       -0.0808
      4 C           1.4755    3.8946   18.4860 C.ar    1  UNL1        0.0142
      5 C           1.9648    2.5020   18.2191 C.ar    1  UNL1        0.0187
      6 C           1.4259    1.3519   19.0170 C.ar    1  UNL1        0.0870
      7 C           0.3976    1.5944   20.0819 C.ar    1  UNL1        0.1650
      8 O          -0.1413    0.4442   20.8798 O.3     1  UNL1       -0.5032
      9 H           0.1643   -0.4257   20.7131 H       1  UNL1        0.2923
     10 N           1.9152   -0.0407   18.7502 N.am    1  UNL1       -0.2656
     11 C           3.3069   -0.4356   19.1469 C.2     1  UNL1        0.3083
     12 O           4.2092    0.5622   19.8105 O.2     1  UNL1       -0.2521
     13 N           3.7963   -1.8281   18.8801 N.am    1  UNL1       -0.2672
     14 H           1.3230   -0.6956   18.3146 H       1  UNL1        0.1565
     15 H           3.2041   -2.4830   18.4446 H       1  UNL1        0.1564
     16 C           5.1879   -2.2230   19.2768 C.ar    1  UNL1        0.0644
     17 C           6.3416   -1.9196   18.3675 C.ar    1  UNL1        0.0157
     18 C           7.7333   -2.3145   18.7643 C.ar    1  UNL1        0.0036
     19 C           7.9712   -3.0127   20.0703 C.ar    1  UNL1        0.0306
     20 C           6.8175   -3.3160   20.9797 C.ar    1  UNL1        0.1518
     21 F           7.0554   -4.0142   22.2858 F       1  UNL1       -0.2032
     22 C           5.4258   -2.9212   20.5830 C.ar    1  UNL1        0.0985
     23 CL          4.2721   -3.2246   21.4923 Cl      1  UNL1       -0.0786
     24 S          -1.1200    3.2294   21.4136 S.O2    1  UNL1        0.0108
     25 O          -2.2006    2.7916   20.4698 O.2     1  UNL1       -0.1686
     26 O          -0.0395    3.6672   22.3574 O.2     1  UNL1       -0.1686
     27 N          -4.2049    3.9567   24.6080 N.3     1  UNL1       -0.2726
     28 C          -2.7479    3.9338   24.9637 C.3     1  UNL1        0.0739
     29 C          -1.7196    3.6914   23.8989 C.3     1  UNL1        0.0413
     30 C          -2.1483    3.4718   22.4784 C.3     1  UNL1        0.1367
     31 C          -3.6053    3.4947   22.1227 C.3     1  UNL1        0.0413
     32 C          -4.6336    3.7371   23.1875 C.3     1  UNL1        0.0739
     33 C          -4.8306    4.8230   26.9762 C.3     1  UNL1        0.0188
     34 C          -5.2332    4.1992   25.6728 C.3     1  UNL1        0.0721
@<TRIPOS>BOND
     1    33    34    1
     2    34    27    1
     3    27    28    1
     4    28    29    1
     5    29    30    1
     6    30    24    1
     7    24    25    2
     8    24    26    2
     9    24     1    1
    10     1     2   ar
    11     2     3    1
    12     2     4   ar
    13     4     5   ar
    14     5     6   ar
    15     6    10    1
    16    10    11   am
    17    11    12    2
    18    11    13   am
    19    13    16    1
    20    16    17   ar
    21    17    18   ar
    22    18    19   ar
    23    19    20   ar
    24    20    21    1
    25    20    22   ar
    26    22    23    1
    27     6     7   ar
    28     7     8    1
    29    30    31    1
    30    31    32    1
    31    32    27    1
    32     7     1   ar
    33    22    16   ar
    34    10    14    1
    35    13    15    1
    36     8     9    1
