@<TRIPOS>MOLECULE
*****
 34 36 0 0 0
SMALL
GASTEIGER

@<TRIPOS>ATOM
      1 C          -6.6743  -16.1218   24.1060 C.ar    1  UNL1        0.1409
      2 N          -5.7386  -16.7287   23.1029 N.ar    1  UNL1       -0.1984
      3 C          -4.3464  -17.1101   23.5108 C.ar    1  UNL1        0.2214
      4 N          -3.8899  -16.8845   24.9218 N.ar    1  UNL1       -0.2119
      5 C          -4.8256  -16.2776   25.9248 C.ar    1  UNL1        0.1091
      6 C          -6.2178  -15.8962   25.5169 C.ar    1  UNL1        0.1040
      7 N          -3.4108  -17.7170   22.5078 N.pl3   1  UNL1       -0.2768
      8 C          -3.5536  -19.1607   22.1265 C.3     1  UNL1        0.0937
      9 C          -2.6179  -19.7677   21.1234 C.3     1  UNL1        0.0229
     10 C          -1.5394  -18.9310   20.5017 C.3     1  UNL1        0.0190
     11 C          -1.3965  -17.4872   20.8830 C.3     1  UNL1        0.0710
     12 N          -0.3180  -16.6505   20.2612 N.3     1  UNL1       -0.3208
     13 C          -2.3322  -16.8803   21.8860 C.3     1  UNL1        0.1090
     14 H           0.2200  -17.2199   19.6079 H       1  UNL1        0.1189
     15 H           0.2998  -16.2951   20.9909 H       1  UNL1        0.1189
     16 C          -7.1535  -15.2893   26.5200 C.2     1  UNL1        0.2470
     17 N          -6.6152  -14.4210   27.6183 N.am    1  UNL1       -0.3252
     18 O          -8.6275  -15.5507   26.4248 O.2     1  UNL1       -0.2702
     19 H          -5.6478  -14.2494   27.6808 H       1  UNL1        0.1453
     20 H          -7.2293  -14.0226   28.2766 H       1  UNL1        0.1453
     21 N          -8.0665  -15.7404   23.6981 N.pl3   1  UNL1       -0.2976
     22 H          -8.4164  -14.8467   23.9176 H       1  UNL1        0.1536
     23 C         -11.2395  -17.8325   22.5555 C.ar    1  UNL1        0.0594
     24 C         -10.3803  -16.8522   23.2976 C.ar    1  UNL1        0.0293
     25 C          -8.9257  -16.7207   22.9559 C.ar    1  UNL1        0.0517
     26 C          -8.3302  -17.5696   21.8720 C.ar    1  UNL1        0.0293
     27 C          -9.1894  -18.5498   21.1298 C.ar    1  UNL1        0.0594
     28 N         -10.6440  -18.6813   21.4716 N.ar    1  UNL1       -0.2539
     29 C         -13.1108  -18.2298   24.3134 C.3     1  UNL1        0.0063
     30 C         -12.6941  -17.9639   22.8972 C.3     1  UNL1        0.0403
     31 C         -13.7321  -17.8295   21.8228 C.3     1  UNL1        0.0063
     32 C          -8.5939  -19.3987   20.0459 C.3     1  UNL1        0.0403
     33 C          -9.4746  -19.9816   18.9807 C.3     1  UNL1        0.0063
     34 C          -7.1178  -19.6646   20.0271 C.3     1  UNL1        0.0063
@<TRIPOS>BOND
     1    29    30    1
     2    30    31    1
     3    30    23    1
     4    23    24   ar
     5    24    25   ar
     6    25    21    1
     7    21     1    1
     8     1     2   ar
     9     2     3   ar
    10     3     7    1
    11     7     8    1
    12     8     9    1
    13     9    10    1
    14    10    11    1
    15    11    12    1
    16    11    13    1
    17     3     4   ar
    18     4     5   ar
    19     5     6   ar
    20     6    16    1
    21    16    17   am
    22    16    18    2
    23    25    26   ar
    24    26    27   ar
    25    27    32    1
    26    32    33    1
    27    32    34    1
    28    27    28   ar
    29    28    23   ar
    30     6     1   ar
    31    13     7    1
    32    21    22    1
    33    12    14    1
    34    12    15    1
    35    17    19    1
    36    17    20    1
@<TRIPOS>MOLECULE
*****
 34 36 0 0 0
SMALL
GASTEIGER

@<TRIPOS>ATOM
      1 C          -6.6699  -16.1189   24.1102 C.ar    1  UNL1        0.1409
      2 N          -5.7339  -16.7211   23.1044 N.ar    1  UNL1       -0.1984
      3 C          -4.3418  -17.1042   23.5108 C.ar    1  UNL1        0.2214
      4 N          -3.8856  -16.8852   24.9229 N.ar    1  UNL1       -0.2119
      5 C          -4.8215  -16.2830   25.9286 C.ar    1  UNL1        0.1091
      6 C          -6.2137  -15.8998   25.5222 C.ar    1  UNL1        0.1040
      7 N          -3.4059  -17.7064   22.5052 N.pl3   1  UNL1       -0.2768
      8 C          -3.5462  -19.1493   22.1200 C.3     1  UNL1        0.0937
      9 C          -2.6102  -19.7515   21.1143 C.3     1  UNL1        0.0229
     10 C          -1.5340  -18.9109   20.4939 C.3     1  UNL1        0.0190
     11 C          -1.3937  -17.4679   20.8791 C.3     1  UNL1        0.0710
     12 N          -0.3174  -16.6272   20.2586 N.3     1  UNL1       -0.3208
     13 C          -2.3296  -16.8657   21.8847 C.3     1  UNL1        0.1090
     14 H           0.2210  -17.1937   19.6032 H       1  UNL1        0.1189
     15 H           0.3003  -16.2726   20.9887 H       1  UNL1        0.1189
     16 C          -7.1496  -15.2976   26.5279 C.2     1  UNL1        0.2470
     17 N          -6.6136  -14.4203   27.6201 N.am    1  UNL1       -0.3252
     18 O          -8.6216  -15.5728   26.4414 O.2     1  UNL1       -0.2702
     19 H          -5.6474  -14.2397   27.6769 H       1  UNL1        0.1453
     20 H          -7.2278  -14.0251   28.2802 H       1  UNL1        0.1453
     21 N          -8.0620  -15.7358   23.7038 N.pl3   1  UNL1       -0.2976
     22 H          -8.4123  -14.8434   23.9279 H       1  UNL1        0.1536
     23 C          -9.1802  -18.5400   21.1277 C.ar    1  UNL1        0.0594
     24 C          -8.3217  -17.5634   21.8756 C.ar    1  UNL1        0.0293
     25 C          -8.9206  -16.7123   22.9558 C.ar    1  UNL1        0.0517
     26 C         -10.3779  -16.8377   23.2882 C.ar    1  UNL1        0.0293
     27 C         -11.2363  -17.8142   22.5402 C.ar    1  UNL1        0.0594
     28 N         -10.6375  -18.6653   21.4600 N.ar    1  UNL1       -0.2539
     29 C          -7.1034  -19.6468   20.0267 C.3     1  UNL1        0.0063
     30 C          -8.5813  -19.3911   20.0474 C.3     1  UNL1        0.0403
     31 C          -9.4603  -19.9865   18.9879 C.3     1  UNL1        0.0063
     32 C         -12.6937  -17.9396   22.8726 C.3     1  UNL1        0.0403
     33 C         -13.7238  -17.8079   21.7902 C.3     1  UNL1        0.0063
     34 C         -13.1209  -18.1968   24.2872 C.3     1  UNL1        0.0063
@<TRIPOS>BOND
     1    29    30    1
     2    30    31    1
     3    30    23    1
     4    23    24   ar
     5    24    25   ar
     6    25    21    1
     7    21     1    1
     8     1     2   ar
     9     2     3   ar
    10     3     7    1
    11     7     8    1
    12     8     9    1
    13     9    10    1
    14    10    11    1
    15    11    12    1
    16    11    13    1
    17     3     4   ar
    18     4     5   ar
    19     5     6   ar
    20     6    16    1
    21    16    17   am
    22    16    18    2
    23    25    26   ar
    24    26    27   ar
    25    27    32    1
    26    32    33    1
    27    32    34    1
    28    27    28   ar
    29    28    23   ar
    30     6     1   ar
    31    13     7    1
    32    21    22    1
    33    12    14    1
    34    12    15    1
    35    17    19    1
    36    17    20    1
@<TRIPOS>MOLECULE
*****
 34 36 0 0 0
SMALL
GASTEIGER

@<TRIPOS>ATOM
      1 C          -6.6023  -15.8373   24.1152 C.ar    1  UNL1        0.1409
      2 N          -5.6837  -16.4689   23.1114 N.ar    1  UNL1       -0.1984
      3 C          -4.3857  -17.0731   23.5587 C.ar    1  UNL1        0.2214
      4 N          -4.0062  -17.0457   25.0097 N.ar    1  UNL1       -0.2119
      5 C          -4.9247  -16.4141   26.0133 C.ar    1  UNL1        0.1091
      6 C          -6.2228  -15.8099   25.5661 C.ar    1  UNL1        0.1040
      7 N          -3.4671  -17.7047   22.5550 N.pl3   1  UNL1       -0.2768
      8 C          -3.6228  -19.1547   22.2042 C.3     1  UNL1        0.0937
      9 C          -2.7043  -19.7864   21.2005 C.3     1  UNL1        0.0229
     10 C          -1.6301  -18.9679   20.5477 C.3     1  UNL1        0.0190
     11 C          -1.4744  -17.5178   20.8985 C.3     1  UNL1        0.0710
     12 N          -0.4002  -16.6994   20.2457 N.3     1  UNL1       -0.3208
     13 C          -2.3929  -16.8862   21.9022 C.3     1  UNL1        0.1090
     14 H           0.1257  -17.2844   19.5964 H       1  UNL1        0.1189
     15 H           0.2294  -16.3331   20.9597 H       1  UNL1        0.1189
     16 C          -7.1413  -15.1783   26.5698 C.2     1  UNL1        0.2470
     17 N          -6.5758  -14.3669   27.6976 N.am    1  UNL1       -0.3252
     18 O          -8.6253  -15.3581   26.4457 O.2     1  UNL1       -0.2702
     19 H          -5.6018  -14.2489   27.7790 H       1  UNL1        0.1453
     20 H          -7.1787  -13.9524   28.3563 H       1  UNL1        0.1453
     21 N          -7.9003  -15.2331   23.6679 N.pl3   1  UNL1       -0.2976
     22 H          -8.0897  -14.2840   23.8487 H       1  UNL1        0.1536
     23 C         -10.1819  -18.3237   22.6715 C.ar    1  UNL1        0.0594
     24 C          -9.1724  -17.4818   23.3942 C.ar    1  UNL1        0.0293
     25 C          -8.9098  -16.0749   22.9452 C.ar    1  UNL1        0.0517
     26 C          -9.6567  -15.5098   21.7735 C.ar    1  UNL1        0.0293
     27 C         -10.6661  -16.3517   21.0509 C.ar    1  UNL1        0.0594
     28 N         -10.9287  -17.7586   21.4999 N.ar    1  UNL1       -0.2539
     29 C         -10.1075  -20.1459   24.5219 C.3     1  UNL1        0.0063
     30 C         -10.4445  -19.7306   23.1205 C.3     1  UNL1        0.0403
     31 C         -11.0441  -20.7222   22.1682 C.3     1  UNL1        0.0063
     32 C         -11.4130  -15.7866   19.8791 C.3     1  UNL1        0.0403
     33 C         -12.8911  -16.0091   19.7539 C.3     1  UNL1        0.0063
     34 C         -10.6818  -14.9990   18.8327 C.3     1  UNL1        0.0063
@<TRIPOS>BOND
     1    29    30    1
     2    30    31    1
     3    30    23    1
     4    23    24   ar
     5    24    25   ar
     6    25    21    1
     7    21     1    1
     8     1     2   ar
     9     2     3   ar
    10     3     7    1
    11     7     8    1
    12     8     9    1
    13     9    10    1
    14    10    11    1
    15    11    12    1
    16    11    13    1
    17     3     4   ar
    18     4     5   ar
    19     5     6   ar
    20     6    16    1
    21    16    17   am
    22    16    18    2
    23    25    26   ar
    24    26    27   ar
    25    27    32    1
    26    32    33    1
    27    32    34    1
    28    27    28   ar
    29    28    23   ar
    30     6     1   ar
    31    13     7    1
    32    21    22    1
    33    12    14    1
    34    12    15    1
    35    17    19    1
    36    17    20    1
@<TRIPOS>MOLECULE
*****
 34 36 0 0 0
SMALL
GASTEIGER

@<TRIPOS>ATOM
      1 C          -6.5505  -15.8399   24.1216 C.ar    1  UNL1        0.1409
      2 N          -5.6288  -16.4656   23.1170 N.ar    1  UNL1       -0.1984
      3 C          -4.3397  -17.0868   23.5668 C.ar    1  UNL1        0.2214
      4 N          -3.9723  -17.0824   25.0212 N.ar    1  UNL1       -0.2119
      5 C          -4.8940  -16.4568   26.0257 C.ar    1  UNL1        0.1091
      6 C          -6.1830  -15.8355   25.5759 C.ar    1  UNL1        0.1040
      7 N          -3.4181  -17.7125   22.5623 N.pl3   1  UNL1       -0.2768
      8 C          -3.5640  -19.1638   22.2125 C.3     1  UNL1        0.0937
      9 C          -2.6423  -19.7895   21.2079 C.3     1  UNL1        0.0229
     10 C          -1.5747  -18.9638   20.5533 C.3     1  UNL1        0.0190
     11 C          -1.4288  -17.5125   20.9031 C.3     1  UNL1        0.0710
     12 N          -0.3613  -16.6868   20.2484 N.3     1  UNL1       -0.3208
     13 C          -2.3505  -16.8868   21.9076 C.3     1  UNL1        0.1090
     14 H           0.1679  -17.2685   19.5987 H       1  UNL1        0.1189
     15 H           0.2667  -16.3157   20.9614 H       1  UNL1        0.1189
     16 C          -7.1047  -15.2098   26.5805 C.2     1  UNL1        0.2470
     17 N          -6.5463  -14.3618   27.6845 N.am    1  UNL1       -0.3252
     18 O          -8.5848  -15.4323   26.4810 O.2     1  UNL1       -0.2702
     19 H          -5.5749  -14.2158   27.7498 H       1  UNL1        0.1453
     20 H          -7.1512  -13.9511   28.3438 H       1  UNL1        0.1453
     21 N          -7.8396  -15.2186   23.6719 N.pl3   1  UNL1       -0.2976
     22 H          -8.0069  -14.2617   23.8315 H       1  UNL1        0.1536
     23 C         -10.6542  -16.3390   21.1081 C.ar    1  UNL1        0.0594
     24 C          -9.6200  -15.5022   21.8011 C.ar    1  UNL1        0.0293
     25 C          -8.8738  -16.0555   22.9789 C.ar    1  UNL1        0.0517
     26 C          -9.1617  -17.4454   23.4636 C.ar    1  UNL1        0.0293
     27 C         -10.1959  -18.2822   22.7707 C.ar    1  UNL1        0.0594
     28 N         -10.9421  -17.7290   21.5929 N.ar    1  UNL1       -0.2539
     29 C         -10.6691  -15.0065   18.8779 C.3     1  UNL1        0.0063
     30 C         -11.4004  -15.7858   19.9304 C.3     1  UNL1        0.0403
     31 C         -12.8780  -16.0119   19.8051 C.3     1  UNL1        0.0063
     32 C         -10.4839  -19.6722   23.2554 C.3     1  UNL1        0.0403
     33 C         -11.0307  -20.6986   22.3081 C.3     1  UNL1        0.0063
     34 C         -10.2251  -20.0357   24.6875 C.3     1  UNL1        0.0063
@<TRIPOS>BOND
     1    29    30    1
     2    30    31    1
     3    30    23    1
     4    23    24   ar
     5    24    25   ar
     6    25    21    1
     7    21     1    1
     8     1     2   ar
     9     2     3   ar
    10     3     7    1
    11     7     8    1
    12     8     9    1
    13     9    10    1
    14    10    11    1
    15    11    12    1
    16    11    13    1
    17     3     4   ar
    18     4     5   ar
    19     5     6   ar
    20     6    16    1
    21    16    17   am
    22    16    18    2
    23    25    26   ar
    24    26    27   ar
    25    27    32    1
    26    32    33    1
    27    32    34    1
    28    27    28   ar
    29    28    23   ar
    30     6     1   ar
    31    13     7    1
    32    21    22    1
    33    12    14    1
    34    12    15    1
    35    17    19    1
    36    17    20    1
@<TRIPOS>MOLECULE
*****
 34 36 0 0 0
SMALL
GASTEIGER

@<TRIPOS>ATOM
      1 C          -6.4506  -16.2805   23.9624 C.ar    1  UNL1        0.1409
      2 N          -7.3107  -16.7430   22.8237 N.ar    1  UNL1       -0.1984
      3 C          -8.7992  -16.5704   22.8900 C.ar    1  UNL1        0.2214
      4 N          -9.4277  -15.9354   24.0950 N.ar    1  UNL1       -0.2119
      5 C          -8.5677  -15.4730   25.2335 C.ar    1  UNL1        0.1091
      6 C          -7.0791  -15.6455   25.1672 C.ar    1  UNL1        0.1040
      7 N          -9.6593  -17.0329   21.7514 N.pl3   1  UNL1       -0.2768
      8 C          -9.6245  -18.4692   21.3205 C.3     1  UNL1        0.0937
      9 C         -10.4846  -18.9317   20.1818 C.3     1  UNL1        0.0229
     10 C         -11.3795  -17.9578   19.4742 C.3     1  UNL1        0.0190
     11 C         -11.4143  -16.5214   19.9052 C.3     1  UNL1        0.0710
     12 N         -12.3092  -15.5475   19.1976 N.3     1  UNL1       -0.3208
     13 C         -10.5542  -16.0590   21.0438 C.3     1  UNL1        0.1090
     14 H         -12.8175  -16.0296   18.4562 H       1  UNL1        0.1189
     15 H         -11.7455  -14.8000   18.7928 H       1  UNL1        0.1189
     16 C          -6.2190  -15.1831   26.3059 C.2     1  UNL1        0.2470
     17 N          -6.6213  -15.4828   27.7195 N.am    1  UNL1       -0.3252
     18 O          -4.9567  -14.4208   26.0309 O.2     1  UNL1       -0.2702
     19 H          -7.4498  -15.9831   27.9000 H       1  UNL1        0.1453
     20 H          -6.0568  -15.1793   28.4668 H       1  UNL1        0.1453
     21 N          -4.9620  -16.4531   23.8961 N.pl3   1  UNL1       -0.2976
     22 H          -4.3866  -16.0276   24.5721 H       1  UNL1        0.1536
     23 C          -2.4024  -17.7140   21.1377 C.ar    1  UNL1        0.0594
     24 C          -3.0142  -16.8931   22.2340 C.ar    1  UNL1        0.0293
     25 C          -4.3502  -17.2739   22.7997 C.ar    1  UNL1        0.0517
     26 C          -5.0745  -18.4755   22.2691 C.ar    1  UNL1        0.0293
     27 C          -4.4627  -19.2963   21.1728 C.ar    1  UNL1        0.0594
     28 N          -3.1267  -18.9155   20.6071 N.ar    1  UNL1       -0.2539
     29 C          -0.3048  -18.3091   19.7250 C.3     1  UNL1        0.0063
     30 C          -1.0664  -17.3332   20.5720 C.3     1  UNL1        0.0403
     31 C          -0.4919  -15.9764   20.8534 C.3     1  UNL1        0.0063
     32 C          -5.1869  -20.4980   20.6421 C.3     1  UNL1        0.0403
     33 C          -6.6130  -20.7479   21.0343 C.3     1  UNL1        0.0063
     34 C          -4.4851  -21.4497   19.7192 C.3     1  UNL1        0.0063
@<TRIPOS>BOND
     1    29    30    1
     2    30    31    1
     3    30    23    1
     4    23    24   ar
     5    24    25   ar
     6    25    21    1
     7    21     1    1
     8     1     2   ar
     9     2     3   ar
    10     3     7    1
    11     7     8    1
    12     8     9    1
    13     9    10    1
    14    10    11    1
    15    11    12    1
    16    11    13    1
    17     3     4   ar
    18     4     5   ar
    19     5     6   ar
    20     6    16    1
    21    16    17   am
    22    16    18    2
    23    25    26   ar
    24    26    27   ar
    25    27    32    1
    26    32    33    1
    27    32    34    1
    28    27    28   ar
    29    28    23   ar
    30     6     1   ar
    31    13     7    1
    32    21    22    1
    33    12    14    1
    34    12    15    1
    35    17    19    1
    36    17    20    1
@<TRIPOS>MOLECULE
*****
 34 36 0 0 0
SMALL
GASTEIGER

@<TRIPOS>ATOM
      1 C          -6.4357  -16.3244   23.9736 C.ar    1  UNL1        0.1409
      2 N          -7.2984  -16.7819   22.8349 N.ar    1  UNL1       -0.1984
      3 C          -8.7822  -16.5675   22.8849 C.ar    1  UNL1        0.2214
      4 N          -9.4032  -15.8955   24.0736 N.ar    1  UNL1       -0.2119
      5 C          -8.5405  -15.4380   25.2121 C.ar    1  UNL1        0.1091
      6 C          -7.0567  -15.6524   25.1621 C.ar    1  UNL1        0.1040
      7 N          -9.6449  -17.0250   21.7464 N.pl3   1  UNL1       -0.2768
      8 C          -9.6293  -18.4645   21.3250 C.3     1  UNL1        0.0937
      9 C         -10.4920  -18.9221   20.1864 C.3     1  UNL1        0.0229
     10 C         -11.3703  -17.9402   19.4692 C.3     1  UNL1        0.0190
     11 C         -11.3858  -16.5006   19.8906 C.3     1  UNL1        0.0710
     12 N         -12.2641  -15.5186   19.1734 N.3     1  UNL1       -0.3208
     13 C         -10.5231  -16.0431   21.0292 C.3     1  UNL1        0.1090
     14 H         -12.7768  -15.9982   18.4334 H       1  UNL1        0.1189
     15 H         -11.6883  -14.7820   18.7657 H       1  UNL1        0.1189
     16 C          -6.1940  -15.1949   26.3008 C.2     1  UNL1        0.2470
     17 N          -6.5868  -15.5110   27.7135 N.am    1  UNL1       -0.3252
     18 O          -4.9385  -14.4212   26.0266 O.2     1  UNL1       -0.2702
     19 H          -7.4108  -16.0188   27.8934 H       1  UNL1        0.1453
     20 H          -6.0206  -15.2107   28.4608 H       1  UNL1        0.1453
     21 N          -4.9519  -16.5388   23.9235 N.pl3   1  UNL1       -0.2976
     22 H          -4.3760  -16.1609   24.6269 H       1  UNL1        0.1536
     23 C          -4.4720  -19.2985   21.1121 C.ar    1  UNL1        0.0594
     24 C          -5.0782  -18.5083   22.2338 C.ar    1  UNL1        0.0293
     25 C          -4.3457  -17.3290   22.8018 C.ar    1  UNL1        0.0517
     26 C          -3.0071  -16.9397   22.2481 C.ar    1  UNL1        0.0293
     27 C          -2.4010  -17.7299   21.1264 C.ar    1  UNL1        0.0594
     28 N          -3.1334  -18.9092   20.5584 N.ar    1  UNL1       -0.2539
     29 C          -4.4654  -21.4998   19.7322 C.3     1  UNL1        0.0063
     30 C          -5.2045  -20.4778   20.5441 C.3     1  UNL1        0.0403
     31 C          -6.6761  -20.6352   20.7880 C.3     1  UNL1        0.0063
     32 C          -1.0623  -17.3407   20.5727 C.3     1  UNL1        0.0403
     33 C          -0.5091  -15.9724   20.8402 C.3     1  UNL1        0.0063
     34 C          -0.2769  -18.3199   19.7515 C.3     1  UNL1        0.0063
@<TRIPOS>BOND
     1    29    30    1
     2    30    31    1
     3    30    23    1
     4    23    24   ar
     5    24    25   ar
     6    25    21    1
     7    21     1    1
     8     1     2   ar
     9     2     3   ar
    10     3     7    1
    11     7     8    1
    12     8     9    1
    13     9    10    1
    14    10    11    1
    15    11    12    1
    16    11    13    1
    17     3     4   ar
    18     4     5   ar
    19     5     6   ar
    20     6    16    1
    21    16    17   am
    22    16    18    2
    23    25    26   ar
    24    26    27   ar
    25    27    32    1
    26    32    33    1
    27    32    34    1
    28    27    28   ar
    29    28    23   ar
    30     6     1   ar
    31    13     7    1
    32    21    22    1
    33    12    14    1
    34    12    15    1
    35    17    19    1
    36    17    20    1
@<TRIPOS>MOLECULE
*****
 34 36 0 0 0
SMALL
GASTEIGER

@<TRIPOS>ATOM
      1 C           6.2139   -3.4063   20.7180 C.ar    1  UNL1        0.1409
      2 N           6.2779   -4.3007   21.9206 N.ar    1  UNL1       -0.1984
      3 C           7.6036   -4.6311   22.5397 C.ar    1  UNL1        0.2214
      4 N           8.8653   -4.0672   21.9563 N.ar    1  UNL1       -0.2119
      5 C           8.8012   -3.1728   20.7539 C.ar    1  UNL1        0.1091
      6 C           7.4755   -2.8424   20.1347 C.ar    1  UNL1        0.1040
      7 N           7.6677   -5.5255   23.7422 N.pl3   1  UNL1       -0.2768
      8 C           8.5197   -6.7598   23.7142 C.3     1  UNL1        0.0937
      9 C           8.5838   -7.6542   24.9168 C.3     1  UNL1        0.0229
     10 C           7.7960   -7.3143   26.1471 C.3     1  UNL1        0.0190
     11 C           6.9440   -6.0800   26.1750 C.3     1  UNL1        0.0710
     12 N           6.1562   -5.7401   27.4054 N.3     1  UNL1       -0.3208
     13 C           6.8799   -5.1856   24.9725 C.3     1  UNL1        0.1090
     14 H           6.3167   -6.4510   28.1190 H       1  UNL1        0.1189
     15 H           5.1631   -5.7077   27.1750 H       1  UNL1        0.1189
     16 C           7.4114   -1.9479   18.9322 C.2     1  UNL1        0.2470
     17 N           7.9861   -0.5639   18.9955 N.am    1  UNL1       -0.3252
     18 O           6.7727   -2.4377   17.6664 O.2     1  UNL1       -0.2702
     19 H           8.4053   -0.2424   19.8263 H       1  UNL1        0.1453
     20 H           7.9440    0.0231   18.2063 H       1  UNL1        0.1453
     21 N           4.8882   -3.0758   20.0989 N.pl3   1  UNL1       -0.2976
     22 H           4.6084   -3.5221   19.2672 H       1  UNL1        0.1536
     23 C           3.1598   -0.8291   22.8765 C.ar    1  UNL1        0.0594
     24 C           4.0592   -1.8394   22.2283 C.ar    1  UNL1        0.0293
     25 C           3.9887   -2.0654   20.7471 C.ar    1  UNL1        0.0517
     26 C           3.0188   -1.2810   19.9141 C.ar    1  UNL1        0.0293
     27 C           2.1194   -0.2707   20.5623 C.ar    1  UNL1        0.0594
     28 N           2.1899   -0.0447   22.0435 N.ar    1  UNL1       -0.2539
     29 C           2.4157    0.4863   24.9898 C.3     1  UNL1        0.0063
     30 C           3.2303   -0.6031   24.3577 C.3     1  UNL1        0.0403
     31 C           4.1155   -1.4665   25.2068 C.3     1  UNL1        0.0063
     32 C           1.1494    0.5138   19.7293 C.3     1  UNL1        0.0403
     33 C           1.3494    0.6207   18.2465 C.3     1  UNL1        0.0063
     34 C          -0.0206    1.1913   20.3790 C.3     1  UNL1        0.0063
@<TRIPOS>BOND
     1    29    30    1
     2    30    31    1
     3    30    23    1
     4    23    24   ar
     5    24    25   ar
     6    25    21    1
     7    21     1    1
     8     1     2   ar
     9     2     3   ar
    10     3     7    1
    11     7     8    1
    12     8     9    1
    13     9    10    1
    14    10    11    1
    15    11    12    1
    16    11    13    1
    17     3     4   ar
    18     4     5   ar
    19     5     6   ar
    20     6    16    1
    21    16    17   am
    22    16    18    2
    23    25    26   ar
    24    26    27   ar
    25    27    32    1
    26    32    33    1
    27    32    34    1
    28    27    28   ar
    29    28    23   ar
    30     6     1   ar
    31    13     7    1
    32    21    22    1
    33    12    14    1
    34    12    15    1
    35    17    19    1
    36    17    20    1
@<TRIPOS>MOLECULE
*****
 34 36 0 0 0
SMALL
GASTEIGER

@<TRIPOS>ATOM
      1 C           6.2212   -3.4225   20.7362 C.ar    1  UNL1        0.1409
      2 N           6.2790   -4.3131   21.9418 N.ar    1  UNL1       -0.1984
      3 C           7.6018   -4.6440   22.5670 C.ar    1  UNL1        0.2214
      4 N           8.8667   -4.0844   21.9864 N.ar    1  UNL1       -0.2119
      5 C           8.8088   -3.1939   20.7808 C.ar    1  UNL1        0.1091
      6 C           7.4860   -2.8629   20.1557 C.ar    1  UNL1        0.1040
      7 N           7.6597   -5.5346   23.7726 N.pl3   1  UNL1       -0.2768
      8 C           8.5152   -6.7665   23.7546 C.3     1  UNL1        0.0937
      9 C           8.5732   -7.6571   24.9602 C.3     1  UNL1        0.0229
     10 C           7.7755   -7.3158   26.1838 C.3     1  UNL1        0.0190
     11 C           6.9199   -6.0838   26.2018 C.3     1  UNL1        0.0710
     12 N           6.1222   -5.7425   27.4254 N.3     1  UNL1       -0.3208
     13 C           6.8620   -5.1932   24.9962 C.3     1  UNL1        0.1090
     14 H           6.2796   -6.4507   28.1423 H       1  UNL1        0.1189
     15 H           5.1307   -5.7136   27.1877 H       1  UNL1        0.1189
     16 C           7.4282   -1.9723   18.9500 C.2     1  UNL1        0.2470
     17 N           8.0072   -0.5899   19.0103 N.am    1  UNL1       -0.3252
     18 O           6.7913   -2.4642   17.6842 O.2     1  UNL1       -0.2702
     19 H           8.4252   -0.2671   19.8411 H       1  UNL1        0.1453
     20 H           7.9692   -0.0054   18.2190 H       1  UNL1        0.1453
     21 N           4.8984   -3.0915   20.1110 N.pl3   1  UNL1       -0.2976
     22 H           4.6217   -3.5385   19.2786 H       1  UNL1        0.1536
     23 C           2.1246   -0.2889   20.5604 C.ar    1  UNL1        0.0594
     24 C           3.0258   -1.3009   19.9173 C.ar    1  UNL1        0.0293
     25 C           3.9972   -2.0794   20.7542 C.ar    1  UNL1        0.0517
     26 C           4.0673   -1.8459   22.2342 C.ar    1  UNL1        0.0293
     27 C           3.1661   -0.8339   22.8773 C.ar    1  UNL1        0.0594
     28 N           2.1948   -0.0554   22.0404 N.ar    1  UNL1       -0.2539
     29 C          -0.0138    1.1743   20.3707 C.3     1  UNL1        0.0063
     30 C           1.1533    0.4895   19.7235 C.3     1  UNL1        0.0403
     31 C           1.3490    0.5833   18.2393 C.3     1  UNL1        0.0063
     32 C           3.2363   -0.6003   24.3574 C.3     1  UNL1        0.0403
     33 C           2.4264    0.4965   24.9828 C.3     1  UNL1        0.0063
     34 C           4.1163   -1.4635   25.2120 C.3     1  UNL1        0.0063
@<TRIPOS>BOND
     1    29    30    1
     2    30    31    1
     3    30    23    1
     4    23    24   ar
     5    24    25   ar
     6    25    21    1
     7    21     1    1
     8     1     2   ar
     9     2     3   ar
    10     3     7    1
    11     7     8    1
    12     8     9    1
    13     9    10    1
    14    10    11    1
    15    11    12    1
    16    11    13    1
    17     3     4   ar
    18     4     5   ar
    19     5     6   ar
    20     6    16    1
    21    16    17   am
    22    16    18    2
    23    25    26   ar
    24    26    27   ar
    25    27    32    1
    26    32    33    1
    27    32    34    1
    28    27    28   ar
    29    28    23   ar
    30     6     1   ar
    31    13     7    1
    32    21    22    1
    33    12    14    1
    34    12    15    1
    35    17    19    1
    36    17    20    1
@<TRIPOS>MOLECULE
*****
 34 36 0 0 0
SMALL
GASTEIGER

@<TRIPOS>ATOM
      1 C           5.9116   -2.0274   30.4640 C.ar    1  UNL1        0.1409
      2 N           4.8002   -1.1069   30.0544 N.ar    1  UNL1       -0.1984
      3 C           3.6138   -0.9175   30.9526 C.ar    1  UNL1        0.2214
      4 N           3.5389   -1.6486   32.2603 N.ar    1  UNL1       -0.2119
      5 C           4.6503   -2.5690   32.6698 C.ar    1  UNL1        0.1091
      6 C           5.8366   -2.7584   31.7716 C.ar    1  UNL1        0.1040
      7 N           2.5025    0.0028   30.5432 N.pl3   1  UNL1       -0.2768
      8 C           2.2082    1.2302   31.3536 C.3     1  UNL1        0.0937
      9 C           1.0968    2.1507   30.9442 C.3     1  UNL1        0.0229
     10 C           0.2797    1.8437   29.7243 C.3     1  UNL1        0.0190
     11 C           0.5740    0.6162   28.9138 C.3     1  UNL1        0.0710
     12 N          -0.2431    0.3092   27.6940 N.3     1  UNL1       -0.3208
     13 C           1.6854   -0.3042   29.3233 C.3     1  UNL1        0.1090
     14 H          -0.9486    1.0346   27.5659 H       1  UNL1        0.1189
     15 H          -0.7018   -0.5944   27.8105 H       1  UNL1        0.1189
     16 C           6.9480   -3.6788   32.1811 C.2     1  UNL1        0.2470
     17 N           6.6571   -5.1199   32.4790 N.am    1  UNL1       -0.3252
     18 O           8.3503   -3.1582   32.2928 O.2     1  UNL1       -0.2702
     19 H           5.7367   -5.4616   32.4057 H       1  UNL1        0.1453
     20 H           7.3865   -5.7240   32.7477 H       1  UNL1        0.1453
     21 N           7.0979   -2.2168   29.5658 N.pl3   1  UNL1       -0.2976
     22 H           7.9425   -1.7501   29.7609 H       1  UNL1        0.1536
     23 C           6.3634   -3.4854   25.8778 C.ar    1  UNL1        0.0594
     24 C           6.4640   -2.5850   27.0733 C.ar    1  UNL1        0.0293
     25 C           6.9973   -3.1172   28.3703 C.ar    1  UNL1        0.0517
     26 C           7.4301   -4.5498   28.4719 C.ar    1  UNL1        0.0293
     27 C           7.3295   -5.4502   27.2764 C.ar    1  UNL1        0.0594
     28 N           6.7962   -4.9180   25.9794 N.ar    1  UNL1       -0.2539
     29 C           6.0786   -3.7009   23.3044 C.3     1  UNL1        0.0063
     30 C           5.8301   -2.9532   24.5808 C.3     1  UNL1        0.0403
     31 C           5.0482   -1.6733   24.5601 C.3     1  UNL1        0.0063
     32 C           7.7623   -6.8829   27.3780 C.3     1  UNL1        0.0403
     33 C           7.4052   -7.8530   26.2911 C.3     1  UNL1        0.0063
     34 C           8.5521   -7.3453   28.5664 C.3     1  UNL1        0.0063
@<TRIPOS>BOND
     1    29    30    1
     2    30    31    1
     3    30    23    1
     4    23    24   ar
     5    24    25   ar
     6    25    21    1
     7    21     1    1
     8     1     2   ar
     9     2     3   ar
    10     3     7    1
    11     7     8    1
    12     8     9    1
    13     9    10    1
    14    10    11    1
    15    11    12    1
    16    11    13    1
    17     3     4   ar
    18     4     5   ar
    19     5     6   ar
    20     6    16    1
    21    16    17   am
    22    16    18    2
    23    25    26   ar
    24    26    27   ar
    25    27    32    1
    26    32    33    1
    27    32    34    1
    28    27    28   ar
    29    28    23   ar
    30     6     1   ar
    31    13     7    1
    32    21    22    1
    33    12    14    1
    34    12    15    1
    35    17    19    1
    36    17    20    1
