@<TRIPOS>MOLECULE
*****
 19 21 0 0 0
SMALL
GASTEIGER

@<TRIPOS>ATOM
      1 C         -10.1172  -18.3837   22.0119 C.3     1  UNL1        0.0883
      2 C         -11.2180  -18.8836   21.1239 C.3     1  UNL1        0.0885
      3 N         -12.3154  -17.9553   20.6949 N.3     1  UNL1       -0.2947
      4 C         -12.3120  -16.5273   21.1538 C.3     1  UNL1        0.0903
      5 C         -11.2113  -16.0275   22.0418 C.3     1  UNL1        0.1076
      6 N         -10.1139  -16.9557   22.4708 N.pl3   1  UNL1       -0.3093
      7 H         -13.1915  -18.3662   21.0174 H       1  UNL1        0.1233
      8 C          -9.0131  -16.4559   23.3589 C.2     1  UNL1        0.0295
      9 C          -7.7256  -15.9743   22.7587 C.2     1  UNL1        0.0120
     10 C          -6.6248  -15.4744   23.6468 C.2     1  UNL1        0.0216
     11 C          -6.8117  -15.4562   25.1349 C.2     1  UNL1        0.1008
     12 N          -5.9120  -15.0229   26.2542 N.2     1  UNL1       -0.1482
     13 N          -6.6436  -15.2367   27.5461 N.2     1  UNL1       -0.1467
     14 C          -7.9954  -15.8021   27.2253 C.2     1  UNL1        0.1198
     15 C          -8.0993  -15.9378   25.7351 C.2     1  UNL1        0.0238
     16 C          -9.2000  -16.4376   24.8471 C.3     1  UNL1        0.0705
     17 C          -9.0199  -19.3120   22.4409 C.3     1  UNL1        0.0211
     18 C         -10.3337  -19.9624   24.5859 C.3     1  UNL1        0.0001
     19 C          -9.2279  -20.2304   23.6085 C.3     1  UNL1        0.0017
@<TRIPOS>BOND
     1    18    19    1
     2    19    17    1
     3    17     1    1
     4     1     2    1
     5     2     3    1
     6     3     4    1
     7     4     5    1
     8     5     6    1
     9     6     8    1
    10     8     9    2
    11     9    10    1
    12    10    11    2
    13    11    12    1
    14    12    13    2
    15    13    14    1
    16    14    15    2
    17    15    16    1
    18     6     1    1
    19    16     8    1
    20    15    11    1
    21     3     7    1
@<TRIPOS>MOLECULE
*****
 19 21 0 0 0
SMALL
GASTEIGER

@<TRIPOS>ATOM
      1 C          -9.7119  -18.3942   21.4942 C.3     1  UNL1        0.0883
      2 C         -10.5474  -18.8381   20.3301 C.3     1  UNL1        0.0885
      3 N         -11.4499  -17.8597   19.6385 N.3     1  UNL1       -0.2947
      4 C         -11.5169  -16.4376   20.1109 C.3     1  UNL1        0.0903
      5 C         -10.6814  -15.9939   21.2750 C.3     1  UNL1        0.1076
      6 N          -9.7790  -16.9722   21.9666 N.pl3   1  UNL1       -0.3093
      7 H         -12.3958  -18.2359   19.7020 H       1  UNL1        0.1233
      8 C          -8.9435  -16.5284   23.1308 C.2     1  UNL1        0.0295
      9 C          -9.5389  -16.4815   24.5066 C.2     1  UNL1        0.0120
     10 C          -8.7034  -16.0377   25.6708 C.2     1  UNL1        0.0216
     11 C          -7.2725  -15.6408   25.4588 C.2     1  UNL1        0.1008
     12 N          -6.2121  -15.1647   26.4069 N.2     1  UNL1       -0.1482
     13 N          -4.9612  -14.9174   25.6168 N.2     1  UNL1       -0.1467
     14 C          -5.2486  -15.2407   24.1805 C.2     1  UNL1        0.1198
     15 C          -6.6771  -15.6878   24.0829 C.2     1  UNL1        0.0238
     16 C          -7.5126  -16.1316   22.9188 C.3     1  UNL1        0.0705
     17 C          -8.8095  -19.3726   22.1859 C.3     1  UNL1        0.0211
     18 C         -10.6822  -19.8934   23.9099 C.3     1  UNL1        0.0001
     19 C          -9.3211  -20.1747   23.3456 C.3     1  UNL1        0.0017
@<TRIPOS>BOND
     1    18    19    1
     2    19    17    1
     3    17     1    1
     4     1     2    1
     5     2     3    1
     6     3     4    1
     7     4     5    1
     8     5     6    1
     9     6     8    1
    10     8     9    2
    11     9    10    1
    12    10    11    2
    13    11    12    1
    14    12    13    2
    15    13    14    1
    16    14    15    2
    17    15    16    1
    18     6     1    1
    19    16     8    1
    20    15    11    1
    21     3     7    1
@<TRIPOS>MOLECULE
*****
 19 21 0 0 0
SMALL
GASTEIGER

@<TRIPOS>ATOM
      1 C          -6.5906  -16.1543   23.8825 C.3     1  UNL1        0.0883
      2 C          -5.1298  -16.0074   24.1903 C.3     1  UNL1        0.0885
      3 N          -4.1449  -16.9974   23.6429 N.3     1  UNL1       -0.2947
      4 C          -4.6206  -18.1342   22.7876 C.3     1  UNL1        0.0903
      5 C          -6.0813  -18.2810   22.4798 C.3     1  UNL1        0.1076
      6 N          -7.0663  -17.2910   23.0273 N.pl3   1  UNL1       -0.3093
      7 H          -3.6673  -17.4112   24.4436 H       1  UNL1        0.1233
      8 C          -8.5271  -17.4378   22.7194 C.2     1  UNL1        0.0295
      9 C          -9.3625  -18.4131   23.4944 C.2     1  UNL1        0.0120
     10 C         -10.8233  -18.5600   23.1865 C.2     1  UNL1        0.0216
     11 C         -11.4484  -17.7314   22.1036 C.2     1  UNL1        0.1008
     12 N         -12.8520  -17.6585   21.5795 N.2     1  UNL1       -0.1482
     13 N         -12.8839  -16.6381   20.4806 N.2     1  UNL1       -0.1467
     14 C         -11.5001  -16.0803   20.3255 C.2     1  UNL1        0.1198
     15 C         -10.6129  -16.7561   21.3287 C.2     1  UNL1        0.0238
     16 C          -9.1522  -16.6093   21.6365 C.3     1  UNL1        0.0705
     17 C          -7.5756  -15.1643   24.4300 C.3     1  UNL1        0.0211
     18 C          -7.6224  -15.7573   26.9591 C.3     1  UNL1        0.0001
     19 C          -8.3483  -15.4851   25.6750 C.3     1  UNL1        0.0017
@<TRIPOS>BOND
     1    18    19    1
     2    19    17    1
     3    17     1    1
     4     1     2    1
     5     2     3    1
     6     3     4    1
     7     4     5    1
     8     5     6    1
     9     6     8    1
    10     8     9    2
    11     9    10    1
    12    10    11    2
    13    11    12    1
    14    12    13    2
    15    13    14    1
    16    14    15    2
    17    15    16    1
    18     6     1    1
    19    16     8    1
    20    15    11    1
    21     3     7    1
@<TRIPOS>MOLECULE
*****
 19 21 0 0 0
SMALL
GASTEIGER

@<TRIPOS>ATOM
      1 C          -6.2918  -16.3255   23.7998 C.3     1  UNL1        0.0883
      2 C          -4.7989  -16.4267   23.9058 C.3     1  UNL1        0.0885
      3 N          -4.0709  -17.5358   23.2059 N.3     1  UNL1       -0.2947
      4 C          -4.8357  -18.5436   22.4000 C.3     1  UNL1        0.0903
      5 C          -6.3285  -18.4423   22.2940 C.3     1  UNL1        0.1076
      6 N          -7.0565  -17.3332   22.9939 N.pl3   1  UNL1       -0.3093
      7 H          -3.5654  -18.0551   23.9236 H       1  UNL1        0.1233
      8 C          -8.5494  -17.2320   22.8879 C.2     1  UNL1        0.0295
      9 C          -9.1689  -16.3050   21.8845 C.2     1  UNL1        0.0120
     10 C         -10.6618  -16.2038   21.7785 C.2     1  UNL1        0.0216
     11 C         -11.5350  -17.0296   22.6759 C.2     1  UNL1        0.1008
     12 N         -13.0257  -17.1410   22.8004 N.2     1  UNL1       -0.1482
     13 N         -13.3274  -18.1369   23.8808 N.2     1  UNL1       -0.1467
     14 C         -12.0232  -18.6410   24.4240 C.2     1  UNL1        0.1198
     15 C         -10.9155  -17.9566   23.6793 C.2     1  UNL1        0.0238
     16 C          -9.4227  -18.0578   23.7853 C.3     1  UNL1        0.0705
     17 C          -7.0198  -15.2164   24.4997 C.3     1  UNL1        0.0211
     18 C          -6.7159  -15.5158   27.0626 C.3     1  UNL1        0.0001
     19 C          -7.6093  -15.4471   25.8596 C.3     1  UNL1        0.0017
@<TRIPOS>BOND
     1    18    19    1
     2    19    17    1
     3    17     1    1
     4     1     2    1
     5     2     3    1
     6     3     4    1
     7     4     5    1
     8     5     6    1
     9     6     8    1
    10     8     9    2
    11     9    10    1
    12    10    11    2
    13    11    12    1
    14    12    13    2
    15    13    14    1
    16    14    15    2
    17    15    16    1
    18     6     1    1
    19    16     8    1
    20    15    11    1
    21     3     7    1
@<TRIPOS>MOLECULE
*****
 19 21 0 0 0
SMALL
GASTEIGER

@<TRIPOS>ATOM
      1 C          -8.8397  -18.1388   23.3587 C.3     1  UNL1        0.0883
      2 C          -9.8575  -17.2989   24.0719 C.3     1  UNL1        0.0885
      3 N          -9.5836  -15.8468   24.3300 N.3     1  UNL1       -0.2947
      4 C          -8.2919  -15.2348   23.8750 C.3     1  UNL1        0.0903
      5 C          -7.2742  -16.0748   23.1618 C.3     1  UNL1        0.1076
      6 N          -7.5481  -17.5268   22.9037 N.pl3   1  UNL1       -0.3093
      7 H          -9.6332  -15.7128   25.3400 H       1  UNL1        0.1233
      8 C          -6.5303  -18.3668   22.1905 C.2     1  UNL1        0.0295
      9 C          -6.9482  -19.2395   21.0445 C.2     1  UNL1        0.0120
     10 C          -5.9303  -20.0795   20.3313 C.2     1  UNL1        0.0216
     11 C          -4.4946  -20.0466   20.7643 C.2     1  UNL1        0.1008
     12 N          -3.2765  -20.7594   20.2563 N.2     1  UNL1       -0.1482
     13 N          -2.1057  -20.3271   21.0884 N.2     1  UNL1       -0.1467
     14 C          -2.6002  -19.3472   22.1107 C.2     1  UNL1        0.1198
     15 C          -4.0767  -19.1737   21.9104 C.2     1  UNL1        0.0238
     16 C          -5.0945  -18.3338   22.6235 C.3     1  UNL1        0.0705
     17 C          -9.1136  -19.5908   23.1006 C.3     1  UNL1        0.0211
     18 C         -10.9310  -19.7514   21.2509 C.3     1  UNL1        0.0001
     19 C         -10.4766  -20.0291   22.6532 C.3     1  UNL1        0.0017
@<TRIPOS>BOND
     1    18    19    1
     2    19    17    1
     3    17     1    1
     4     1     2    1
     5     2     3    1
     6     3     4    1
     7     4     5    1
     8     5     6    1
     9     6     8    1
    10     8     9    2
    11     9    10    1
    12    10    11    2
    13    11    12    1
    14    12    13    2
    15    13    14    1
    16    14    15    2
    17    15    16    1
    18     6     1    1
    19    16     8    1
    20    15    11    1
    21     3     7    1
@<TRIPOS>MOLECULE
*****
 19 21 0 0 0
SMALL
GASTEIGER

@<TRIPOS>ATOM
      1 C          -6.1349  -18.4309   22.3468 C.3     1  UNL1        0.0883
      2 C          -4.6499  -18.3215   22.5286 C.3     1  UNL1        0.0885
      3 N          -4.0710  -17.1682   23.2934 N.3     1  UNL1       -0.2947
      4 C          -4.9771  -16.1245   23.8763 C.3     1  UNL1        0.0903
      5 C          -6.4620  -16.2340   23.6944 C.3     1  UNL1        0.1076
      6 N          -7.0408  -17.3873   22.9296 N.pl3   1  UNL1       -0.3093
      7 H          -3.4342  -16.6848   22.6600 H       1  UNL1        0.1233
      8 C          -8.5258  -17.4967   22.7478 C.2     1  UNL1        0.0295
      9 C          -9.3385  -18.3262   23.6971 C.2     1  UNL1        0.0120
     10 C         -10.8235  -18.4357   23.5152 C.2     1  UNL1        0.0216
     11 C         -11.4956  -17.7156   22.3839 C.2     1  UNL1        0.1008
     12 N         -12.9311  -17.6367   21.9563 N.2     1  UNL1       -0.1482
     13 N         -13.0055  -16.7583   20.7426 N.2     1  UNL1       -0.1467
     14 C         -11.6160  -16.2944   20.4202 C.2     1  UNL1        0.1198
     15 C         -10.6828  -16.8861   21.4346 C.2     1  UNL1        0.0238
     16 C          -9.1979  -16.7766   21.6165 C.3     1  UNL1        0.0705
     17 C          -6.7137  -19.5842   21.5820 C.3     1  UNL1        0.0211
     18 C          -8.2364  -19.6422   19.4776 C.3     1  UNL1        0.0001
     19 C          -6.8773  -19.4908   20.0938 C.3     1  UNL1        0.0017
@<TRIPOS>BOND
     1    18    19    1
     2    19    17    1
     3    17     1    1
     4     1     2    1
     5     2     3    1
     6     3     4    1
     7     4     5    1
     8     5     6    1
     9     6     8    1
    10     8     9    2
    11     9    10    1
    12    10    11    2
    13    11    12    1
    14    12    13    2
    15    13    14    1
    16    14    15    2
    17    15    16    1
    18     6     1    1
    19    16     8    1
    20    15    11    1
    21     3     7    1
@<TRIPOS>MOLECULE
*****
 19 21 0 0 0
SMALL
GASTEIGER

@<TRIPOS>ATOM
      1 C          -8.4661  -17.4317   23.1159 C.3     1  UNL1        0.0883
      2 C          -9.7196  -17.3203   23.9323 C.3     1  UNL1        0.0885
      3 N         -10.4570  -18.5589   24.3469 N.3     1  UNL1       -0.2947
      4 C          -9.9410  -19.9089   23.9453 C.3     1  UNL1        0.0903
      5 C          -8.6875  -20.0202   23.1290 C.3     1  UNL1        0.1076
      6 N          -7.9501  -18.7816   22.7143 N.pl3   1  UNL1       -0.3093
      7 H         -11.4010  -18.4801   23.9688 H       1  UNL1        0.1233
      8 C          -6.6965  -18.8930   21.8980 C.2     1  UNL1        0.0295
      9 C          -6.7822  -19.0258   20.4064 C.2     1  UNL1        0.0120
     10 C          -5.5287  -19.1372   19.5900 C.2     1  UNL1        0.0216
     11 C          -4.1895  -19.1158   20.2654 C.2     1  UNL1        0.1008
     12 N          -2.7924  -19.2063   19.7271 N.2     1  UNL1       -0.1482
     13 N          -1.8433  -19.1294   20.8861 N.2     1  UNL1       -0.1467
     14 C          -2.6538  -18.9914   22.1407 C.2     1  UNL1        0.1198
     15 C          -4.1039  -18.9830   21.7571 C.2     1  UNL1        0.0238
     16 C          -5.3574  -18.8716   22.5734 C.3     1  UNL1        0.0705
     17 C          -7.7286  -16.1931   22.7012 C.3     1  UNL1        0.0211
     18 C          -5.6030  -15.4489   23.9967 C.3     1  UNL1        0.0001
     19 C          -7.0753  -15.3269   23.7371 C.3     1  UNL1        0.0017
@<TRIPOS>BOND
     1    18    19    1
     2    19    17    1
     3    17     1    1
     4     1     2    1
     5     2     3    1
     6     3     4    1
     7     4     5    1
     8     5     6    1
     9     6     8    1
    10     8     9    2
    11     9    10    1
    12    10    11    2
    13    11    12    1
    14    12    13    2
    15    13    14    1
    16    14    15    2
    17    15    16    1
    18     6     1    1
    19    16     8    1
    20    15    11    1
    21     3     7    1
@<TRIPOS>MOLECULE
*****
 19 21 0 0 0
SMALL
GASTEIGER

@<TRIPOS>ATOM
      1 C          -7.1382  -17.2855   23.1213 C.3     1  UNL1        0.0883
      2 C          -8.5952  -17.3464   23.4729 C.3     1  UNL1        0.0885
      3 N          -9.3839  -18.5901   23.1884 N.3     1  UNL1       -0.2947
      4 C          -8.7157  -19.7729   22.5524 C.3     1  UNL1        0.0903
      5 C          -7.2588  -19.7120   22.2009 C.3     1  UNL1        0.1076
      6 N          -6.4701  -18.4682   22.4853 N.pl3   1  UNL1       -0.3093
      7 H         -10.1502  -18.3184   22.5725 H       1  UNL1        0.1233
      8 C          -5.0130  -18.4073   22.1338 C.2     1  UNL1        0.0295
      9 C          -3.9935  -18.1499   23.2034 C.2     1  UNL1        0.0120
     10 C          -2.5365  -18.0890   22.8518 C.2     1  UNL1        0.0216
     11 C          -2.0992  -18.2856   21.4305 C.2     1  UNL1        0.1008
     12 N          -0.7440  -18.2805   20.7876 N.2     1  UNL1       -0.1482
     13 N          -0.9260  -18.5348   19.3205 N.2     1  UNL1       -0.1467
     14 C          -2.3937  -18.6970   19.0568 C.2     1  UNL1        0.1198
     15 C          -3.1188  -18.5430   20.3608 C.2     1  UNL1        0.0238
     16 C          -4.5757  -18.6039   20.7125 C.3     1  UNL1        0.0705
     17 C          -6.3494  -16.0417   23.4058 C.3     1  UNL1        0.0211
     18 C          -5.4108  -15.3345   25.7229 C.3     1  UNL1        0.0001
     19 C          -6.5206  -15.3277   24.7138 C.3     1  UNL1        0.0017
@<TRIPOS>BOND
     1    18    19    1
     2    19    17    1
     3    17     1    1
     4     1     2    1
     5     2     3    1
     6     3     4    1
     7     4     5    1
     8     5     6    1
     9     6     8    1
    10     8     9    2
    11     9    10    1
    12    10    11    2
    13    11    12    1
    14    12    13    2
    15    13    14    1
    16    14    15    2
    17    15    16    1
    18     6     1    1
    19    16     8    1
    20    15    11    1
    21     3     7    1
@<TRIPOS>MOLECULE
*****
 19 21 0 0 0
SMALL
GASTEIGER

@<TRIPOS>ATOM
      1 C          -5.8526  -20.1038   20.5810 C.3     1  UNL1        0.0883
      2 C          -4.5070  -20.5443   20.0855 C.3     1  UNL1        0.0885
      3 N          -3.2623  -20.0760   20.7793 N.3     1  UNL1       -0.2947
      4 C          -3.3632  -19.1673   21.9685 C.3     1  UNL1        0.0903
      5 C          -4.7088  -18.7270   22.4639 C.3     1  UNL1        0.1076
      6 N          -5.9535  -19.1952   21.7701 N.pl3   1  UNL1       -0.3093
      7 H          -2.7026  -19.5863   20.0812 H       1  UNL1        0.1233
      8 C          -7.2991  -18.7548   22.2656 C.2     1  UNL1        0.0295
      9 C          -7.7436  -17.3360   22.0680 C.2     1  UNL1        0.0120
     10 C          -9.0892  -16.8955   22.5634 C.2     1  UNL1        0.0216
     11 C          -9.9903  -17.8741   23.2565 C.2     1  UNL1        0.1008
     12 N         -11.3613  -17.7312   23.8480 N.2     1  UNL1       -0.1482
     13 N         -11.7641  -19.0618   24.4113 N.2     1  UNL1       -0.1467
     14 C         -10.6421  -20.0271   24.1678 C.2     1  UNL1        0.1198
     15 C          -9.5458  -19.2931   23.4541 C.2     1  UNL1        0.0238
     16 C          -8.2002  -19.7334   22.9587 C.3     1  UNL1        0.0705
     17 C          -7.0973  -20.5721   19.8872 C.3     1  UNL1        0.0211
     18 C          -9.4559  -19.6099   19.3754 C.3     1  UNL1        0.0001
     19 C          -7.9705  -19.5874   19.1674 C.3     1  UNL1        0.0017
@<TRIPOS>BOND
     1    18    19    1
     2    19    17    1
     3    17     1    1
     4     1     2    1
     5     2     3    1
     6     3     4    1
     7     4     5    1
     8     5     6    1
     9     6     8    1
    10     8     9    2
    11     9    10    1
    12    10    11    2
    13    11    12    1
    14    12    13    2
    15    13    14    1
    16    14    15    2
    17    15    16    1
    18     6     1    1
    19    16     8    1
    20    15    11    1
    21     3     7    1
