@<TRIPOS>MOLECULE
*****
 14 15 0 0 0
SMALL
GASTEIGER

@<TRIPOS>ATOM
      1 C         -11.4340  -17.4656   23.2616 C.ar    1  UNL1        0.1337
      2 C         -11.1743  -18.6519   24.1421 C.ar    1  UNL1        0.0370
      3 C          -9.9523  -18.3617   24.9623 C.ar    1  UNL1        0.0403
      4 C          -9.4569  -16.9961   24.5887 C.ar    1  UNL1        0.1464
      5 O         -10.3726  -16.4423   23.5376 O.2     1  UNL1       -0.4568
      6 C          -8.2564  -16.3055   25.1650 C.ar    1  UNL1        0.0537
      7 C          -8.0925  -16.2027   26.6525 C.ar    1  UNL1        0.0062
      8 C          -6.8921  -15.5122   27.2287 C.ar    1  UNL1        0.0208
      9 C          -5.8555  -14.9245   26.3175 C.ar    1  UNL1        0.0989
     10 N          -6.0195  -15.0273   24.8301 N.ar    1  UNL1       -0.2422
     11 C          -7.2199  -15.7178   24.2538 C.ar    1  UNL1        0.1019
     12 C         -12.5578  -17.3270   22.2778 C.3     1  UNL1        0.1218
     13 C         -11.2229  -17.4017   20.0502 C.3     1  UNL1        0.0696
     14 S         -12.2902  -16.7852   20.9050 S.3     1  UNL1       -0.1312
@<TRIPOS>BOND
     1    13    14    1
     2    14    12    1
     3    12     1    1
     4     1     2   ar
     5     2     3   ar
     6     3     4   ar
     7     4     6    1
     8     6     7   ar
     9     7     8   ar
    10     8     9   ar
    11     9    10   ar
    12    10    11   ar
    13     4     5   ar
    14     5     1   ar
    15    11     6   ar
@<TRIPOS>MOLECULE
*****
 14 15 0 0 0
SMALL
GASTEIGER

@<TRIPOS>ATOM
      1 C          -4.0168  -19.2376   19.7122 C.ar    1  UNL1        0.1337
      2 C          -4.2620  -20.6780   20.0515 C.ar    1  UNL1        0.0370
      3 C          -5.7242  -20.8434   20.3420 C.ar    1  UNL1        0.0403
      4 C          -6.3828  -19.5051   20.1823 C.ar    1  UNL1        0.1464
      5 O          -5.3275  -18.5127   19.7930 O.2     1  UNL1       -0.4568
      6 C          -7.8407  -19.2110   20.3775 C.ar    1  UNL1        0.0537
      7 C          -8.8406  -19.6640   19.3553 C.ar    1  UNL1        0.0062
      8 C         -10.2985  -19.3699   19.5506 C.ar    1  UNL1        0.0208
      9 C         -10.7564  -18.6228   20.7680 C.ar    1  UNL1        0.0989
     10 N          -9.7564  -18.1698   21.7902 N.ar    1  UNL1       -0.2422
     11 C          -8.2986  -18.4639   21.5949 C.ar    1  UNL1        0.1019
     12 C          -2.6932  -18.6289   19.3548 C.3     1  UNL1        0.1218
     13 C          -0.6101  -17.2890   20.1393 C.3     1  UNL1        0.0696
     14 S          -2.0726  -17.6018   20.2547 S.3     1  UNL1       -0.1312
@<TRIPOS>BOND
     1    13    14    1
     2    14    12    1
     3    12     1    1
     4     1     2   ar
     5     2     3   ar
     6     3     4   ar
     7     4     6    1
     8     6     7   ar
     9     7     8   ar
    10     8     9   ar
    11     9    10   ar
    12    10    11   ar
    13     4     5   ar
    14     5     1   ar
    15    11     6   ar
@<TRIPOS>MOLECULE
*****
 14 15 0 0 0
SMALL
GASTEIGER

@<TRIPOS>ATOM
      1 C          -9.1066  -17.4376   21.9086 C.ar    1  UNL1        0.1337
      2 C          -9.3753  -18.7874   22.5051 C.ar    1  UNL1        0.0370
      3 C          -8.1064  -19.5844   22.4387 C.ar    1  UNL1        0.0403
      4 C          -7.0534  -18.7273   21.8011 C.ar    1  UNL1        0.1464
      5 O          -7.6715  -17.4004   21.4735 O.2     1  UNL1       -0.4568
      6 C          -5.6317  -19.1268   21.5375 C.ar    1  UNL1        0.0537
      7 C          -5.2965  -19.9546   20.3324 C.ar    1  UNL1        0.0062
      8 C          -3.8750  -20.3541   20.0688 C.ar    1  UNL1        0.0208
      9 C          -2.7886  -19.9258   21.0103 C.ar    1  UNL1        0.0989
     10 N          -3.1239  -19.0980   22.2154 N.ar    1  UNL1       -0.2422
     11 C          -4.5454  -18.6985   22.4790 C.ar    1  UNL1        0.1019
     12 C         -10.0987  -16.3209   21.7713 C.3     1  UNL1        0.1218
     13 C         -11.4998  -15.9066   19.6229 C.3     1  UNL1        0.0696
     14 S         -11.3564  -16.5281   20.9806 S.3     1  UNL1       -0.1312
@<TRIPOS>BOND
     1    13    14    1
     2    14    12    1
     3    12     1    1
     4     1     2   ar
     5     2     3   ar
     6     3     4   ar
     7     4     6    1
     8     6     7   ar
     9     7     8   ar
    10     8     9   ar
    11     9    10   ar
    12    10    11   ar
    13     4     5   ar
    14     5     1   ar
    15    11     6   ar
@<TRIPOS>MOLECULE
*****
 14 15 0 0 0
SMALL
GASTEIGER

@<TRIPOS>ATOM
      1 C          -6.0484  -19.2172   20.8071 C.ar    1  UNL1        0.1337
      2 C          -6.4768  -20.0281   21.9941 C.ar    1  UNL1        0.0370
      3 C          -7.8799  -19.6303   22.3451 C.ar    1  UNL1        0.0403
      4 C          -8.3185  -18.5736   21.3751 C.ar    1  UNL1        0.1464
      5 O          -7.1866  -18.3183   20.4246 O.2     1  UNL1       -0.4568
      6 C          -9.6546  -17.8918   21.3585 C.ar    1  UNL1        0.0537
      7 C         -10.0620  -17.0122   22.5032 C.ar    1  UNL1        0.0062
      8 C         -11.3980  -16.3305   22.4866 C.ar    1  UNL1        0.0208
      9 C         -12.3266  -16.5284   21.3253 C.ar    1  UNL1        0.0989
     10 N         -11.9192  -17.4080   20.1807 N.ar    1  UNL1       -0.2422
     11 C         -10.5832  -18.0897   20.1973 C.ar    1  UNL1        0.1019
     12 C          -4.7156  -19.2921   20.1228 C.3     1  UNL1        0.1218
     13 C          -2.4888  -19.7992   21.3614 C.3     1  UNL1        0.0696
     14 S          -3.4824  -18.8103   20.8278 S.3     1  UNL1       -0.1312
@<TRIPOS>BOND
     1    13    14    1
     2    14    12    1
     3    12     1    1
     4     1     2   ar
     5     2     3   ar
     6     3     4   ar
     7     4     6    1
     8     6     7   ar
     9     7     8   ar
    10     8     9   ar
    11     9    10   ar
    12    10    11   ar
    13     4     5   ar
    14     5     1   ar
    15    11     6   ar
@<TRIPOS>MOLECULE
*****
 14 15 0 0 0
SMALL
GASTEIGER

@<TRIPOS>ATOM
      1 C          -7.6121  -19.1617   20.9206 C.ar    1  UNL1        0.1337
      2 C          -7.1660  -20.0012   22.0810 C.ar    1  UNL1        0.0370
      3 C          -5.6662  -20.0043   22.1013 C.ar    1  UNL1        0.0403
      4 C          -5.1853  -19.1667   20.9535 C.ar    1  UNL1        0.1464
      5 O          -6.3879  -18.6460   20.2239 O.2     1  UNL1       -0.4568
      6 C          -3.7531  -18.8972   20.5979 C.ar    1  UNL1        0.0537
      7 C          -3.4073  -18.3412   19.2484 C.ar    1  UNL1        0.0062
      8 C          -1.9752  -18.0718   18.8929 C.ar    1  UNL1        0.0208
      9 C          -0.8889  -18.3583   19.8869 C.ar    1  UNL1        0.0989
     10 N          -1.2348  -18.9143   21.2364 N.ar    1  UNL1       -0.2422
     11 C          -2.6669  -19.1838   21.5919 C.ar    1  UNL1        0.1019
     12 C          -9.0329  -18.8863   20.5263 C.3     1  UNL1        0.1218
     13 C         -10.8842  -19.8641   22.0647 C.3     1  UNL1        0.0696
     14 S         -10.0804  -18.6930   21.5825 S.3     1  UNL1       -0.1312
@<TRIPOS>BOND
     1    13    14    1
     2    14    12    1
     3    12     1    1
     4     1     2   ar
     5     2     3   ar
     6     3     4   ar
     7     4     6    1
     8     6     7   ar
     9     7     8   ar
    10     8     9   ar
    11     9    10   ar
    12    10    11   ar
    13     4     5   ar
    14     5     1   ar
    15    11     6   ar
@<TRIPOS>MOLECULE
*****
 14 15 0 0 0
SMALL
GASTEIGER

@<TRIPOS>ATOM
      1 C          -8.7254  -16.2660   26.0048 C.ar    1  UNL1        0.1337
      2 C          -9.1625  -17.6868   26.2064 C.ar    1  UNL1        0.0370
      3 C          -9.8486  -18.1429   24.9529 C.ar    1  UNL1        0.0403
      4 C          -9.8355  -17.0041   23.9766 C.ar    1  UNL1        0.1464
      5 O          -9.1413  -15.8442   24.6267 O.2     1  UNL1       -0.4568
      6 C         -10.4148  -17.0221   22.5931 C.ar    1  UNL1        0.0537
      7 C         -11.7406  -16.3731   22.3266 C.ar    1  UNL1        0.0062
      8 C         -12.3199  -16.3912   20.9432 C.ar    1  UNL1        0.0208
      9 C         -11.5734  -17.0582   19.8261 C.ar    1  UNL1        0.0989
     10 N         -10.2476  -17.7073   20.0926 N.ar    1  UNL1       -0.2422
     11 C          -9.6684  -17.6892   21.4760 C.ar    1  UNL1        0.1019
     12 C          -7.9998  -15.4164   27.0056 C.3     1  UNL1        0.1218
     13 C          -5.6442  -15.2793   25.9183 C.3     1  UNL1        0.0696
     14 S          -6.5072  -15.5064   27.1239 S.3     1  UNL1       -0.1312
@<TRIPOS>BOND
     1    13    14    1
     2    14    12    1
     3    12     1    1
     4     1     2   ar
     5     2     3   ar
     6     3     4   ar
     7     4     6    1
     8     6     7   ar
     9     7     8   ar
    10     8     9   ar
    11     9    10   ar
    12    10    11   ar
    13     4     5   ar
    14     5     1   ar
    15    11     6   ar
@<TRIPOS>MOLECULE
*****
 14 15 0 0 0
SMALL
GASTEIGER

@<TRIPOS>ATOM
      1 C          -3.8639  -19.7086   21.1185 C.ar    1  UNL1        0.1337
      2 C          -4.6168  -20.6104   20.1858 C.ar    1  UNL1        0.0370
      3 C          -6.0799  -20.4688   20.4846 C.ar    1  UNL1        0.0403
      4 C          -6.2312  -19.4796   21.6020 C.ar    1  UNL1        0.1464
      5 O          -4.8617  -19.0098   21.9938 O.2     1  UNL1       -0.4568
      6 C          -7.5250  -19.0378   22.2192 C.ar    1  UNL1        0.0537
      7 C          -8.4348  -20.0459   22.8564 C.ar    1  UNL1        0.0062
      8 C          -9.7286  -19.6041   23.4736 C.ar    1  UNL1        0.0208
      9 C         -10.1125  -18.1542   23.4536 C.ar    1  UNL1        0.0989
     10 N          -9.2027  -17.1461   22.8165 N.ar    1  UNL1       -0.2422
     11 C          -7.9090  -17.5879   22.1993 C.ar    1  UNL1        0.1019
     12 C          -2.3746  -19.5360   21.1674 C.3     1  UNL1        0.1218
     13 C          -1.7138  -17.0839   20.6192 C.3     1  UNL1        0.0696
     14 S          -1.7049  -18.5417   20.2659 S.3     1  UNL1       -0.1312
@<TRIPOS>BOND
     1    13    14    1
     2    14    12    1
     3    12     1    1
     4     1     2   ar
     5     2     3   ar
     6     3     4   ar
     7     4     6    1
     8     6     7   ar
     9     7     8   ar
    10     8     9   ar
    11     9    10   ar
    12    10    11   ar
    13     4     5   ar
    14     5     1   ar
    15    11     6   ar
@<TRIPOS>MOLECULE
*****
 14 15 0 0 0
SMALL
GASTEIGER

@<TRIPOS>ATOM
      1 C          -8.2927  -18.3352   22.2340 C.ar    1  UNL1        0.1337
      2 C          -8.1722  -19.8036   22.5158 C.ar    1  UNL1        0.0370
      3 C          -6.7733  -20.2270   22.1784 C.ar    1  UNL1        0.0403
      4 C          -6.0293  -19.0203   21.6882 C.ar    1  UNL1        0.1464
      5 O          -6.9684  -17.8511   21.7225 O.2     1  UNL1       -0.4568
      6 C          -4.5975  -18.9883   21.2419 C.ar    1  UNL1        0.0537
      7 C          -3.4946  -18.9998   22.2585 C.ar    1  UNL1        0.0062
      8 C          -2.0629  -18.9678   21.8122 C.ar    1  UNL1        0.0208
      9 C          -1.7341  -18.9245   20.3493 C.ar    1  UNL1        0.0989
     10 N          -2.8370  -18.9131   19.3327 N.ar    1  UNL1       -0.2422
     11 C          -4.2687  -18.9450   19.7790 C.ar    1  UNL1        0.1019
     12 C          -9.5219  -17.4980   22.4294 C.3     1  UNL1        0.1218
     13 C          -8.6277  -16.3731   24.5939 C.3     1  UNL1        0.0696
     14 S          -9.7786  -16.8399   23.7526 S.3     1  UNL1       -0.1312
@<TRIPOS>BOND
     1    13    14    1
     2    14    12    1
     3    12     1    1
     4     1     2   ar
     5     2     3   ar
     6     3     4   ar
     7     4     6    1
     8     6     7   ar
     9     7     8   ar
    10     8     9   ar
    11     9    10   ar
    12    10    11   ar
    13     4     5   ar
    14     5     1   ar
    15    11     6   ar
@<TRIPOS>MOLECULE
*****
 14 15 0 0 0
SMALL
GASTEIGER

@<TRIPOS>ATOM
      1 C          -6.5922  -15.9105   24.3509 C.ar    1  UNL1        0.1337
      2 C          -7.4858  -15.4283   25.4550 C.ar    1  UNL1        0.0370
      3 C          -8.9070  -15.6659   25.0382 C.ar    1  UNL1        0.0403
      4 C          -8.8917  -16.2948   23.6765 C.ar    1  UNL1        0.1464
      5 O          -7.4611  -16.4460   23.2517 O.2     1  UNL1       -0.4568
      6 C         -10.0958  -16.7012   22.8795 C.ar    1  UNL1        0.0537
      7 C         -11.1200  -17.6166   23.4820 C.ar    1  UNL1        0.0062
      8 C         -12.3240  -18.0230   22.6850 C.ar    1  UNL1        0.0208
      9 C         -12.5038  -17.5139   21.2855 C.ar    1  UNL1        0.0989
     10 N         -11.4796  -16.5986   20.6830 N.ar    1  UNL1       -0.2422
     11 C         -10.2756  -16.1922   21.4800 C.ar    1  UNL1        0.1019
     12 C          -5.0929  -15.8652   24.3467 C.3     1  UNL1        0.1218
     13 C          -4.1797  -18.0402   23.2580 C.3     1  UNL1        0.0696
     14 S          -4.3249  -16.5473   23.2535 S.3     1  UNL1       -0.1312
@<TRIPOS>BOND
     1    13    14    1
     2    14    12    1
     3    12     1    1
     4     1     2   ar
     5     2     3   ar
     6     3     4   ar
     7     4     6    1
     8     6     7   ar
     9     7     8   ar
    10     8     9   ar
    11     9    10   ar
    12    10    11   ar
    13     4     5   ar
    14     5     1   ar
    15    11     6   ar
