@<TRIPOS>MOLECULE
*****
 36 41 0 0 0
SMALL
GASTEIGER

@<TRIPOS>ATOM
      1 C           4.3659   -2.0211   24.0542 C.3     1  UNL1        0.0749
      2 C           3.7927   -1.5240   22.7603 C.3     1  UNL1        0.0444
      3 C           4.1998   -2.1623   21.4654 C.ar    1  UNL1       -0.0101
      4 C           5.1801   -3.2977   21.4644 C.ar    1  UNL1       -0.0091
      5 C           5.5871   -3.9359   20.1694 C.ar    1  UNL1       -0.0032
      6 C           5.0140   -3.4388   18.8755 C.ar    1  UNL1        0.0010
      7 C           4.0337   -2.3034   18.8764 C.ar    1  UNL1        0.0142
      8 C           3.6267   -1.6651   20.1713 C.ar    1  UNL1        0.0437
      9 C           5.7532   -3.7948   22.7583 C.3     1  UNL1        0.0954
     10 N           5.3461   -3.1565   24.0533 N.3     1  UNL1       -0.2934
     11 H           6.1993   -2.8093   24.4914 H       1  UNL1        0.1236
     12 N           2.6464   -0.5297   20.1723 N.pl3   1  UNL1       -0.3043
     13 C           3.1351    0.8831   20.0489 C.3     1  UNL1        0.1123
     14 C           2.1549    2.0185   20.0499 C.3     1  UNL1        0.1150
     15 N           0.6859    1.7411   20.1743 N.pl3   1  UNL1       -0.2747
     16 C           0.1973    0.3283   20.2977 C.3     1  UNL1        0.1150
     17 C           1.1776   -0.8071   20.2967 C.3     1  UNL1        0.1123
     18 C          -0.2943    2.8765   20.1752 C.ar    1  UNL1        0.2203
     19 N           0.0997    4.2080   19.6078 N.ar    1  UNL1       -0.2121
     20 C          -0.8805    5.3434   19.6088 C.ar    1  UNL1        0.1034
     21 C          -2.2548    5.1472   20.1772 C.ar    1  UNL1        0.0414
     22 C          -2.6488    3.8158   20.7445 C.ar    1  UNL1        0.1034
     23 N          -1.6685    2.6804   20.7436 N.ar    1  UNL1       -0.2121
     24 C           3.9588   -1.3828   25.3492 C.3     1  UNL1        0.0886
     25 C           4.9408    1.0123   25.5712 C.3     1  UNL1        0.0899
     26 N           3.7579    0.1018   25.4231 N.3     1  UNL1       -0.2667
     27 C           2.3742    0.6760   25.3489 C.3     1  UNL1        0.0978
     28 C           1.8249    1.1415   24.0330 C.3     1  UNL1        0.0224
     29 C           0.4412    1.7158   23.9588 C.3     1  UNL1        0.0065
     30 C          -0.3933    1.8245   25.2004 C.3     1  UNL1        0.0277
     31 C           0.1559    1.3590   26.5164 C.ar    1  UNL1       -0.0073
     32 C          -0.6786    1.4677   27.7581 C.ar    1  UNL1       -0.0015
     33 C          -0.1293    1.0022   29.0739 C.ar    1  UNL1        0.0203
     34 C           1.2545    0.4280   29.1482 C.ar    1  UNL1        0.0985
     35 N           2.0889    0.3193   27.9065 N.ar    1  UNL1       -0.2471
     36 C           1.5397    0.7848   26.5906 C.ar    1  UNL1        0.0695
@<TRIPOS>BOND
     1    25    26    1
     2    26    24    1
     3     1    24    1
     4     1     2    1
     5     2     3    1
     6     3     4   ar
     7     4     5   ar
     8     5     6   ar
     9     6     7   ar
    10     7     8   ar
    11     8    12    1
    12    12    13    1
    13    13    14    1
    14    14    15    1
    15    15    18    1
    16    18    19   ar
    17    19    20   ar
    18    20    21   ar
    19    21    22   ar
    20    22    23   ar
    21    15    16    1
    22    16    17    1
    23     4     9    1
    24     9    10    1
    25    27    26    1
    26    27    28    1
    27    28    29    1
    28    29    30    1
    29    30    31    1
    30    31    32   ar
    31    32    33   ar
    32    33    34   ar
    33    34    35   ar
    34    35    36   ar
    35    10     1    1
    36    36    27    1
    37     8     3   ar
    38    17    12    1
    39    36    31   ar
    40    23    18   ar
    41    10    11    1
@<TRIPOS>MOLECULE
*****
 36 41 0 0 0
SMALL
GASTEIGER

@<TRIPOS>ATOM
      1 C           6.7989   -4.4258   24.5148 C.3     1  UNL1        0.0749
      2 C           7.1034   -4.7218   25.9534 C.3     1  UNL1        0.0444
      3 C           7.9135   -5.9313   26.3150 C.ar    1  UNL1       -0.0101
      4 C           8.4192   -6.8447   25.2380 C.ar    1  UNL1       -0.0091
      5 C           9.2294   -8.0542   25.5997 C.ar    1  UNL1       -0.0032
      6 C           9.5338   -8.3503   27.0383 C.ar    1  UNL1        0.0010
      7 C           9.0281   -7.4369   28.1153 C.ar    1  UNL1        0.0142
      8 C           8.2180   -6.2274   27.7537 C.ar    1  UNL1        0.0437
      9 C           8.1148   -6.5487   23.7994 C.3     1  UNL1        0.0954
     10 N           7.3046   -5.3392   23.4378 N.3     1  UNL1       -0.2934
     11 H           6.4872   -5.6741   22.9278 H       1  UNL1        0.1236
     12 N           7.7123   -5.3140   28.8307 N.pl3   1  UNL1       -0.3043
     13 C           7.5779   -3.8437   28.5652 C.3     1  UNL1        0.1123
     14 C           7.0722   -2.9303   29.6422 C.3     1  UNL1        0.1150
     15 N           6.7008   -3.4871   30.9846 N.pl3   1  UNL1       -0.2747
     16 C           6.8352   -4.9573   31.2500 C.3     1  UNL1        0.1150
     17 C           7.3409   -5.8707   30.1730 C.3     1  UNL1        0.1123
     18 C           6.1951   -2.5737   32.0616 C.ar    1  UNL1        0.2203
     19 N           6.9845   -1.3572   32.4451 N.ar    1  UNL1       -0.2121
     20 C           6.4788   -0.4438   33.5221 C.ar    1  UNL1        0.1034
     21 C           5.1837   -0.7469   34.2156 C.ar    1  UNL1        0.0414
     22 C           4.3943   -1.9633   33.8321 C.ar    1  UNL1        0.1034
     23 N           4.9000   -2.8768   32.7551 N.ar    1  UNL1       -0.2121
     24 C           5.9887   -3.2163   24.1531 C.3     1  UNL1        0.0886
     25 C           7.4511   -1.5564   22.7906 C.3     1  UNL1        0.0899
     26 N           6.2710   -2.4783   22.8781 N.3     1  UNL1       -0.2667
     27 C           5.3733   -2.6621   21.6906 C.3     1  UNL1        0.0978
     28 C           5.6779   -3.7256   20.6776 C.3     1  UNL1        0.0224
     29 C           4.7801   -3.9095   19.4901 C.3     1  UNL1        0.0065
     30 C           3.5778   -3.0298   19.3155 C.3     1  UNL1        0.0277
     31 C           3.2731   -1.9662   20.3285 C.ar    1  UNL1       -0.0073
     32 C           2.0708   -1.0866   20.1539 C.ar    1  UNL1       -0.0015
     33 C           1.7662   -0.0231   21.1669 C.ar    1  UNL1        0.0203
     34 C           2.6640    0.1608   22.3544 C.ar    1  UNL1        0.0985
     35 N           3.8663   -0.7189   22.5290 N.ar    1  UNL1       -0.2471
     36 C           4.1709   -1.7824   21.5160 C.ar    1  UNL1        0.0695
@<TRIPOS>BOND
     1    25    26    1
     2    26    24    1
     3     1    24    1
     4     1     2    1
     5     2     3    1
     6     3     4   ar
     7     4     5   ar
     8     5     6   ar
     9     6     7   ar
    10     7     8   ar
    11     8    12    1
    12    12    13    1
    13    13    14    1
    14    14    15    1
    15    15    18    1
    16    18    19   ar
    17    19    20   ar
    18    20    21   ar
    19    21    22   ar
    20    22    23   ar
    21    15    16    1
    22    16    17    1
    23     4     9    1
    24     9    10    1
    25    27    26    1
    26    27    28    1
    27    28    29    1
    28    29    30    1
    29    30    31    1
    30    31    32   ar
    31    32    33   ar
    32    33    34   ar
    33    34    35   ar
    34    35    36   ar
    35    10     1    1
    36    36    27    1
    37     8     3   ar
    38    17    12    1
    39    36    31   ar
    40    23    18   ar
    41    10    11    1
@<TRIPOS>MOLECULE
*****
 36 41 0 0 0
SMALL
GASTEIGER

@<TRIPOS>ATOM
      1 C           2.8062   -0.2072   24.1608 C.3     1  UNL1        0.0749
      2 C           2.3302    0.3071   25.4870 C.3     1  UNL1        0.0444
      3 C           1.2004    1.2918   25.5478 C.ar    1  UNL1       -0.0101
      4 C           0.5466    1.7623   24.2824 C.ar    1  UNL1       -0.0091
      5 C          -0.5833    2.7470   24.3433 C.ar    1  UNL1       -0.0032
      6 C          -1.0594    3.2613   25.6696 C.ar    1  UNL1        0.0010
      7 C          -0.4056    2.7908   26.9349 C.ar    1  UNL1        0.0142
      8 C           0.7243    1.8061   26.8741 C.ar    1  UNL1        0.0437
      9 C           1.0226    1.2480   22.9562 C.3     1  UNL1        0.0954
     10 N           2.1524    0.2633   22.8954 N.3     1  UNL1       -0.2934
     11 H           2.8841    0.6895   22.3267 H       1  UNL1        0.1236
     12 N           1.3781    1.3356   28.1395 N.pl3   1  UNL1       -0.3043
     13 C           1.0173   -0.0005   28.7182 C.3     1  UNL1        0.1123
     14 C           1.6711   -0.4710   29.9836 C.3     1  UNL1        0.1150
     15 N           2.6857    0.3946   30.6702 N.pl3   1  UNL1       -0.2747
     16 C           3.0464    1.7306   30.0915 C.3     1  UNL1        0.1150
     17 C           2.3926    2.2011   28.8261 C.3     1  UNL1        0.1123
     18 C           3.3395   -0.0759   31.9356 C.ar    1  UNL1        0.2203
     19 N           3.6298    0.8998   33.0374 N.ar    1  UNL1       -0.2121
     20 C           4.2836    0.4293   34.3028 C.ar    1  UNL1        0.1034
     21 C           4.6471   -1.0168   34.4664 C.ar    1  UNL1        0.0414
     22 C           4.3567   -1.9924   33.3646 C.ar    1  UNL1        0.1034
     23 N           3.7029   -1.5219   32.0992 N.ar    1  UNL1       -0.2121
     24 C           3.9361   -1.1920   24.0999 C.3     1  UNL1        0.0886
     25 C           6.1847   -0.3975   23.0690 C.3     1  UNL1        0.0899
     26 N           4.8981   -1.1595   22.9495 N.3     1  UNL1       -0.2667
     27 C           4.5737   -1.8889   21.6796 C.3     1  UNL1        0.0978
     28 C           4.5964   -3.3884   21.6492 C.3     1  UNL1        0.0224
     29 C           4.2719   -4.1178   20.3793 C.3     1  UNL1        0.0065
     30 C           3.9247   -3.3477   19.1398 C.3     1  UNL1        0.0277
     31 C           3.9020   -1.8481   19.1702 C.ar    1  UNL1       -0.0073
     32 C           3.5548   -1.0781   17.9307 C.ar    1  UNL1       -0.0015
     33 C           3.5320    0.4214   17.9611 C.ar    1  UNL1        0.0203
     34 C           3.8565    1.1508   19.2310 C.ar    1  UNL1        0.0985
     35 N           4.2037    0.3808   20.4705 N.ar    1  UNL1       -0.2471
     36 C           4.2264   -1.1187   20.4401 C.ar    1  UNL1        0.0695
@<TRIPOS>BOND
     1    25    26    1
     2    26    24    1
     3     1    24    1
     4     1     2    1
     5     2     3    1
     6     3     4   ar
     7     4     5   ar
     8     5     6   ar
     9     6     7   ar
    10     7     8   ar
    11     8    12    1
    12    12    13    1
    13    13    14    1
    14    14    15    1
    15    15    18    1
    16    18    19   ar
    17    19    20   ar
    18    20    21   ar
    19    21    22   ar
    20    22    23   ar
    21    15    16    1
    22    16    17    1
    23     4     9    1
    24     9    10    1
    25    27    26    1
    26    27    28    1
    27    28    29    1
    28    29    30    1
    29    30    31    1
    30    31    32   ar
    31    32    33   ar
    32    33    34   ar
    33    34    35   ar
    34    35    36   ar
    35    10     1    1
    36    36    27    1
    37     8     3   ar
    38    17    12    1
    39    36    31   ar
    40    23    18   ar
    41    10    11    1
@<TRIPOS>MOLECULE
*****
 36 41 0 0 0
SMALL
GASTEIGER

@<TRIPOS>ATOM
      1 C           1.8649    3.3216   33.9813 C.3     1  UNL1        0.0749
      2 C           2.8366    2.2137   34.2612 C.3     1  UNL1        0.0444
      3 C           3.3645    2.0124   35.6507 C.ar    1  UNL1       -0.0101
      4 C           2.9207    2.9190   36.7603 C.ar    1  UNL1       -0.0091
      5 C           3.4487    2.7177   38.1498 C.ar    1  UNL1       -0.0032
      6 C           4.4204    1.6098   38.4297 C.ar    1  UNL1        0.0010
      7 C           4.8642    0.7032   37.3201 C.ar    1  UNL1        0.0142
      8 C           4.3363    0.9045   35.9306 C.ar    1  UNL1        0.0437
      9 C           1.9490    4.0269   36.4804 C.3     1  UNL1        0.0954
     10 N           1.4211    4.2281   35.0909 N.3     1  UNL1       -0.2934
     11 H           1.6735    5.1770   34.8146 H       1  UNL1        0.1236
     12 N           4.7800   -0.0021   34.8210 N.pl3   1  UNL1       -0.3043
     13 C           4.0660   -1.2994   34.5815 C.3     1  UNL1        0.1123
     14 C           4.5098   -2.2060   33.4719 C.3     1  UNL1        0.1150
     15 N           5.6676   -1.8152   32.6018 N.pl3   1  UNL1       -0.2747
     16 C           6.3815   -0.5180   32.8414 C.3     1  UNL1        0.1150
     17 C           5.9377    0.3886   33.9509 C.3     1  UNL1        0.1123
     18 C           6.1113   -2.7218   31.4923 C.ar    1  UNL1        0.2203
     19 N           6.5934   -4.1077   31.8035 N.ar    1  UNL1       -0.2121
     20 C           7.0372   -5.0143   30.6939 C.ar    1  UNL1        0.1034
     21 C           6.9989   -4.5349   29.2731 C.ar    1  UNL1        0.0414
     22 C           6.5168   -3.1491   28.9618 C.ar    1  UNL1        0.1034
     23 N           6.0730   -2.2425   30.0714 N.ar    1  UNL1       -0.2121
     24 C           1.3369    3.5229   32.5917 C.3     1  UNL1        0.0886
     25 C           3.3572    4.1386   31.0786 C.3     1  UNL1        0.0899
     26 N           2.2100    3.2298   31.4079 N.3     1  UNL1       -0.2667
     27 C           1.9362    2.0280   30.5531 C.3     1  UNL1        0.0978
     28 C           2.5085    0.6936   30.9298 C.3     1  UNL1        0.0224
     29 C           2.2347   -0.5082   30.0751 C.3     1  UNL1        0.0065
     30 C           1.3885   -0.3757   28.8437 C.3     1  UNL1        0.0277
     31 C           0.8161    0.9587   28.4670 C.ar    1  UNL1       -0.0073
     32 C          -0.0301    1.0912   27.2356 C.ar    1  UNL1       -0.0015
     33 C          -0.6024    2.4255   26.8589 C.ar    1  UNL1        0.0203
     34 C          -0.3286    3.6274   27.7136 C.ar    1  UNL1        0.0985
     35 N           0.5176    3.4949   28.9450 N.ar    1  UNL1       -0.2471
     36 C           1.0899    2.1605   29.3217 C.ar    1  UNL1        0.0695
@<TRIPOS>BOND
     1    25    26    1
     2    26    24    1
     3     1    24    1
     4     1     2    1
     5     2     3    1
     6     3     4   ar
     7     4     5   ar
     8     5     6   ar
     9     6     7   ar
    10     7     8   ar
    11     8    12    1
    12    12    13    1
    13    13    14    1
    14    14    15    1
    15    15    18    1
    16    18    19   ar
    17    19    20   ar
    18    20    21   ar
    19    21    22   ar
    20    22    23   ar
    21    15    16    1
    22    16    17    1
    23     4     9    1
    24     9    10    1
    25    27    26    1
    26    27    28    1
    27    28    29    1
    28    29    30    1
    29    30    31    1
    30    31    32   ar
    31    32    33   ar
    32    33    34   ar
    33    34    35   ar
    34    35    36   ar
    35    10     1    1
    36    36    27    1
    37     8     3   ar
    38    17    12    1
    39    36    31   ar
    40    23    18   ar
    41    10    11    1
@<TRIPOS>MOLECULE
*****
 36 41 0 0 0
SMALL
GASTEIGER

@<TRIPOS>ATOM
      1 C           7.5431   -3.4021   22.8160 C.3     1  UNL1        0.0749
      2 C           7.6892   -3.9774   24.1935 C.3     1  UNL1        0.0444
      3 C           8.3047   -5.3327   24.3788 C.ar    1  UNL1       -0.0101
      4 C           8.7741   -6.1126   23.1865 C.ar    1  UNL1       -0.0091
      5 C           9.3896   -7.4679   23.3718 C.ar    1  UNL1       -0.0032
      6 C           9.5358   -8.0433   24.7493 C.ar    1  UNL1        0.0010
      7 C           9.0664   -7.2634   25.9416 C.ar    1  UNL1        0.0142
      8 C           8.4509   -5.9081   25.7563 C.ar    1  UNL1        0.0437
      9 C           8.6279   -5.5372   21.8090 C.3     1  UNL1        0.0954
     10 N           8.0124   -4.1820   21.6238 N.3     1  UNL1       -0.2934
     11 H           7.2027   -4.3069   21.0162 H       1  UNL1        0.1236
     12 N           7.9816   -5.1282   26.9486 N.pl3   1  UNL1       -0.3043
     13 C           8.8183   -4.0058   27.4874 C.3     1  UNL1        0.1123
     14 C           8.3489   -3.2259   28.6796 C.3     1  UNL1        0.1150
     15 N           7.0428   -3.5684   29.3331 N.pl3   1  UNL1       -0.2747
     16 C           6.2062   -4.6907   28.7942 C.3     1  UNL1        0.1150
     17 C           6.6755   -5.4706   27.6020 C.3     1  UNL1        0.1123
     18 C           6.5735   -2.7885   30.5253 C.ar    1  UNL1        0.2203
     19 N           6.5569   -1.2892   30.4816 N.ar    1  UNL1       -0.2121
     20 C           6.0875   -0.5093   31.6738 C.ar    1  UNL1        0.1034
     21 C           5.6347   -1.2287   32.9098 C.ar    1  UNL1        0.0414
     22 C           5.6514   -2.7279   32.9535 C.ar    1  UNL1        0.1034
     23 N           6.1207   -3.5078   31.7612 N.ar    1  UNL1       -0.2121
     24 C           6.9275   -2.0467   22.6307 C.3     1  UNL1        0.0886
     25 C           4.5791   -1.2323   23.3870 C.3     1  UNL1        0.0899
     26 N           5.4539   -1.9200   22.3810 N.3     1  UNL1       -0.2667
     27 C           4.8550   -2.4811   21.1254 C.3     1  UNL1        0.0978
     28 C           4.4351   -3.9201   21.0728 C.3     1  UNL1        0.0224
     29 C           3.8361   -4.4812   19.8172 C.3     1  UNL1        0.0065
     30 C           3.6571   -3.6032   18.6143 C.3     1  UNL1        0.0277
     31 C           4.0770   -2.1641   18.6669 C.ar    1  UNL1       -0.0073
     32 C           3.8980   -1.2861   17.4640 C.ar    1  UNL1       -0.0015
     33 C           4.3179    0.1529   17.5167 C.ar    1  UNL1        0.0203
     34 C           4.9168    0.7140   18.7722 C.ar    1  UNL1        0.0985
     35 N           5.0959   -0.1640   19.9752 N.ar    1  UNL1       -0.2471
     36 C           4.6760   -1.6030   19.9225 C.ar    1  UNL1        0.0695
@<TRIPOS>BOND
     1    25    26    1
     2    26    24    1
     3     1    24    1
     4     1     2    1
     5     2     3    1
     6     3     4   ar
     7     4     5   ar
     8     5     6   ar
     9     6     7   ar
    10     7     8   ar
    11     8    12    1
    12    12    13    1
    13    13    14    1
    14    14    15    1
    15    15    18    1
    16    18    19   ar
    17    19    20   ar
    18    20    21   ar
    19    21    22   ar
    20    22    23   ar
    21    15    16    1
    22    16    17    1
    23     4     9    1
    24     9    10    1
    25    27    26    1
    26    27    28    1
    27    28    29    1
    28    29    30    1
    29    30    31    1
    30    31    32   ar
    31    32    33   ar
    32    33    34   ar
    33    34    35   ar
    34    35    36   ar
    35    10     1    1
    36    36    27    1
    37     8     3   ar
    38    17    12    1
    39    36    31   ar
    40    23    18   ar
    41    10    11    1
@<TRIPOS>MOLECULE
*****
 36 41 0 0 0
SMALL
GASTEIGER

@<TRIPOS>ATOM
      1 C           5.5749   -1.5902   28.0137 C.3     1  UNL1        0.0749
      2 C           5.7330   -1.9150   29.4695 C.3     1  UNL1        0.0444
      3 C           6.3650   -3.2105   29.8846 C.ar    1  UNL1       -0.0101
      4 C           6.8389   -4.1812   28.8438 C.ar    1  UNL1       -0.0091
      5 C           7.4709   -5.4767   29.2589 C.ar    1  UNL1       -0.0032
      6 C           7.6291   -5.8015   30.7147 C.ar    1  UNL1        0.0010
      7 C           7.1552   -4.8308   31.7555 C.ar    1  UNL1        0.0142
      8 C           6.5232   -3.5354   31.3404 C.ar    1  UNL1        0.0437
      9 C           6.6808   -3.8564   27.3879 C.3     1  UNL1        0.0954
     10 N           6.0488   -2.5609   26.9729 N.3     1  UNL1       -0.2934
     11 H           5.2382   -2.7986   26.4012 H       1  UNL1        0.1236
     12 N           6.0493   -2.5647   32.3812 N.pl3   1  UNL1       -0.3043
     13 C           4.6548   -2.6685   32.9240 C.3     1  UNL1        0.1123
     14 C           4.1809   -1.6978   33.9648 C.3     1  UNL1        0.1150
     15 N           5.1016   -0.6233   34.4628 N.pl3   1  UNL1       -0.2747
     16 C           6.4961   -0.5196   33.9200 C.3     1  UNL1        0.1150
     17 C           6.9699   -1.4902   32.8792 C.3     1  UNL1        0.1123
     18 C           4.6277    0.3473   35.5036 C.ar    1  UNL1        0.2203
     19 N           3.6758    1.4442   35.1282 N.ar    1  UNL1       -0.2121
     20 C           3.2019    2.4148   36.1690 C.ar    1  UNL1        0.1034
     21 C           3.6800    2.2887   37.5852 C.ar    1  UNL1        0.0414
     22 C           4.6319    1.1919   37.9606 C.ar    1  UNL1        0.1034
     23 N           5.1057    0.2212   36.9198 N.ar    1  UNL1       -0.2121
     24 C           4.9429   -0.2947   27.5986 C.3     1  UNL1        0.0886
     25 C           2.4813   -0.6521   28.3492 C.3     1  UNL1        0.0899
     26 N           3.4734   -0.2379   27.3030 N.3     1  UNL1       -0.2667
     27 C           2.9959    0.2331   25.9613 C.3     1  UNL1        0.0978
     28 C           2.1729    1.4825   25.8543 C.3     1  UNL1        0.0224
     29 C           1.6955    1.9535   24.5126 C.3     1  UNL1        0.0065
     30 C           2.0409    1.1750   23.2779 C.3     1  UNL1        0.0277
     31 C           2.8640   -0.0746   23.3848 C.ar    1  UNL1       -0.0073
     32 C           3.2095   -0.8531   22.1501 C.ar    1  UNL1       -0.0015
     33 C           4.0324   -2.1025   22.2572 C.ar    1  UNL1        0.0203
     34 C           4.5099   -2.5735   23.5989 C.ar    1  UNL1        0.0985
     35 N           4.1644   -1.7950   24.8336 N.ar    1  UNL1       -0.2471
     36 C           3.3415   -0.5455   24.7266 C.ar    1  UNL1        0.0695
@<TRIPOS>BOND
     1    25    26    1
     2    26    24    1
     3     1    24    1
     4     1     2    1
     5     2     3    1
     6     3     4   ar
     7     4     5   ar
     8     5     6   ar
     9     6     7   ar
    10     7     8   ar
    11     8    12    1
    12    12    13    1
    13    13    14    1
    14    14    15    1
    15    15    18    1
    16    18    19   ar
    17    19    20   ar
    18    20    21   ar
    19    21    22   ar
    20    22    23   ar
    21    15    16    1
    22    16    17    1
    23     4     9    1
    24     9    10    1
    25    27    26    1
    26    27    28    1
    27    28    29    1
    28    29    30    1
    29    30    31    1
    30    31    32   ar
    31    32    33   ar
    32    33    34   ar
    33    34    35   ar
    34    35    36   ar
    35    10     1    1
    36    36    27    1
    37     8     3   ar
    38    17    12    1
    39    36    31   ar
    40    23    18   ar
    41    10    11    1
@<TRIPOS>MOLECULE
*****
 36 41 0 0 0
SMALL
GASTEIGER

@<TRIPOS>ATOM
      1 C           7.9387   -3.1025   23.1819 C.3     1  UNL1        0.0749
      2 C           8.0651   -3.7573   24.5254 C.3     1  UNL1        0.0444
      3 C           8.5309   -5.1796   24.6257 C.ar    1  UNL1       -0.0101
      4 C           8.8703   -5.9470   23.3824 C.ar    1  UNL1       -0.0091
      5 C           9.3361   -7.3694   23.4827 C.ar    1  UNL1       -0.0032
      6 C           9.4625   -8.0242   24.8263 C.ar    1  UNL1        0.0010
      7 C           9.1231   -7.2567   26.0696 C.ar    1  UNL1        0.0142
      8 C           8.6573   -5.8344   25.9693 C.ar    1  UNL1        0.0437
      9 C           8.7439   -5.2922   22.0388 C.3     1  UNL1        0.0954
     10 N           8.2781   -3.8699   21.9386 N.3     1  UNL1       -0.2934
     11 H           7.4397   -3.8749   21.3576 H       1  UNL1        0.1236
     12 N           8.3180   -5.0670   27.2126 N.pl3   1  UNL1       -0.3043
     13 C           6.9297   -5.1299   27.7774 C.3     1  UNL1        0.1123
     14 C           6.5903   -4.3624   29.0207 C.3     1  UNL1        0.1150
     15 N           7.6392   -3.5320   29.6992 N.pl3   1  UNL1       -0.2747
     16 C           9.0274   -3.4691   29.1345 C.3     1  UNL1        0.1150
     17 C           9.3668   -4.2366   27.8912 C.3     1  UNL1        0.1123
     18 C           7.2999   -2.7645   30.9425 C.ar    1  UNL1        0.2203
     19 N           5.9414   -2.9046   31.5630 N.ar    1  UNL1       -0.2121
     20 C           5.6020   -2.1371   32.8064 C.ar    1  UNL1        0.1034
     21 C           6.6211   -1.2295   33.4291 C.ar    1  UNL1        0.0414
     22 C           7.9795   -1.0895   32.8086 C.ar    1  UNL1        0.1034
     23 N           8.3189   -1.8569   31.5653 N.ar    1  UNL1       -0.2121
     24 C           7.4729   -1.6801   23.0816 C.3     1  UNL1        0.0886
     25 C           8.0812   -0.5124   20.8418 C.3     1  UNL1        0.0899
     26 N           7.0567   -1.1191   21.7542 N.3     1  UNL1       -0.2667
     27 C           5.6160   -1.1646   21.3392 C.3     1  UNL1        0.0978
     28 C           4.6838   -0.0612   21.7435 C.3     1  UNL1        0.0224
     29 C           3.2430   -0.1067   21.3285 C.3     1  UNL1        0.0065
     30 C           2.7345   -1.2556   20.5092 C.3     1  UNL1        0.0277
     31 C           3.6667   -2.3591   20.1048 C.ar    1  UNL1       -0.0073
     32 C           3.1582   -3.5080   19.2855 C.ar    1  UNL1       -0.0015
     33 C           4.0904   -4.6114   18.8812 C.ar    1  UNL1        0.0203
     34 C           5.5311   -4.5659   19.2962 C.ar    1  UNL1        0.0985
     35 N           6.0396   -3.4170   20.1155 N.ar    1  UNL1       -0.2471
     36 C           5.1074   -2.3136   20.5198 C.ar    1  UNL1        0.0695
@<TRIPOS>BOND
     1    25    26    1
     2    26    24    1
     3     1    24    1
     4     1     2    1
     5     2     3    1
     6     3     4   ar
     7     4     5   ar
     8     5     6   ar
     9     6     7   ar
    10     7     8   ar
    11     8    12    1
    12    12    13    1
    13    13    14    1
    14    14    15    1
    15    15    18    1
    16    18    19   ar
    17    19    20   ar
    18    20    21   ar
    19    21    22   ar
    20    22    23   ar
    21    15    16    1
    22    16    17    1
    23     4     9    1
    24     9    10    1
    25    27    26    1
    26    27    28    1
    27    28    29    1
    28    29    30    1
    29    30    31    1
    30    31    32   ar
    31    32    33   ar
    32    33    34   ar
    33    34    35   ar
    34    35    36   ar
    35    10     1    1
    36    36    27    1
    37     8     3   ar
    38    17    12    1
    39    36    31   ar
    40    23    18   ar
    41    10    11    1
@<TRIPOS>MOLECULE
*****
 36 41 0 0 0
SMALL
GASTEIGER

@<TRIPOS>ATOM
      1 C           1.1991    0.6339   20.9674 C.3     1  UNL1        0.0749
      2 C           2.4746   -0.1386   21.1297 C.3     1  UNL1        0.0444
      3 C           3.2915   -0.4993   19.9245 C.ar    1  UNL1       -0.0101
      4 C           2.8330   -0.0874   18.5570 C.ar    1  UNL1       -0.0091
      5 C           3.6500   -0.4481   17.3518 C.ar    1  UNL1       -0.0032
      6 C           4.9254   -1.2206   17.5141 C.ar    1  UNL1        0.0010
      7 C           5.3840   -1.6324   18.8816 C.ar    1  UNL1        0.0142
      8 C           4.5671   -1.2718   20.0868 C.ar    1  UNL1        0.0437
      9 C           1.5575    0.6851   18.3947 C.3     1  UNL1        0.0954
     10 N           0.7406    1.0457   19.5999 N.3     1  UNL1       -0.2934
     11 H          -0.1831    0.6353   19.4630 H       1  UNL1        0.1236
     12 N           5.0256   -1.6837   21.4543 N.pl3   1  UNL1       -0.3043
     13 C           4.6432   -3.0274   22.0005 C.3     1  UNL1        0.1123
     14 C           5.1017   -3.4393   23.3680 C.3     1  UNL1        0.1150
     15 N           5.9427   -2.5074   24.1894 N.pl3   1  UNL1       -0.2747
     16 C           6.3251   -1.1638   23.6432 C.3     1  UNL1        0.1150
     17 C           5.8665   -0.7519   22.2756 C.3     1  UNL1        0.1123
     18 C           6.4012   -2.9193   25.5569 C.ar    1  UNL1        0.2203
     19 N           6.7170   -4.3581   25.8403 N.ar    1  UNL1       -0.2121
     20 C           7.1755   -4.7700   27.2078 C.ar    1  UNL1        0.1034
     21 C           7.3183   -3.7430   28.2919 C.ar    1  UNL1        0.0414
     22 C           7.0026   -2.3043   28.0084 C.ar    1  UNL1        0.1034
     23 N           6.5441   -1.8925   26.6409 N.ar    1  UNL1       -0.2121
     24 C           0.3822    0.9945   22.1726 C.3     1  UNL1        0.0886
     25 C           1.7716    3.1396   22.6397 C.3     1  UNL1        0.0899
     26 N           0.8764    2.0397   23.1283 N.3     1  UNL1       -0.2667
     27 C           0.4754    1.9849   24.5727 C.3     1  UNL1        0.0978
     28 C          -0.7661    2.6893   25.0336 C.3     1  UNL1        0.0224
     29 C          -1.1671    2.6345   26.4780 C.3     1  UNL1        0.0065
     30 C          -0.3266    1.8754   27.4615 C.3     1  UNL1        0.0277
     31 C           0.9150    1.1710   27.0006 C.ar    1  UNL1       -0.0073
     32 C           1.7556    0.4119   27.9840 C.ar    1  UNL1       -0.0015
     33 C           2.9971   -0.2924   27.5231 C.ar    1  UNL1        0.0203
     34 C           3.3980   -0.2377   26.0787 C.ar    1  UNL1        0.0985
     35 N           2.5575    0.5214   25.0953 N.ar    1  UNL1       -0.2471
     36 C           1.3160    1.2258   25.5562 C.ar    1  UNL1        0.0695
@<TRIPOS>BOND
     1    25    26    1
     2    26    24    1
     3     1    24    1
     4     1     2    1
     5     2     3    1
     6     3     4   ar
     7     4     5   ar
     8     5     6   ar
     9     6     7   ar
    10     7     8   ar
    11     8    12    1
    12    12    13    1
    13    13    14    1
    14    14    15    1
    15    15    18    1
    16    18    19   ar
    17    19    20   ar
    18    20    21   ar
    19    21    22   ar
    20    22    23   ar
    21    15    16    1
    22    16    17    1
    23     4     9    1
    24     9    10    1
    25    27    26    1
    26    27    28    1
    27    28    29    1
    28    29    30    1
    29    30    31    1
    30    31    32   ar
    31    32    33   ar
    32    33    34   ar
    33    34    35   ar
    34    35    36   ar
    35    10     1    1
    36    36    27    1
    37     8     3   ar
    38    17    12    1
    39    36    31   ar
    40    23    18   ar
    41    10    11    1
@<TRIPOS>MOLECULE
*****
 36 41 0 0 0
SMALL
GASTEIGER

@<TRIPOS>ATOM
      1 C           1.1594    0.9806   21.4562 C.3     1  UNL1        0.0749
      2 C           2.3691    0.0950   21.4083 C.3     1  UNL1        0.0444
      3 C           2.9673   -0.2865   20.0867 C.ar    1  UNL1       -0.0101
      4 C           2.3558    0.2176   18.8131 C.ar    1  UNL1       -0.0091
      5 C           2.9541   -0.1640   17.4915 C.ar    1  UNL1       -0.0032
      6 C           4.1638   -1.0496   17.4436 C.ar    1  UNL1        0.0010
      7 C           4.7753   -1.5536   18.7172 C.ar    1  UNL1        0.0142
      8 C           4.1770   -1.1721   20.0387 C.ar    1  UNL1        0.0437
      9 C           1.1462    1.1032   18.8611 C.3     1  UNL1        0.0954
     10 N           0.5479    1.4847   20.1826 N.3     1  UNL1       -0.2934
     11 H          -0.4194    1.1613   20.1723 H       1  UNL1        0.1236
     12 N           4.7885   -1.6762   21.3123 N.pl3   1  UNL1       -0.3043
     13 C           4.4239   -3.0349   21.8329 C.3     1  UNL1        0.1123
     14 C           5.0353   -3.5390   23.1065 C.3     1  UNL1        0.1150
     15 N           6.0114   -2.6844   23.8595 N.pl3   1  UNL1       -0.2747
     16 C           6.3760   -1.3257   23.3388 C.3     1  UNL1        0.1150
     17 C           5.7646   -0.8216   22.0653 C.3     1  UNL1        0.1123
     18 C           6.6229   -3.1884   25.1331 C.ar    1  UNL1        0.2203
     19 N           7.1072   -2.2170   26.1684 N.ar    1  UNL1       -0.2121
     20 C           7.7186   -2.7210   27.4420 C.ar    1  UNL1        0.1034
     21 C           7.8458   -4.1966   27.6802 C.ar    1  UNL1        0.0414
     22 C           7.3616   -5.1679   26.6449 C.ar    1  UNL1        0.1034
     23 N           6.7501   -4.6639   25.3713 N.ar    1  UNL1       -0.2121
     24 C           0.5611    1.3622   22.7778 C.3     1  UNL1        0.0886
     25 C           1.1655    3.8888   22.8129 C.3     1  UNL1        0.0899
     26 N           0.1738    2.7869   23.0424 N.3     1  UNL1       -0.2667
     27 C          -1.2052    3.1099   23.5365 C.3     1  UNL1        0.0978
     28 C          -1.4542    3.2822   25.0056 C.3     1  UNL1        0.0224
     29 C          -2.8332    3.6052   25.4997 C.3     1  UNL1        0.0065
     30 C          -3.9631    3.7559   24.5248 C.3     1  UNL1        0.0277
     31 C          -3.7140    3.5836   23.0556 C.ar    1  UNL1       -0.0073
     32 C          -4.8439    3.7343   22.0807 C.ar    1  UNL1       -0.0015
     33 C          -4.5949    3.5619   20.6116 C.ar    1  UNL1        0.0203
     34 C          -3.2159    3.2390   20.1175 C.ar    1  UNL1        0.0985
     35 N          -2.0860    3.0883   21.0924 N.ar    1  UNL1       -0.2471
     36 C          -2.3351    3.2606   22.5615 C.ar    1  UNL1        0.0695
@<TRIPOS>BOND
     1    25    26    1
     2    26    24    1
     3     1    24    1
     4     1     2    1
     5     2     3    1
     6     3     4   ar
     7     4     5   ar
     8     5     6   ar
     9     6     7   ar
    10     7     8   ar
    11     8    12    1
    12    12    13    1
    13    13    14    1
    14    14    15    1
    15    15    18    1
    16    18    19   ar
    17    19    20   ar
    18    20    21   ar
    19    21    22   ar
    20    22    23   ar
    21    15    16    1
    22    16    17    1
    23     4     9    1
    24     9    10    1
    25    27    26    1
    26    27    28    1
    27    28    29    1
    28    29    30    1
    29    30    31    1
    30    31    32   ar
    31    32    33   ar
    32    33    34   ar
    33    34    35   ar
    34    35    36   ar
    35    10     1    1
    36    36    27    1
    37     8     3   ar
    38    17    12    1
    39    36    31   ar
    40    23    18   ar
    41    10    11    1
