@<TRIPOS>MOLECULE
*****
 29 32 0 0 0
SMALL
GASTEIGER

@<TRIPOS>ATOM
      1 N          -8.6700  -18.7612   20.7724 N.am    1  UNL1       -0.2723
      2 C         -10.0719  -19.0272   20.3099 C.2     1  UNL1        0.2685
      3 O         -10.3171  -19.9413   19.1461 O.2     1  UNL1       -0.2682
      4 C          -8.4249  -17.8471   21.9361 C.3     1  UNL1        0.0761
      5 C          -7.7968  -16.4865   21.8716 C.3     1  UNL1        0.0213
      6 C          -7.7486  -15.9316   23.2643 C.3     1  UNL1        0.0188
      7 C          -7.3306  -14.7478   24.0852 C.3     1  UNL1        0.0686
      8 N          -7.6706  -15.0338   25.5178 N.3     1  UNL1       -0.2975
      9 C          -8.2988  -16.3944   25.5824 C.3     1  UNL1        0.0686
     10 C          -8.3470  -16.9493   24.1897 C.3     1  UNL1        0.0188
     11 C          -8.7650  -18.1331   23.3688 C.3     1  UNL1        0.0213
     12 H          -8.3258  -14.3333   25.8646 H       1  UNL1        0.1232
     13 C         -11.2287  -18.3791   21.0111 C.ar    1  UNL1        0.1535
     14 C         -11.8237  -18.8141   22.3176 C.ar    1  UNL1        0.1012
     15 N         -12.9563  -17.8861   22.6430 N.ar    1  UNL1       -0.3057
     16 C         -13.8305  -17.9546   23.8600 C.3     1  UNL1        0.1321
     17 C         -13.0614  -16.8776   21.5376 C.ar    1  UNL1        0.1787
     18 N         -11.9937  -17.1823   20.5291 N.ar    1  UNL1       -0.2192
     19 C          -7.5132  -19.4093   20.0710 C.3     1  UNL1        0.1205
     20 C          -3.6248  -18.7045   20.4358 C.ar    1  UNL1        0.1381
     21 C          -3.3841  -19.1646   21.8431 C.ar    1  UNL1        0.0369
     22 C          -4.5198  -19.7064   22.6596 C.ar    1  UNL1        0.0028
     23 C          -5.8961  -19.7879   22.0690 C.ar    1  UNL1       -0.0024
     24 C          -6.1369  -19.3277   20.6617 C.ar    1  UNL1        0.0007
     25 C          -5.0011  -18.7860   19.8451 C.ar    1  UNL1        0.0343
     26 O          -2.4891  -18.1627   19.6193 O.3     1  UNL1       -0.4792
     27 C           0.0402  -17.6818   19.9683 C.3     1  UNL1        0.0472
     28 C          -1.3952  -17.3796   20.2826 C.3     1  UNL1        0.1661
     29 C          -1.7364  -16.2944   21.2603 C.3     1  UNL1        0.0472
@<TRIPOS>BOND
     1    27    28    1
     2    28    29    1
     3    28    26    1
     4    26    20    1
     5    20    21   ar
     6    21    22   ar
     7    22    23   ar
     8    23    24   ar
     9    24    19    1
    10    19     1    1
    11     1     2   am
    12     2     3    2
    13     2    13    1
    14    13    14   ar
    15    14    15   ar
    16    15    16    1
    17    15    17   ar
    18    17    18   ar
    19     4     1    1
    20     4     5    1
    21     6     5    1
    22     6     7    1
    23     7     8    1
    24     8     9    1
    25    10     9    1
    26    10    11    1
    27    24    25   ar
    28    25    20   ar
    29    18    13   ar
    30    11     4    1
    31    10     6    1
    32     8    12    1
@<TRIPOS>MOLECULE
*****
 29 32 0 0 0
SMALL
GASTEIGER

@<TRIPOS>ATOM
      1 N          -6.5743  -19.8432   21.8294 N.am    1  UNL1       -0.2723
      2 C          -5.6260  -20.2703   20.7485 C.2     1  UNL1        0.2685
      3 O          -5.8100  -21.5952   20.0697 O.2     1  UNL1       -0.2682
      4 C          -6.3903  -18.5183   22.5081 C.3     1  UNL1        0.0761
      5 C          -7.4242  -17.4382   22.6288 C.3     1  UNL1        0.0213
      6 C          -6.8129  -16.2932   23.3806 C.3     1  UNL1        0.0188
      7 C          -7.0742  -14.9180   23.9197 C.3     1  UNL1        0.0686
      8 N          -5.8239  -14.4405   24.5970 N.3     1  UNL1       -0.2975
      9 C          -4.7899  -15.5205   24.4764 C.3     1  UNL1        0.0686
     10 C          -5.4012  -16.6655   23.7246 C.3     1  UNL1        0.0188
     11 C          -5.1399  -18.0407   23.1854 C.3     1  UNL1        0.0213
     12 H          -6.0139  -14.2516   25.5811 H       1  UNL1        0.1232
     13 C          -4.4938  -19.3724   20.3463 C.ar    1  UNL1        0.1535
     14 C          -3.0860  -19.4449   20.8593 C.ar    1  UNL1        0.1012
     15 N          -2.2927  -18.3618   20.1905 N.ar    1  UNL1       -0.3057
     16 C          -0.8374  -18.0714   20.4095 C.3     1  UNL1        0.1321
     17 C          -3.2100  -17.6199   19.2642 C.ar    1  UNL1        0.1787
     18 N          -4.5703  -18.2445   19.3605 N.ar    1  UNL1       -0.2192
     19 C          -7.7066  -20.7411   22.2316 C.3     1  UNL1        0.1205
     20 C         -11.2019  -18.8628   22.1649 C.ar    1  UNL1        0.1381
     21 C         -11.6069  -18.9663   23.6055 C.ar    1  UNL1        0.0369
     22 C         -10.7117  -19.6614   24.5881 C.ar    1  UNL1        0.0028
     23 C          -9.4116  -20.2530   24.1302 C.ar    1  UNL1       -0.0024
     24 C          -9.0066  -20.1495   22.6896 C.ar    1  UNL1        0.0007
     25 C          -9.9018  -19.4544   21.7069 C.ar    1  UNL1        0.0343
     26 O         -12.0971  -18.1676   21.1823 O.3     1  UNL1       -0.4792
     27 C         -12.3142  -15.8312   22.2976 C.3     1  UNL1        0.0472
     28 C         -12.0773  -16.6715   21.0778 C.3     1  UNL1        0.1661
     29 C         -11.8205  -16.0155   19.7534 C.3     1  UNL1        0.0472
@<TRIPOS>BOND
     1    27    28    1
     2    28    29    1
     3    28    26    1
     4    26    20    1
     5    20    21   ar
     6    21    22   ar
     7    22    23   ar
     8    23    24   ar
     9    24    19    1
    10    19     1    1
    11     1     2   am
    12     2     3    2
    13     2    13    1
    14    13    14   ar
    15    14    15   ar
    16    15    16    1
    17    15    17   ar
    18    17    18   ar
    19     4     1    1
    20     4     5    1
    21     6     5    1
    22     6     7    1
    23     7     8    1
    24     8     9    1
    25    10     9    1
    26    10    11    1
    27    24    25   ar
    28    25    20   ar
    29    18    13   ar
    30    11     4    1
    31    10     6    1
    32     8    12    1
@<TRIPOS>MOLECULE
*****
 29 32 0 0 0
SMALL
GASTEIGER

@<TRIPOS>ATOM
      1 N          -8.4591  -19.2696   21.8875 N.am    1  UNL1       -0.2723
      2 C          -9.5190  -19.1516   20.8327 C.2     1  UNL1        0.2685
      3 O          -9.6528  -20.2134   19.7817 O.2     1  UNL1       -0.2682
      4 C          -8.3253  -18.2078   22.9384 C.3     1  UNL1        0.0761
      5 C          -7.5608  -16.9244   22.8029 C.3     1  UNL1        0.0213
      6 C          -7.6956  -16.1663   24.0902 C.3     1  UNL1        0.0188
      7 C          -7.3063  -14.9046   24.8020 C.3     1  UNL1        0.0686
      8 N          -7.9137  -14.9398   26.1731 N.3     1  UNL1       -0.2975
      9 C          -8.6782  -16.2232   26.3087 C.3     1  UNL1        0.0686
     10 C          -8.5434  -16.9812   25.0214 C.3     1  UNL1        0.0188
     11 C          -8.9326  -18.2429   24.3096 C.3     1  UNL1        0.0213
     12 H          -8.5442  -14.1470   26.2928 H       1  UNL1        0.1232
     13 C         -10.4452  -17.9717   20.8289 C.ar    1  UNL1        0.1535
     14 C         -11.3268  -17.5393   21.9629 C.ar    1  UNL1        0.1012
     15 N         -12.0789  -16.3174   21.5253 N.ar    1  UNL1       -0.3057
     16 C         -13.0732  -15.5526   22.3477 C.3     1  UNL1        0.1321
     17 C         -11.6622  -15.9948   20.1210 C.ar    1  UNL1        0.1787
     18 N         -10.6525  -17.0172   19.6906 N.ar    1  UNL1       -0.2192
     19 C          -7.5328  -20.4495   21.8912 C.3     1  UNL1        0.1205
     20 C          -3.7396  -19.2869   21.7933 C.ar    1  UNL1        0.1381
     21 C          -3.2672  -19.9659   20.5419 C.ar    1  UNL1        0.0369
     22 C          -4.2168  -20.8060   19.7403 C.ar    1  UNL1        0.0028
     23 C          -5.6386  -20.9672   20.1900 C.ar    1  UNL1       -0.0024
     24 C          -6.1110  -20.2883   21.4414 C.ar    1  UNL1        0.0007
     25 C          -5.1614  -19.4481   22.2431 C.ar    1  UNL1        0.0343
     26 O          -2.7900  -18.4468   22.5949 O.3     1  UNL1       -0.4792
     27 C          -3.9841  -16.3110   23.4682 C.3     1  UNL1        0.0472
     28 C          -2.9369  -16.9542   22.6079 C.3     1  UNL1        0.1661
     29 C          -2.0367  -16.1045   21.7607 C.3     1  UNL1        0.0472
@<TRIPOS>BOND
     1    27    28    1
     2    28    29    1
     3    28    26    1
     4    26    20    1
     5    20    21   ar
     6    21    22   ar
     7    22    23   ar
     8    23    24   ar
     9    24    19    1
    10    19     1    1
    11     1     2   am
    12     2     3    2
    13     2    13    1
    14    13    14   ar
    15    14    15   ar
    16    15    16    1
    17    15    17   ar
    18    17    18   ar
    19     4     1    1
    20     4     5    1
    21     6     5    1
    22     6     7    1
    23     7     8    1
    24     8     9    1
    25    10     9    1
    26    10    11    1
    27    24    25   ar
    28    25    20   ar
    29    18    13   ar
    30    11     4    1
    31    10     6    1
    32     8    12    1
@<TRIPOS>MOLECULE
*****
 29 32 0 0 0
SMALL
GASTEIGER

@<TRIPOS>ATOM
      1 N          -5.4512  -19.2886   21.8092 N.am    1  UNL1       -0.2723
      2 C          -4.2678  -19.4636   20.9042 C.2     1  UNL1        0.2685
      3 O          -4.2032  -20.6372   19.9723 O.2     1  UNL1       -0.2682
      4 C          -5.5157  -18.1151   22.7410 C.3     1  UNL1        0.0761
      5 C          -6.5769  -17.0549   22.7517 C.3     1  UNL1        0.0213
      6 C          -6.2474  -16.0802   23.8432 C.3     1  UNL1        0.0188
      7 C          -6.6997  -14.8226   24.5243 C.3     1  UNL1        0.0686
      8 N          -5.7143  -14.5030   25.6092 N.3     1  UNL1       -0.2975
      9 C          -4.6531  -15.5631   25.5985 C.3     1  UNL1        0.0686
     10 C          -4.9826  -16.5378   24.5071 C.3     1  UNL1        0.0188
     11 C          -4.5303  -17.7954   23.8260 C.3     1  UNL1        0.0213
     12 H          -6.1859  -14.4944   26.5136 H       1  UNL1        0.1232
     13 C          -3.1489  -18.4649   20.9312 C.ar    1  UNL1        0.1535
     14 C          -1.7981  -18.6370   20.3020 C.ar    1  UNL1        0.1012
     15 N          -0.9988  -17.3972   20.5740 N.ar    1  UNL1       -0.3057
     16 C           0.4100  -17.1408   20.1272 C.3     1  UNL1        0.1321
     17 C          -1.8555  -16.4589   21.3713 C.ar    1  UNL1        0.1787
     18 N          -3.1843  -17.1188   21.5920 N.ar    1  UNL1       -0.2192
     19 C          -6.5701  -20.2874   21.7822 C.3     1  UNL1        0.1205
     20 C         -10.3412  -19.2567   21.0994 C.ar    1  UNL1        0.1381
     21 C         -10.3885  -19.3302   19.6020 C.ar    1  UNL1        0.0369
     22 C          -9.1629  -19.7228   18.8313 C.ar    1  UNL1        0.0028
     23 C          -7.8901  -20.0418   19.5580 C.ar    1  UNL1       -0.0024
     24 C          -7.8428  -19.9683   21.0555 C.ar    1  UNL1        0.0007
     25 C          -9.0684  -19.5758   21.8262 C.ar    1  UNL1        0.0343
     26 O         -11.5668  -18.8642   21.8701 O.3     1  UNL1       -0.4792
     27 C         -11.0745  -16.5848   23.0155 C.3     1  UNL1        0.0472
     28 C         -11.4372  -18.0370   23.1145 C.3     1  UNL1        0.1661
     29 C         -11.6703  -18.6618   24.4582 C.3     1  UNL1        0.0472
@<TRIPOS>BOND
     1    27    28    1
     2    28    29    1
     3    28    26    1
     4    26    20    1
     5    20    21   ar
     6    21    22   ar
     7    22    23   ar
     8    23    24   ar
     9    24    19    1
    10    19     1    1
    11     1     2   am
    12     2     3    2
    13     2    13    1
    14    13    14   ar
    15    14    15   ar
    16    15    16    1
    17    15    17   ar
    18    17    18   ar
    19     4     1    1
    20     4     5    1
    21     6     5    1
    22     6     7    1
    23     7     8    1
    24     8     9    1
    25    10     9    1
    26    10    11    1
    27    24    25   ar
    28    25    20   ar
    29    18    13   ar
    30    11     4    1
    31    10     6    1
    32     8    12    1
@<TRIPOS>MOLECULE
*****
 29 32 0 0 0
SMALL
GASTEIGER

@<TRIPOS>ATOM
      1 N         -13.3907   -1.0784   18.5225 N.am    1  UNL1       -0.2723
      2 C         -14.3098    0.1030   18.6203 C.2     1  UNL1        0.2685
      3 O         -13.7438    1.4908   18.6804 O.2     1  UNL1       -0.2682
      4 C         -13.9568   -2.4660   18.4624 C.3     1  UNL1        0.0761
      5 C         -14.2905   -3.2289   17.2147 C.3     1  UNL1        0.0213
      6 C         -14.8286   -4.5690   17.6206 C.3     1  UNL1        0.0188
      7 C         -15.3673   -5.8686   17.1004 C.3     1  UNL1        0.0686
      8 N         -15.6991   -6.7372   18.2774 N.3     1  UNL1       -0.2975
      9 C         -15.3654   -5.9744   19.5252 C.3     1  UNL1        0.0686
     10 C         -14.8274   -4.6343   19.1192 C.3     1  UNL1        0.0188
     11 C         -14.2886   -3.3347   19.6395 C.3     1  UNL1        0.0213
     12 H         -15.1501   -7.5960   18.2395 H       1  UNL1        0.1232
     13 C         -15.7951   -0.1034   18.6581 C.ar    1  UNL1        0.1535
     14 C         -16.6410   -0.1977   19.8932 C.ar    1  UNL1        0.1012
     15 N         -18.0639   -0.4043   19.4658 N.ar    1  UNL1       -0.3057
     16 C         -19.2458   -0.5517   20.3776 C.3     1  UNL1        0.1321
     17 C         -18.0974   -0.4377   17.9666 C.ar    1  UNL1        0.1787
     18 N         -16.6952   -0.2517   17.4674 N.ar    1  UNL1       -0.2192
     19 C         -11.9054   -0.8719   18.4847 C.3     1  UNL1        0.1205
     20 C          -9.8127   -4.2345   18.2332 C.ar    1  UNL1        0.1381
     21 C          -9.2254   -4.1008   16.8595 C.ar    1  UNL1        0.0369
     22 C          -9.5315   -2.8908   16.0275 C.ar    1  UNL1        0.0028
     23 C         -10.4248   -1.8145   16.5692 C.ar    1  UNL1       -0.0024
     24 C         -11.0121   -1.9481   17.9430 C.ar    1  UNL1        0.0007
     25 C         -10.7061   -3.1582   18.7750 C.ar    1  UNL1        0.0343
     26 O          -9.5067   -5.4445   19.0652 O.3     1  UNL1       -0.4792
     27 C         -11.7419   -6.7537   18.8653 C.3     1  UNL1        0.0472
     28 C         -10.2427   -6.7284   18.8208 C.3     1  UNL1        0.1661
     29 C          -9.4796   -7.9872   18.5321 C.3     1  UNL1        0.0472
@<TRIPOS>BOND
     1    27    28    1
     2    28    29    1
     3    28    26    1
     4    26    20    1
     5    20    21   ar
     6    21    22   ar
     7    22    23   ar
     8    23    24   ar
     9    24    19    1
    10    19     1    1
    11     1     2   am
    12     2     3    2
    13     2    13    1
    14    13    14   ar
    15    14    15   ar
    16    15    16    1
    17    15    17   ar
    18    17    18   ar
    19     4     1    1
    20     4     5    1
    21     6     5    1
    22     6     7    1
    23     7     8    1
    24     8     9    1
    25    10     9    1
    26    10    11    1
    27    24    25   ar
    28    25    20   ar
    29    18    13   ar
    30    11     4    1
    31    10     6    1
    32     8    12    1
@<TRIPOS>MOLECULE
*****
 29 32 0 0 0
SMALL
GASTEIGER

@<TRIPOS>ATOM
      1 N         -14.3861   -3.2016   19.3213 N.am    1  UNL1       -0.2723
      2 C         -15.6321   -2.4065   19.5766 C.2     1  UNL1        0.2685
      3 O         -15.5340   -1.0140   20.1256 O.2     1  UNL1       -0.2682
      4 C         -14.4842   -4.5940   18.7724 C.3     1  UNL1        0.0761
      5 C         -14.7156   -4.9615   17.3366 C.3     1  UNL1        0.0213
      6 C         -14.7425   -6.4581   17.2397 C.3     1  UNL1        0.0188
      7 C         -14.9022   -7.6102   16.2925 C.3     1  UNL1        0.0686
      8 N         -14.7862   -8.8797   17.0830 N.3     1  UNL1       -0.2975
      9 C         -14.5549   -8.5122   18.5188 C.3     1  UNL1        0.0686
     10 C         -14.5279   -7.0156   18.6156 C.3     1  UNL1        0.0188
     11 C         -14.3682   -5.8636   19.5629 C.3     1  UNL1        0.0213
     12 H         -14.0023   -9.4327   16.7366 H       1  UNL1        0.1232
     13 C         -16.9763   -3.0039   19.2831 C.ar    1  UNL1        0.1535
     14 C         -17.7696   -2.8142   18.0242 C.ar    1  UNL1        0.1012
     15 N         -19.0468   -3.5890   18.1600 N.ar    1  UNL1       -0.3057
     16 C         -20.1366   -3.6794   17.1333 C.3     1  UNL1        0.1321
     17 C         -19.0429   -4.2576   19.5028 C.ar    1  UNL1        0.1787
     18 N         -17.7633   -3.8960   20.1968 N.ar    1  UNL1       -0.2192
     19 C         -13.0418   -2.6040   19.6148 C.3     1  UNL1        0.1205
     20 C         -10.0233   -4.2137   17.6030 C.ar    1  UNL1        0.1381
     21 C          -9.6720   -3.0908   16.6726 C.ar    1  UNL1        0.0369
     22 C         -10.4439   -1.8057   16.7230 C.ar    1  UNL1        0.0028
     23 C         -11.5672   -1.6434   17.7037 C.ar    1  UNL1       -0.0024
     24 C         -11.9186   -2.7663   18.6342 C.ar    1  UNL1        0.0007
     25 C         -11.1466   -4.0515   18.5838 C.ar    1  UNL1        0.0343
     26 O          -9.2514   -5.4988   17.5527 O.3     1  UNL1       -0.4792
     27 C         -11.1116   -7.2479   17.0730 C.3     1  UNL1        0.0472
     28 C          -9.9309   -6.7953   17.8800 C.3     1  UNL1        0.1661
     29 C          -9.4300   -7.6392   19.0144 C.3     1  UNL1        0.0472
@<TRIPOS>BOND
     1    27    28    1
     2    28    29    1
     3    28    26    1
     4    26    20    1
     5    20    21   ar
     6    21    22   ar
     7    22    23   ar
     8    23    24   ar
     9    24    19    1
    10    19     1    1
    11     1     2   am
    12     2     3    2
    13     2    13    1
    14    13    14   ar
    15    14    15   ar
    16    15    16    1
    17    15    17   ar
    18    17    18   ar
    19     4     1    1
    20     4     5    1
    21     6     5    1
    22     6     7    1
    23     7     8    1
    24     8     9    1
    25    10     9    1
    26    10    11    1
    27    24    25   ar
    28    25    20   ar
    29    18    13   ar
    30    11     4    1
    31    10     6    1
    32     8    12    1
@<TRIPOS>MOLECULE
*****
 29 32 0 0 0
SMALL
GASTEIGER

@<TRIPOS>ATOM
      1 N           4.4115   -1.3587   18.7357 N.am    1  UNL1       -0.2723
      2 C           3.6355   -0.6200   17.6859 C.2     1  UNL1        0.2685
      3 O           3.7526   -1.0212   16.2453 O.2     1  UNL1       -0.2682
      4 C           4.2944   -0.9575   20.1762 C.3     1  UNL1        0.0761
      5 C           3.2851   -1.4769   21.1570 C.3     1  UNL1        0.0213
      6 C           3.5330   -0.8068   22.4759 C.3     1  UNL1        0.0188
      7 C           3.0624   -0.7137   23.8971 C.3     1  UNL1        0.0686
      8 N           3.9339    0.2774   24.6099 N.3     1  UNL1       -0.2975
      9 C           4.9432    0.7968   23.6293 C.3     1  UNL1        0.0686
     10 C           4.6954    0.1267   22.3104 C.3     1  UNL1        0.0188
     11 C           5.1660    0.0336   20.8892 C.3     1  UNL1        0.0213
     12 H           4.4103   -0.1778   25.3886 H       1  UNL1        0.1232
     13 C           2.7424    0.5200   18.0767 C.ar    1  UNL1        0.1535
     14 C           3.1738    1.9371   18.3132 C.ar    1  UNL1        0.1012
     15 N           1.9591    2.7359   18.6823 N.ar    1  UNL1       -0.3057
     16 C           1.9313    4.2009   19.0033 C.3     1  UNL1        0.1321
     17 C           0.7770    1.8127   18.6740 C.ar    1  UNL1        0.1787
     18 N           1.2611    0.4432   18.2997 N.ar    1  UNL1       -0.2192
     19 C           5.3046   -2.4988   18.3449 C.3     1  UNL1        0.1205
     20 C           7.5596   -4.1329   21.1724 C.ar    1  UNL1        0.1381
     21 C           8.8911   -3.5141   20.8659 C.ar    1  UNL1        0.0369
     22 C           9.0272   -2.5568   19.7191 C.ar    1  UNL1        0.0028
     23 C           7.8317   -2.2184   18.8787 C.ar    1  UNL1       -0.0024
     24 C           6.5001   -2.8372   19.1852 C.ar    1  UNL1        0.0007
     25 C           6.3640   -3.7945   20.3321 C.ar    1  UNL1        0.0343
     26 O           7.4235   -5.0901   22.3192 O.3     1  UNL1       -0.4792
     27 C           6.1329   -3.3968   23.8081 C.3     1  UNL1        0.0472
     28 C           7.0419   -4.5829   23.6782 C.3     1  UNL1        0.1661
     29 C           7.5693   -5.2619   24.9075 C.3     1  UNL1        0.0472
@<TRIPOS>BOND
     1    27    28    1
     2    28    29    1
     3    28    26    1
     4    26    20    1
     5    20    21   ar
     6    21    22   ar
     7    22    23   ar
     8    23    24   ar
     9    24    19    1
    10    19     1    1
    11     1     2   am
    12     2     3    2
    13     2    13    1
    14    13    14   ar
    15    14    15   ar
    16    15    16    1
    17    15    17   ar
    18    17    18   ar
    19     4     1    1
    20     4     5    1
    21     6     5    1
    22     6     7    1
    23     7     8    1
    24     8     9    1
    25    10     9    1
    26    10    11    1
    27    24    25   ar
    28    25    20   ar
    29    18    13   ar
    30    11     4    1
    31    10     6    1
    32     8    12    1
@<TRIPOS>MOLECULE
*****
 29 32 0 0 0
SMALL
GASTEIGER

@<TRIPOS>ATOM
      1 N           7.0491   -3.5741   22.5818 N.am    1  UNL1       -0.2723
      2 C           6.9268   -4.2185   21.2328 C.2     1  UNL1        0.2685
      3 O           7.8584   -5.3282   20.8444 O.2     1  UNL1       -0.2682
      4 C           6.1176   -2.4645   22.9701 C.3     1  UNL1        0.0761
      5 C           4.7366   -2.6287   23.5324 C.3     1  UNL1        0.0213
      6 C           4.1690   -1.2615   23.7742 C.3     1  UNL1        0.0188
      7 C           2.9647   -0.5180   24.2712 C.3     1  UNL1        0.0686
      8 N           3.2505    0.9507   24.1654 N.3     1  UNL1       -0.2975
      9 C           4.6314    1.1150   23.6032 C.3     1  UNL1        0.0686
     10 C           5.1991   -0.2523   23.3614 C.3     1  UNL1        0.0188
     11 C           6.4034   -0.9957   22.8644 C.3     1  UNL1        0.0213
     12 H           3.1994    1.3806   25.0890 H       1  UNL1        0.1232
     13 C           5.8729   -3.7532   20.2722 C.ar    1  UNL1        0.1535
     14 C           5.9678   -2.5587   19.3699 C.ar    1  UNL1        0.1012
     15 N           4.6927   -2.4680   18.5852 N.ar    1  UNL1       -0.3057
     16 C           4.3591   -1.4224   17.5628 C.3     1  UNL1        0.1321
     17 C           3.8097   -3.6064   19.0025 C.ar    1  UNL1        0.1787
     18 N           4.5391   -4.4007   20.0451 N.ar    1  UNL1       -0.2192
     19 C           8.1030   -4.0395   23.5424 C.3     1  UNL1        0.1205
     20 C           6.7147   -5.9431   26.7360 C.ar    1  UNL1        0.1381
     21 C           7.1878   -7.3397   26.4614 C.ar    1  UNL1        0.0369
     22 C           7.9660   -7.6363   25.2138 C.ar    1  UNL1        0.0028
     23 C           8.2711   -6.5363   24.2408 C.ar    1  UNL1       -0.0024
     24 C           7.7980   -5.1395   24.5154 C.ar    1  UNL1        0.0007
     25 C           7.0197   -4.8429   25.7630 C.ar    1  UNL1        0.0343
     26 O           5.9365   -5.6465   27.9836 O.3     1  UNL1       -0.4792
     27 C           7.1905   -5.8185   30.2525 C.3     1  UNL1        0.0472
     28 C           6.6107   -4.9846   29.1485 C.3     1  UNL1        0.1661
     29 C           6.7052   -3.4888   29.2096 C.3     1  UNL1        0.0472
@<TRIPOS>BOND
     1    27    28    1
     2    28    29    1
     3    28    26    1
     4    26    20    1
     5    20    21   ar
     6    21    22   ar
     7    22    23   ar
     8    23    24   ar
     9    24    19    1
    10    19     1    1
    11     1     2   am
    12     2     3    2
    13     2    13    1
    14    13    14   ar
    15    14    15   ar
    16    15    16    1
    17    15    17   ar
    18    17    18   ar
    19     4     1    1
    20     4     5    1
    21     6     5    1
    22     6     7    1
    23     7     8    1
    24     8     9    1
    25    10     9    1
    26    10    11    1
    27    24    25   ar
    28    25    20   ar
    29    18    13   ar
    30    11     4    1
    31    10     6    1
    32     8    12    1
@<TRIPOS>MOLECULE
*****
 29 32 0 0 0
SMALL
GASTEIGER

@<TRIPOS>ATOM
      1 N           4.5970   -2.5563   21.0256 N.am    1  UNL1       -0.2723
      2 C           5.6828   -2.3933   20.0037 C.2     1  UNL1        0.2685
      3 O           6.8210   -3.3692   19.9564 O.2     1  UNL1       -0.2682
      4 C           3.4589   -1.5805   21.0728 C.3     1  UNL1        0.0761
      5 C           2.3807   -1.4326   20.0404 C.3     1  UNL1        0.0213
      6 C           1.4545   -0.3419   20.4903 C.3     1  UNL1        0.0188
      7 C           0.2158    0.4236   20.1302 C.3     1  UNL1        0.0686
      8 N          -0.0441    1.4230   21.2181 N.3     1  UNL1       -0.2975
      9 C           1.0340    1.2752   22.2506 C.3     1  UNL1        0.0686
     10 C           1.9602    0.1845   21.8007 C.3     1  UNL1        0.0188
     11 C           3.1989   -0.5810   22.1608 C.3     1  UNL1        0.0213
     12 H          -0.9551    1.2452   21.6410 H       1  UNL1        0.1232
     13 C           5.6304   -1.2545   19.0288 C.ar    1  UNL1        0.1535
     14 C           5.9936    0.1717   19.3188 C.ar    1  UNL1        0.1012
     15 N           5.7933    0.9658   18.0621 N.ar    1  UNL1       -0.3057
     16 C           6.0371    2.4369   17.9004 C.3     1  UNL1        0.1321
     17 C           5.3063    0.0303   16.9954 C.ar    1  UNL1        0.1787
     18 N           5.2057   -1.3418   17.5929 N.ar    1  UNL1       -0.2192
     19 C           4.6494   -3.6952   22.0005 C.3     1  UNL1        0.1205
     20 C           7.5860   -4.3953   24.5766 C.ar    1  UNL1        0.1381
     21 C           7.2561   -3.4088   25.6573 C.ar    1  UNL1        0.0369
     22 C           6.0574   -2.5178   25.5191 C.ar    1  UNL1        0.0028
     23 C           5.1885   -2.6132   24.3002 C.ar    1  UNL1       -0.0024
     24 C           5.5183   -3.5997   23.2194 C.ar    1  UNL1        0.0007
     25 C           6.7171   -4.4908   23.3576 C.ar    1  UNL1        0.0343
     26 O           8.7847   -5.2863   24.7149 O.3     1  UNL1       -0.4792
     27 C           9.3645   -7.4989   23.4828 C.3     1  UNL1        0.0472
     28 C           8.6351   -6.7720   24.5736 C.3     1  UNL1        0.1661
     29 C           7.7562   -7.5310   25.5231 C.3     1  UNL1        0.0472
@<TRIPOS>BOND
     1    27    28    1
     2    28    29    1
     3    28    26    1
     4    26    20    1
     5    20    21   ar
     6    21    22   ar
     7    22    23   ar
     8    23    24   ar
     9    24    19    1
    10    19     1    1
    11     1     2   am
    12     2     3    2
    13     2    13    1
    14    13    14   ar
    15    14    15   ar
    16    15    16    1
    17    15    17   ar
    18    17    18   ar
    19     4     1    1
    20     4     5    1
    21     6     5    1
    22     6     7    1
    23     7     8    1
    24     8     9    1
    25    10     9    1
    26    10    11    1
    27    24    25   ar
    28    25    20   ar
    29    18    13   ar
    30    11     4    1
    31    10     6    1
    32     8    12    1
