@<TRIPOS>MOLECULE
*****
 23 26 0 0 0
SMALL
GASTEIGER

@<TRIPOS>ATOM
      1 C          -9.1885  -19.1051   20.9883 C.3     1  UNL1        0.0409
      2 C          -9.8095  -18.6539   22.2770 C.3     1  UNL1        0.0707
      3 N         -11.1463  -17.9736   22.2674 N.3     1  UNL1       -0.2974
      4 C         -11.8621  -17.7446   20.9692 C.3     1  UNL1        0.0689
      5 C         -11.2410  -18.1958   19.6806 C.3     1  UNL1        0.0212
      6 C          -9.9042  -18.8761   19.6901 C.3     1  UNL1        0.0234
      7 C          -8.5674  -19.5564   19.6996 C.3     1  UNL1        0.0078
      8 H         -11.0136  -17.0576   22.6961 H       1  UNL1        0.1232
      9 C          -9.8496  -18.7478   21.1836 C.ar    1  UNL1       -0.0218
     10 C         -10.4094  -19.8362   22.0509 C.ar    1  UNL1       -0.0034
     11 C         -10.3548  -19.7078   23.5444 C.ar    1  UNL1        0.0119
     12 C          -9.7403  -18.4912   24.1706 C.ar    1  UNL1        0.0682
     13 CL         -9.6857  -18.3629   25.6642 Cl      1  UNL1       -0.0814
     14 C          -9.1805  -17.4029   23.3034 C.ar    1  UNL1        0.0679
     15 CL         -8.5660  -16.1862   23.9297 Cl      1  UNL1       -0.0814
     16 C          -9.2351  -17.5312   21.8099 C.ar    1  UNL1        0.0080
     17 C          -8.0034  -19.6301   21.7433 C.3     1  UNL1        0.1290
     18 C          -3.4342  -18.3831   19.4092 C.3     1  UNL1        0.0540
     19 C          -4.5710  -19.1704   19.9905 C.ar    1  UNL1        0.0805
     20 C          -4.6712  -20.6661   20.0436 C.ar    1  UNL1        0.0367
     21 C          -5.9693  -21.0204   20.7067 C.ar    1  UNL1        0.0963
     22 N          -6.6712  -19.7436   21.0634 N.ar    1  UNL1       -0.2497
     23 N          -5.8070  -18.6003   20.6207 N.ar    1  UNL1       -0.1736
@<TRIPOS>BOND
     1    18    19    1
     2    19    20   ar
     3    20    21   ar
     4    21    22   ar
     5    22    17    1
     6    17     1    1
     7     1     2    1
     8     2     3    1
     9     3     4    1
    10     4     5    1
    11     5     6    1
    12     6     9    1
    13     9    10   ar
    14    10    11   ar
    15    11    12   ar
    16    12    13    1
    17    12    14   ar
    18    14    15    1
    19    14    16   ar
    20     6     7    1
    21    22    23   ar
    22    23    19   ar
    23     6     1    1
    24    16     9   ar
    25     7     1    1
    26     3     8    1
@<TRIPOS>MOLECULE
*****
 23 26 0 0 0
SMALL
GASTEIGER

@<TRIPOS>ATOM
      1 C         -10.6551  -18.1458   23.4088 C.3     1  UNL1        0.0409
      2 C         -11.4562  -17.5289   22.3008 C.3     1  UNL1        0.0707
      3 N         -12.9537  -17.5032   22.3826 N.3     1  UNL1       -0.2974
      4 C         -13.6501  -18.0944   23.5723 C.3     1  UNL1        0.0689
      5 C         -12.8491  -18.7113   24.6803 C.3     1  UNL1        0.0212
      6 C         -11.3516  -18.7370   24.5985 C.3     1  UNL1        0.0234
      7 C          -9.8539  -18.7628   24.5168 C.3     1  UNL1        0.0078
      8 H         -13.3019  -17.9982   21.5615 H       1  UNL1        0.1232
      9 C         -11.4120  -18.0395   23.2720 C.ar    1  UNL1       -0.0218
     10 C         -11.6808  -16.5650   23.2114 C.ar    1  UNL1       -0.0034
     11 C         -11.7413  -15.8675   21.8849 C.ar    1  UNL1        0.0119
     12 C         -11.5329  -16.6445   20.6188 C.ar    1  UNL1        0.0682
     13 CL        -11.5933  -15.9469   19.2922 Cl      1  UNL1       -0.0814
     14 C         -11.2640  -18.1189   20.6793 C.ar    1  UNL1        0.0679
     15 CL        -11.0556  -18.8959   19.4132 Cl      1  UNL1       -0.0814
     16 C         -11.2036  -18.8165   22.0059 C.ar    1  UNL1        0.0080
     17 C          -9.3884  -17.8194   22.6747 C.3     1  UNL1        0.1290
     18 C          -4.8020  -15.5060   23.8970 C.3     1  UNL1        0.0540
     19 C          -6.2611  -15.8522   23.8646 C.ar    1  UNL1        0.0805
     20 C          -7.3409  -15.1969   24.6737 C.ar    1  UNL1        0.0367
     21 C          -8.6438  -15.8541   24.3266 C.ar    1  UNL1        0.0963
     22 N          -8.3693  -16.9155   23.3027 N.ar    1  UNL1       -0.2497
     23 N          -6.8967  -16.9143   23.0173 N.ar    1  UNL1       -0.1736
@<TRIPOS>BOND
     1    18    19    1
     2    19    20   ar
     3    20    21   ar
     4    21    22   ar
     5    22    17    1
     6    17     1    1
     7     1     2    1
     8     2     3    1
     9     3     4    1
    10     4     5    1
    11     5     6    1
    12     6     9    1
    13     9    10   ar
    14    10    11   ar
    15    11    12   ar
    16    12    13    1
    17    12    14   ar
    18    14    15    1
    19    14    16   ar
    20     6     7    1
    21    22    23   ar
    22    23    19   ar
    23     6     1    1
    24    16     9   ar
    25     7     1    1
    26     3     8    1
@<TRIPOS>MOLECULE
*****
 23 26 0 0 0
SMALL
GASTEIGER

@<TRIPOS>ATOM
      1 C         -10.1285  -17.8176   23.2388 C.3     1  UNL1        0.0409
      2 C         -11.0478  -17.3697   22.1414 C.3     1  UNL1        0.0707
      3 N         -12.5274  -17.5795   22.2701 N.3     1  UNL1       -0.2974
      4 C         -13.0878  -18.2373   23.4962 C.3     1  UNL1        0.0689
      5 C         -12.1685  -18.6852   24.5936 C.3     1  UNL1        0.0212
      6 C         -10.6889  -18.4753   24.4649 C.3     1  UNL1        0.0234
      7 C          -9.2092  -18.2655   24.3362 C.3     1  UNL1        0.0078
      8 H         -12.8145  -18.1483   21.4735 H       1  UNL1        0.1232
      9 C         -10.8961  -17.8370   23.1234 C.ar    1  UNL1       -0.0218
     10 C         -11.0968  -16.3539   23.0215 C.ar    1  UNL1       -0.0034
     11 C         -11.3040  -15.7156   21.6801 C.ar    1  UNL1        0.0119
     12 C         -11.3106  -16.5602   20.4405 C.ar    1  UNL1        0.0682
     13 CL        -11.5178  -15.9218   19.0990 Cl      1  UNL1       -0.0814
     14 C         -11.1099  -18.0432   20.5424 C.ar    1  UNL1        0.0679
     15 CL        -11.1165  -18.8879   19.3028 Cl      1  UNL1       -0.0814
     16 C         -10.9027  -18.6816   21.8839 C.ar    1  UNL1        0.0080
     17 C          -8.9507  -17.3166   22.4566 C.3     1  UNL1        0.1290
     18 C          -3.9120  -18.8953   22.4516 C.3     1  UNL1        0.0540
     19 C          -5.4063  -18.8928   22.3210 C.ar    1  UNL1        0.0805
     20 C          -6.2578  -20.0591   21.9154 C.ar    1  UNL1        0.0367
     21 C          -7.6893  -19.6107   21.9168 C.ar    1  UNL1        0.0963
     22 N          -7.7223  -18.1671   22.3233 N.ar    1  UNL1       -0.2497
     23 N          -6.3114  -17.7235   22.5731 N.ar    1  UNL1       -0.1736
@<TRIPOS>BOND
     1    18    19    1
     2    19    20   ar
     3    20    21   ar
     4    21    22   ar
     5    22    17    1
     6    17     1    1
     7     1     2    1
     8     2     3    1
     9     3     4    1
    10     4     5    1
    11     5     6    1
    12     6     9    1
    13     9    10   ar
    14    10    11   ar
    15    11    12   ar
    16    12    13    1
    17    12    14   ar
    18    14    15    1
    19    14    16   ar
    20     6     7    1
    21    22    23   ar
    22    23    19   ar
    23     6     1    1
    24    16     9   ar
    25     7     1    1
    26     3     8    1
@<TRIPOS>MOLECULE
*****
 23 26 0 0 0
SMALL
GASTEIGER

@<TRIPOS>ATOM
      1 C          -9.0555  -19.0205   21.0236 C.3     1  UNL1        0.0409
      2 C          -9.6207  -18.4264   22.2796 C.3     1  UNL1        0.0707
      3 N         -10.9509  -17.7338   22.2490 N.3     1  UNL1       -0.2974
      4 C         -11.7158  -17.6354   20.9624 C.3     1  UNL1        0.0689
      5 C         -11.1506  -18.2295   19.7065 C.3     1  UNL1        0.0212
      6 C          -9.8204  -18.9221   19.7371 C.3     1  UNL1        0.0234
      7 C          -8.4902  -19.6147   19.7676 C.3     1  UNL1        0.0078
      8 H         -10.7933  -16.7791   22.5716 H       1  UNL1        0.1232
      9 C          -9.7052  -18.6359   21.2050 C.ar    1  UNL1       -0.0218
     10 C          -9.1458  -17.3246   21.6718 C.ar    1  UNL1       -0.0034
     11 C          -9.0305  -17.0384   23.1397 C.ar    1  UNL1        0.0119
     12 C          -9.4746  -18.0634   24.1408 C.ar    1  UNL1        0.0682
     13 CL         -9.3593  -17.7771   25.6088 Cl      1  UNL1       -0.0814
     14 C         -10.0340  -19.3745   23.6740 C.ar    1  UNL1        0.0679
     15 CL        -10.4780  -20.3995   24.6752 Cl      1  UNL1       -0.0814
     16 C         -10.1493  -19.6608   22.2061 C.ar    1  UNL1        0.0080
     17 C          -7.8459  -19.4772   21.7840 C.3     1  UNL1        0.1290
     18 C          -3.2803  -18.4141   19.3538 C.3     1  UNL1        0.0540
     19 C          -4.4353  -19.1552   19.9592 C.ar    1  UNL1        0.0805
     20 C          -4.5945  -20.6457   20.0152 C.ar    1  UNL1        0.0367
     21 C          -5.8915  -20.9478   20.7055 C.ar    1  UNL1        0.0963
     22 N          -6.5339  -19.6439   21.0763 N.ar    1  UNL1       -0.2497
     23 N          -5.6339  -18.5361   20.6151 N.ar    1  UNL1       -0.1736
@<TRIPOS>BOND
     1    18    19    1
     2    19    20   ar
     3    20    21   ar
     4    21    22   ar
     5    22    17    1
     6    17     1    1
     7     1     2    1
     8     2     3    1
     9     3     4    1
    10     4     5    1
    11     5     6    1
    12     6     9    1
    13     9    10   ar
    14    10    11   ar
    15    11    12   ar
    16    12    13    1
    17    12    14   ar
    18    14    15    1
    19    14    16   ar
    20     6     7    1
    21    22    23   ar
    22    23    19   ar
    23     6     1    1
    24    16     9   ar
    25     7     1    1
    26     3     8    1
@<TRIPOS>MOLECULE
*****
 23 26 0 0 0
SMALL
GASTEIGER

@<TRIPOS>ATOM
      1 C          -9.4111  -19.4171   22.5501 C.3     1  UNL1        0.0409
      2 C         -10.4009  -18.4254   22.0147 C.3     1  UNL1        0.0707
      3 N         -11.5687  -18.0026   22.8558 N.3     1  UNL1       -0.2974
      4 C         -11.7467  -18.5715   24.2322 C.3     1  UNL1        0.0689
      5 C         -10.7569  -19.5632   24.7676 C.3     1  UNL1        0.0212
      6 C          -9.5891  -19.9861   23.9266 C.3     1  UNL1        0.0234
      7 C          -8.4212  -20.4089   23.0855 C.3     1  UNL1        0.0078
      8 H         -12.4105  -18.2363   22.3294 H       1  UNL1        0.1232
      9 C         -10.0578  -19.0850   22.8228 C.ar    1  UNL1       -0.0218
     10 C         -10.9953  -19.6077   21.7750 C.ar    1  UNL1       -0.0034
     11 C         -11.4640  -18.7067   20.6712 C.ar    1  UNL1        0.0119
     12 C         -10.9953  -17.2829   20.6151 C.ar    1  UNL1        0.0682
     13 CL        -11.4640  -16.3819   19.5113 Cl      1  UNL1       -0.0814
     14 C         -10.0578  -16.7602   21.6629 C.ar    1  UNL1        0.0679
     15 CL         -9.5890  -15.3364   21.6069 Cl      1  UNL1       -0.0814
     16 C          -9.5890  -17.6612   22.7668 C.ar    1  UNL1        0.0080
     17 C          -8.6340  -19.3328   21.2699 C.3     1  UNL1        0.1290
     18 C          -3.5899  -18.2987   22.4394 C.3     1  UNL1        0.0540
     19 C          -4.8168  -18.9141   21.8346 C.ar    1  UNL1        0.0805
     20 C          -4.8414  -20.0393   20.8429 C.ar    1  UNL1        0.0367
     21 C          -6.2743  -20.3331   20.5106 C.ar    1  UNL1        0.0963
     22 N          -7.1354  -19.3895   21.2970 N.ar    1  UNL1       -0.2497
     23 N          -6.2345  -18.5126   22.1153 N.ar    1  UNL1       -0.1736
@<TRIPOS>BOND
     1    18    19    1
     2    19    20   ar
     3    20    21   ar
     4    21    22   ar
     5    22    17    1
     6    17     1    1
     7     1     2    1
     8     2     3    1
     9     3     4    1
    10     4     5    1
    11     5     6    1
    12     6     9    1
    13     9    10   ar
    14    10    11   ar
    15    11    12   ar
    16    12    13    1
    17    12    14   ar
    18    14    15    1
    19    14    16   ar
    20     6     7    1
    21    22    23   ar
    22    23    19   ar
    23     6     1    1
    24    16     9   ar
    25     7     1    1
    26     3     8    1
@<TRIPOS>MOLECULE
*****
 23 26 0 0 0
SMALL
GASTEIGER

@<TRIPOS>ATOM
      1 C         -10.2522  -18.4770   22.7297 C.3     1  UNL1        0.0409
      2 C          -9.7991  -17.0937   23.0917 C.3     1  UNL1        0.0707
      3 N         -10.7680  -15.9498   23.0404 N.3     1  UNL1       -0.2974
      4 C         -12.1899  -16.1892   22.6270 C.3     1  UNL1        0.0689
      5 C         -12.6429  -17.5725   22.2649 C.3     1  UNL1        0.0212
      6 C         -11.6741  -18.7164   22.3163 C.3     1  UNL1        0.0234
      7 C         -10.7052  -19.8605   22.3677 C.3     1  UNL1        0.0078
      8 H         -10.3827  -15.2667   22.3882 H       1  UNL1        0.1232
      9 C         -10.5916  -17.7795   22.7640 C.ar    1  UNL1       -0.0218
     10 C          -9.8870  -16.9140   21.7618 C.ar    1  UNL1       -0.0034
     11 C          -8.8045  -15.9771   22.2095 C.ar    1  UNL1        0.0119
     12 C          -8.4266  -15.9057   23.6594 C.ar    1  UNL1        0.0682
     13 CL         -7.3441  -14.9687   24.1070 Cl      1  UNL1       -0.0814
     14 C          -9.1312  -16.7712   24.6615 C.ar    1  UNL1        0.0679
     15 CL         -8.7533  -16.6998   26.1114 Cl      1  UNL1       -0.0814
     16 C         -10.2137  -17.7082   24.2139 C.ar    1  UNL1        0.0080
     17 C          -8.8719  -18.9993   22.9980 C.3     1  UNL1        0.1290
     18 C          -4.7423  -20.7776   20.2295 C.3     1  UNL1        0.0540
     19 C          -6.0926  -20.2287   20.5836 C.ar    1  UNL1        0.0805
     20 C          -7.1770  -19.8619   19.6144 C.ar    1  UNL1        0.0367
     21 C          -8.3502  -19.3567   20.4008 C.ar    1  UNL1        0.0963
     22 N          -7.9908  -19.4113   21.8562 N.ar    1  UNL1       -0.2497
     23 N          -6.5955  -19.9502   21.9691 N.ar    1  UNL1       -0.1736
@<TRIPOS>BOND
     1    18    19    1
     2    19    20   ar
     3    20    21   ar
     4    21    22   ar
     5    22    17    1
     6    17     1    1
     7     1     2    1
     8     2     3    1
     9     3     4    1
    10     4     5    1
    11     5     6    1
    12     6     9    1
    13     9    10   ar
    14    10    11   ar
    15    11    12   ar
    16    12    13    1
    17    12    14   ar
    18    14    15    1
    19    14    16   ar
    20     6     7    1
    21    22    23   ar
    22    23    19   ar
    23     6     1    1
    24    16     9   ar
    25     7     1    1
    26     3     8    1
@<TRIPOS>MOLECULE
*****
 23 26 0 0 0
SMALL
GASTEIGER

@<TRIPOS>ATOM
      1 C         -12.0866   -6.1077   17.9928 C.3     1  UNL1        0.0409
      2 C         -11.9981   -4.6534   18.3493 C.3     1  UNL1        0.0707
      3 N         -10.7511   -4.1109   18.9823 N.3     1  UNL1       -0.2974
      4 C          -9.5926   -5.0228   19.2588 C.3     1  UNL1        0.0689
      5 C          -9.6811   -6.4771   18.9023 C.3     1  UNL1        0.0212
      6 C         -10.9281   -7.0195   18.2693 C.3     1  UNL1        0.0234
      7 C         -12.1751   -7.5621   17.6363 C.3     1  UNL1        0.0078
      8 H         -11.0271   -3.7060   19.8769 H       1  UNL1        0.1232
      9 C         -11.5458   -5.6535   18.3155 C.ar    1  UNL1       -0.0218
     10 C         -11.4224   -4.7343   17.1365 C.ar    1  UNL1       -0.0034
     11 C         -12.0401   -3.3682   17.1827 C.ar    1  UNL1        0.0119
     12 C         -12.7812   -2.9212   18.4079 C.ar    1  UNL1        0.0682
     13 CL        -13.3990   -1.5550   18.4540 Cl      1  UNL1       -0.0814
     14 C         -12.9046   -3.8403   19.5868 C.ar    1  UNL1        0.0679
     15 CL        -13.6457   -3.3933   20.8120 Cl      1  UNL1       -0.0814
     16 C         -12.2869   -5.2065   19.5407 C.ar    1  UNL1        0.0080
     17 C         -13.4753   -5.8945   17.4678 C.3     1  UNL1        0.1290
     18 C         -16.9759   -8.8279   20.1176 C.3     1  UNL1        0.0540
     19 C         -16.1667   -8.2313   19.0045 C.ar    1  UNL1        0.0805
     20 C         -16.2797   -8.5768   17.5492 C.ar    1  UNL1        0.0367
     21 C         -15.2852   -7.7435   16.7963 C.ar    1  UNL1        0.0963
     22 N         -14.5577   -6.8829   17.7864 N.ar    1  UNL1       -0.2497
     23 N         -15.1025   -7.1844   19.1511 N.ar    1  UNL1       -0.1736
@<TRIPOS>BOND
     1    18    19    1
     2    19    20   ar
     3    20    21   ar
     4    21    22   ar
     5    22    17    1
     6    17     1    1
     7     1     2    1
     8     2     3    1
     9     3     4    1
    10     4     5    1
    11     5     6    1
    12     6     9    1
    13     9    10   ar
    14    10    11   ar
    15    11    12   ar
    16    12    13    1
    17    12    14   ar
    18    14    15    1
    19    14    16   ar
    20     6     7    1
    21    22    23   ar
    22    23    19   ar
    23     6     1    1
    24    16     9   ar
    25     7     1    1
    26     3     8    1
@<TRIPOS>MOLECULE
*****
 23 26 0 0 0
SMALL
GASTEIGER

@<TRIPOS>ATOM
      1 C         -11.9803   -6.2008   17.9200 C.3     1  UNL1        0.0409
      2 C         -11.9366   -4.7579   18.3273 C.3     1  UNL1        0.0707
      3 N         -10.7246   -4.2110   19.0215 N.3     1  UNL1       -0.2974
      4 C          -9.5563   -5.1071   19.3084 C.3     1  UNL1        0.0689
      5 C          -9.6001   -6.5501   18.9011 C.3     1  UNL1        0.0212
      6 C         -10.8121   -7.0969   18.2069 C.3     1  UNL1        0.0234
      7 C         -12.0242   -7.6439   17.5126 C.3     1  UNL1        0.0078
      8 H         -11.0403   -3.8425   19.9186 H       1  UNL1        0.1232
      9 C         -11.4613   -5.7465   18.2764 C.ar    1  UNL1       -0.0218
     10 C         -12.2141   -5.3387   19.5081 C.ar    1  UNL1       -0.0034
     11 C         -12.8632   -3.9883   19.5776 C.ar    1  UNL1        0.0119
     12 C         -12.7596   -3.0456   18.4155 C.ar    1  UNL1        0.0682
     13 CL        -13.4088   -1.6951   18.4851 Cl      1  UNL1       -0.0814
     14 C         -12.0069   -3.4533   17.1838 C.ar    1  UNL1        0.0679
     15 CL        -11.9033   -2.5106   16.0217 Cl      1  UNL1       -0.0814
     16 C         -11.3577   -4.8038   17.1143 C.ar    1  UNL1        0.0080
     17 C         -13.3545   -5.9993   17.3535 C.3     1  UNL1        0.1290
     18 C         -16.8399   -8.8663   20.0946 C.3     1  UNL1        0.0540
     19 C         -16.0583   -8.2745   18.9593 C.ar    1  UNL1        0.0805
     20 C         -16.2448   -8.5856   17.5039 C.ar    1  UNL1        0.0367
     21 C         -15.2547   -7.7712   16.7251 C.ar    1  UNL1        0.0963
     22 N         -14.4562   -6.9567   17.6994 N.ar    1  UNL1       -0.2497
     23 N         -14.9529   -7.2678   19.0802 N.ar    1  UNL1       -0.1736
@<TRIPOS>BOND
     1    18    19    1
     2    19    20   ar
     3    20    21   ar
     4    21    22   ar
     5    22    17    1
     6    17     1    1
     7     1     2    1
     8     2     3    1
     9     3     4    1
    10     4     5    1
    11     5     6    1
    12     6     9    1
    13     9    10   ar
    14    10    11   ar
    15    11    12   ar
    16    12    13    1
    17    12    14   ar
    18    14    15    1
    19    14    16   ar
    20     6     7    1
    21    22    23   ar
    22    23    19   ar
    23     6     1    1
    24    16     9   ar
    25     7     1    1
    26     3     8    1
@<TRIPOS>MOLECULE
*****
 23 26 0 0 0
SMALL
GASTEIGER

@<TRIPOS>ATOM
      1 C         -10.9625   -5.2328   18.3687 C.3     1  UNL1        0.0409
      2 C         -11.7190   -6.3813   17.7701 C.3     1  UNL1        0.0707
      3 N         -11.1742   -7.7749   17.8763 N.3     1  UNL1       -0.2974
      4 C          -9.8730   -8.0198   18.5812 C.3     1  UNL1        0.0689
      5 C          -9.1165   -6.8712   19.1798 C.3     1  UNL1        0.0212
      6 C          -9.6612   -5.4777   19.0736 C.3     1  UNL1        0.0234
      7 C         -10.2060   -4.0841   18.9674 C.3     1  UNL1        0.0078
      8 H         -11.0625   -8.1208   16.9233 H       1  UNL1        0.1232
      9 C         -10.8492   -5.9994   18.3210 C.ar    1  UNL1       -0.0218
     10 C         -10.7639   -6.2117   16.8385 C.ar    1  UNL1       -0.0034
     11 C         -11.9519   -6.7334   16.0859 C.ar    1  UNL1        0.0119
     12 C         -13.2253   -7.0430   16.8158 C.ar    1  UNL1        0.0682
     13 CL        -14.4133   -7.5647   16.0631 Cl      1  UNL1       -0.0814
     14 C         -13.3106   -6.8308   18.2982 C.ar    1  UNL1        0.0679
     15 CL        -14.5840   -7.1403   19.0281 Cl      1  UNL1       -0.0814
     16 C         -12.1226   -6.3090   19.0509 C.ar    1  UNL1        0.0080
     17 C         -12.0282   -4.2868   17.9004 C.3     1  UNL1        0.1290
     18 C         -11.7682    0.9225   17.0777 C.3     1  UNL1        0.0540
     19 C         -11.5297   -0.5538   16.9613 C.ar    1  UNL1        0.0805
     20 C         -10.6022   -1.2232   15.9909 C.ar    1  UNL1        0.0367
     21 C         -10.6760   -2.7031   16.2245 C.ar    1  UNL1        0.0963
     22 N         -11.6492   -2.9483   17.3394 N.ar    1  UNL1       -0.2497
     23 N         -12.1767   -1.6200   17.7947 N.ar    1  UNL1       -0.1736
@<TRIPOS>BOND
     1    18    19    1
     2    19    20   ar
     3    20    21   ar
     4    21    22   ar
     5    22    17    1
     6    17     1    1
     7     1     2    1
     8     2     3    1
     9     3     4    1
    10     4     5    1
    11     5     6    1
    12     6     9    1
    13     9    10   ar
    14    10    11   ar
    15    11    12   ar
    16    12    13    1
    17    12    14   ar
    18    14    15    1
    19    14    16   ar
    20     6     7    1
    21    22    23   ar
    22    23    19   ar
    23     6     1    1
    24    16     9   ar
    25     7     1    1
    26     3     8    1
