@<TRIPOS>MOLECULE
*****
 33 36 0 0 0
SMALL
GASTEIGER

@<TRIPOS>ATOM
      1 N           4.5969    0.9513   28.4485 N.am    1  UNL1       -0.2533
      2 C           4.3868    0.0449   27.2721 C.2     1  UNL1        0.3092
      3 O           3.5906   -1.2166   27.4300 O.2     1  UNL1       -0.2521
      4 N           4.9729    0.3997   25.9377 N.am    1  UNL1       -0.2680
      5 H           5.1194    1.7792   28.3449 H       1  UNL1        0.1578
      6 H           5.4955    1.2276   25.8340 H       1  UNL1        0.1564
      7 C           4.7628   -0.5069   24.7613 C.ar    1  UNL1        0.0516
      8 C           3.5481   -0.3440   23.8964 C.ar    1  UNL1        0.0148
      9 C           3.3380   -1.2506   22.7200 C.ar    1  UNL1        0.0028
     10 C           4.3425   -2.3201   22.4084 C.ar    1  UNL1        0.0201
     11 C           5.5572   -2.4830   23.2733 C.ar    1  UNL1        0.0028
     12 C           5.7673   -1.5764   24.4498 C.ar    1  UNL1        0.0148
     13 C           4.1324   -3.2266   21.2320 C.ar    1  UNL1        0.1114
     14 C           3.6767   -2.8071   19.8659 C.ar    1  UNL1        0.0774
     15 S           3.6038   -4.0331   19.0047 S.2     1  UNL1        0.0378
     16 N           4.0144   -5.2103   19.8386 N.ar    1  UNL1       -0.1094
     17 N           4.3412   -4.7119   21.2152 N.ar    1  UNL1       -0.1405
     18 N           2.5699    0.7319   30.1772 N.ar    1  UNL1       -0.2162
     19 N           2.4314    0.2631   31.5953 N.ar    1  UNL1       -0.1683
     20 C           3.7866   -0.1620   32.0775 C.ar    1  UNL1        0.0810
     21 C           4.7628    0.0440   30.9574 C.ar    1  UNL1        0.0509
     22 C           4.0108    0.5965   29.7830 C.ar    1  UNL1        0.1380
     23 C          -1.8615    2.7877   26.6934 C.3     1  UNL1        0.0310
     24 C          -0.7537    2.2737   27.5644 C.ar    1  UNL1       -0.0218
     25 C           0.1985    3.2349   28.2121 C.ar    1  UNL1       -0.0027
     26 C           1.3063    2.7209   29.0831 C.ar    1  UNL1        0.0189
     27 C           1.4620    1.2458   29.3062 C.ar    1  UNL1        0.0842
     28 C           0.5099    0.2847   28.6585 C.ar    1  UNL1        0.0189
     29 C          -0.5979    0.7987   27.7875 C.ar    1  UNL1       -0.0027
     30 C           4.1091   -0.6990   33.4405 C.3     1  UNL1        0.0372
     31 C           3.9046    0.6665   34.0267 C.3     1  UNL1        0.0060
     32 C           4.3136   -2.0644   32.8542 C.3     1  UNL1        0.0060
     33 C           4.4315   -1.2359   34.8034 C.3     1  UNL1        0.0060
@<TRIPOS>BOND
     1    23    24    1
     2    24    25   ar
     3    25    26   ar
     4    26    27   ar
     5    27    18    1
     6    18    19   ar
     7    19    20   ar
     8    20    30    1
     9    30    31    1
    10    30    32    1
    11    30    33    1
    12    20    21   ar
    13    21    22   ar
    14    22     1    1
    15     1     2   am
    16     2     3    2
    17     2     4   am
    18     4     7    1
    19     7     8   ar
    20     8     9   ar
    21     9    10   ar
    22    10    13    1
    23    13    14   ar
    24    14    15   ar
    25    15    16   ar
    26    16    17   ar
    27    10    11   ar
    28    11    12   ar
    29    27    28   ar
    30    28    29   ar
    31    29    24   ar
    32    22    18   ar
    33    12     7   ar
    34    17    13   ar
    35     1     5    1
    36     4     6    1
@<TRIPOS>MOLECULE
*****
 33 36 0 0 0
SMALL
GASTEIGER

@<TRIPOS>ATOM
      1 N           0.4395    3.3744   24.7951 N.am    1  UNL1       -0.2533
      2 C           0.9072    2.1422   24.0791 C.2     1  UNL1        0.3092
      3 O           0.0058    0.9477   23.9747 O.2     1  UNL1       -0.2521
      4 N           2.2762    2.1043   23.4673 N.am    1  UNL1       -0.2680
      5 H           1.0311    4.1583   24.8635 H       1  UNL1        0.1578
      6 H           2.8678    2.8882   23.5357 H       1  UNL1        0.1564
      7 C           2.7439    0.8720   22.7512 C.ar    1  UNL1        0.0516
      8 C           3.3327   -0.2686   23.5274 C.ar    1  UNL1        0.0148
      9 C           3.8004   -1.5008   22.8114 C.ar    1  UNL1        0.0028
     10 C           3.6792   -1.5927   21.3191 C.ar    1  UNL1        0.0201
     11 C           3.0904   -0.4522   20.5429 C.ar    1  UNL1        0.0028
     12 C           2.6227    0.7801   21.2590 C.ar    1  UNL1        0.0148
     13 C           4.1469   -2.8250   20.6031 C.ar    1  UNL1        0.1114
     14 C           3.5308   -3.4151   19.3692 C.ar    1  UNL1        0.0774
     15 S           4.3159   -4.6383   18.9988 S.2     1  UNL1        0.0378
     16 N           5.4171   -4.8043   20.0036 N.ar    1  UNL1       -0.1094
     17 N           5.3127   -3.6836   20.9952 N.ar    1  UNL1       -0.1405
     18 N          -1.3205    2.8239   26.7301 N.ar    1  UNL1       -0.2162
     19 N          -2.7806    3.0932   26.9438 N.ar    1  UNL1       -0.1683
     20 C          -3.2920    3.8480   25.7527 C.ar    1  UNL1        0.0810
     21 C          -2.1480    4.0452   24.8028 C.ar    1  UNL1        0.0509
     22 C          -0.9296    3.4123   25.4069 C.ar    1  UNL1        0.1380
     23 C           2.3170   -0.0943   30.5053 C.3     1  UNL1        0.0310
     24 C           1.4076    0.6352   29.5615 C.ar    1  UNL1       -0.0218
     25 C           0.3412   -0.1134   28.8183 C.ar    1  UNL1       -0.0027
     26 C          -0.5681    0.6162   27.8745 C.ar    1  UNL1        0.0189
     27 C          -0.4111    2.0943   27.6739 C.ar    1  UNL1        0.0842
     28 C           0.6553    2.8430   28.4171 C.ar    1  UNL1        0.0189
     29 C           1.5646    2.1134   29.3609 C.ar    1  UNL1       -0.0027
     30 C          -4.7001    4.3223   25.5475 C.3     1  UNL1        0.0372
     31 C          -4.6587    5.0195   26.8750 C.3     1  UNL1        0.0060
     32 C          -4.7416    3.6251   24.2201 C.3     1  UNL1        0.0060
     33 C          -6.1083    4.7966   25.3424 C.3     1  UNL1        0.0060
@<TRIPOS>BOND
     1    23    24    1
     2    24    25   ar
     3    25    26   ar
     4    26    27   ar
     5    27    18    1
     6    18    19   ar
     7    19    20   ar
     8    20    30    1
     9    30    31    1
    10    30    32    1
    11    30    33    1
    12    20    21   ar
    13    21    22   ar
    14    22     1    1
    15     1     2   am
    16     2     3    2
    17     2     4   am
    18     4     7    1
    19     7     8   ar
    20     8     9   ar
    21     9    10   ar
    22    10    13    1
    23    13    14   ar
    24    14    15   ar
    25    15    16   ar
    26    16    17   ar
    27    10    11   ar
    28    11    12   ar
    29    27    28   ar
    30    28    29   ar
    31    29    24   ar
    32    22    18   ar
    33    12     7   ar
    34    17    13   ar
    35     1     5    1
    36     4     6    1
@<TRIPOS>MOLECULE
*****
 33 36 0 0 0
SMALL
GASTEIGER

@<TRIPOS>ATOM
      1 N           3.5439    0.3629   22.1555 N.am    1  UNL1       -0.2533
      2 C           2.2127    0.8660   22.6296 C.2     1  UNL1        0.3092
      3 O           0.9561    0.4324   21.9344 O.2     1  UNL1       -0.2521
      4 N           2.1380    1.8027   23.7988 N.am    1  UNL1       -0.2680
      5 H           4.3685    0.6475   22.6117 H       1  UNL1        0.1578
      6 H           2.9626    2.0873   24.2550 H       1  UNL1        0.1564
      7 C           0.8067    2.3057   24.2728 C.ar    1  UNL1        0.0516
      8 C           0.0780    3.3547   23.4863 C.ar    1  UNL1        0.0148
      9 C          -1.2533    3.8578   23.9604 C.ar    1  UNL1        0.0028
     10 C          -1.8558    3.3119   25.2209 C.ar    1  UNL1        0.0201
     11 C          -1.1271    2.2629   26.0074 C.ar    1  UNL1        0.0028
     12 C           0.2042    1.7599   25.5333 C.ar    1  UNL1        0.0148
     13 C          -3.1870    3.8150   25.6949 C.ar    1  UNL1        0.1114
     14 C          -4.2921    4.3384   24.8261 C.ar    1  UNL1        0.0774
     15 S          -5.4350    4.7299   25.7152 S.2     1  UNL1        0.0378
     16 N          -5.0363    4.4484   27.1336 N.ar    1  UNL1       -0.1094
     17 N          -3.6469    3.8829   27.1211 N.ar    1  UNL1       -0.1405
     18 N           3.1873   -0.2679   19.5826 N.ar    1  UNL1       -0.2162
     19 N           3.4400   -1.4859   18.7443 N.ar    1  UNL1       -0.1683
     20 C           4.0275   -2.5445   19.6299 C.ar    1  UNL1        0.0810
     21 C           4.1379   -1.9807   21.0156 C.ar    1  UNL1        0.0509
     22 C           3.6186   -0.5738   20.9863 C.ar    1  UNL1        0.1380
     23 C           0.8598    4.9168   17.6586 C.3     1  UNL1        0.0310
     24 C           1.4417    3.6206   18.1396 C.ar    1  UNL1       -0.0218
     25 C           2.8797    3.5546   18.5610 C.ar    1  UNL1       -0.0027
     26 C           3.4616    2.2584   19.0420 C.ar    1  UNL1        0.0189
     27 C           2.6054    1.0282   19.1016 C.ar    1  UNL1        0.0842
     28 C           1.1674    1.0942   18.6802 C.ar    1  UNL1        0.0189
     29 C           0.5855    2.3904   18.1992 C.ar    1  UNL1       -0.0027
     30 C           4.4333   -3.9244   19.2046 C.3     1  UNL1        0.0372
     31 C           2.9905   -4.2942   19.0276 C.3     1  UNL1        0.0060
     32 C           5.8762   -3.5547   19.3816 C.3     1  UNL1        0.0060
     33 C           4.8392   -5.3044   18.7792 C.3     1  UNL1        0.0060
@<TRIPOS>BOND
     1    23    24    1
     2    24    25   ar
     3    25    26   ar
     4    26    27   ar
     5    27    18    1
     6    18    19   ar
     7    19    20   ar
     8    20    30    1
     9    30    31    1
    10    30    32    1
    11    30    33    1
    12    20    21   ar
    13    21    22   ar
    14    22     1    1
    15     1     2   am
    16     2     3    2
    17     2     4   am
    18     4     7    1
    19     7     8   ar
    20     8     9   ar
    21     9    10   ar
    22    10    13    1
    23    13    14   ar
    24    14    15   ar
    25    15    16   ar
    26    16    17   ar
    27    10    11   ar
    28    11    12   ar
    29    27    28   ar
    30    28    29   ar
    31    29    24   ar
    32    22    18   ar
    33    12     7   ar
    34    17    13   ar
    35     1     5    1
    36     4     6    1
@<TRIPOS>MOLECULE
*****
 33 36 0 0 0
SMALL
GASTEIGER

@<TRIPOS>ATOM
      1 N           4.3761    0.4743   23.6550 N.am    1  UNL1       -0.2533
      2 C           4.7400   -0.8615   24.2321 C.2     1  UNL1        0.3092
      3 O           3.6655   -1.7783   24.7369 O.2     1  UNL1       -0.2521
      4 N           6.1785   -1.2806   24.3043 N.am    1  UNL1       -0.2680
      5 H           5.0814    1.0760   23.3236 H       1  UNL1        0.1578
      6 H           6.8837   -0.6789   23.9730 H       1  UNL1        0.1564
      7 C           6.5423   -2.6165   24.8814 C.ar    1  UNL1        0.0516
      8 C           6.7941   -3.7828   23.9724 C.ar    1  UNL1        0.0148
      9 C           7.1580   -5.1186   24.5495 C.ar    1  UNL1        0.0028
     10 C           7.2701   -5.2883   26.0356 C.ar    1  UNL1        0.0201
     11 C           7.0183   -4.1220   26.9446 C.ar    1  UNL1        0.0028
     12 C           6.6544   -2.7861   26.3675 C.ar    1  UNL1        0.0148
     13 C           7.6339   -6.6242   26.6127 C.ar    1  UNL1        0.1114
     14 C           8.5537   -6.8622   27.7734 C.ar    1  UNL1        0.0774
     15 S           8.6301   -8.3417   28.0085 S.2     1  UNL1        0.0378
     16 N           7.7576   -9.0180   26.9930 N.ar    1  UNL1       -0.1094
     17 N           7.1419   -7.9565   26.1303 N.ar    1  UNL1       -0.1405
     18 N           2.0749    0.8764   22.3558 N.ar    1  UNL1       -0.2162
     19 N           0.7135    1.3757   22.7396 N.ar    1  UNL1       -0.1683
     20 C           0.7348    1.7013   24.2036 C.ar    1  UNL1        0.0810
     21 C           2.1095    1.4032   24.7248 C.ar    1  UNL1        0.0509
     22 C           2.9377    0.8935   23.5827 C.ar    1  UNL1        0.1380
     23 C           3.7717   -0.8803   16.8754 C.3     1  UNL1        0.0310
     24 C           3.3475   -0.4411   18.2455 C.ar    1  UNL1       -0.0218
     25 C           3.0836    1.0097   18.5198 C.ar    1  UNL1       -0.0027
     26 C           2.6594    1.4489   19.8899 C.ar    1  UNL1        0.0189
     27 C           2.4991    0.4372   20.9857 C.ar    1  UNL1        0.0842
     28 C           2.7630   -1.0136   20.7114 C.ar    1  UNL1        0.0189
     29 C           3.1872   -1.4528   19.3413 C.ar    1  UNL1       -0.0027
     30 C          -0.4163    2.2317   25.0057 C.3     1  UNL1        0.0372
     31 C          -0.0810    1.2806   26.1161 C.3     1  UNL1        0.0060
     32 C          -0.7517    3.1829   23.8954 C.3     1  UNL1        0.0060
     33 C          -1.5675    2.7622   25.8078 C.3     1  UNL1        0.0060
@<TRIPOS>BOND
     1    23    24    1
     2    24    25   ar
     3    25    26   ar
     4    26    27   ar
     5    27    18    1
     6    18    19   ar
     7    19    20   ar
     8    20    30    1
     9    30    31    1
    10    30    32    1
    11    30    33    1
    12    20    21   ar
    13    21    22   ar
    14    22     1    1
    15     1     2   am
    16     2     3    2
    17     2     4   am
    18     4     7    1
    19     7     8   ar
    20     8     9   ar
    21     9    10   ar
    22    10    13    1
    23    13    14   ar
    24    14    15   ar
    25    15    16   ar
    26    16    17   ar
    27    10    11   ar
    28    11    12   ar
    29    27    28   ar
    30    28    29   ar
    31    29    24   ar
    32    22    18   ar
    33    12     7   ar
    34    17    13   ar
    35     1     5    1
    36     4     6    1
@<TRIPOS>MOLECULE
*****
 33 36 0 0 0
SMALL
GASTEIGER

@<TRIPOS>ATOM
      1 N          -0.2894    3.6353   22.9800 N.am    1  UNL1       -0.2533
      2 C           0.3170    2.3411   22.5251 C.2     1  UNL1        0.3092
      3 O          -0.4785    1.0717   22.6031 O.2     1  UNL1       -0.2521
      4 N           1.7190    2.3159   21.9922 N.am    1  UNL1       -0.2680
      5 H           0.2328    4.4684   22.9287 H       1  UNL1        0.1578
      6 H           2.2411    3.1490   21.9410 H       1  UNL1        0.1564
      7 C           2.3253    1.0215   21.5374 C.ar    1  UNL1        0.0516
      8 C           2.9610    0.0995   22.5353 C.ar    1  UNL1        0.0148
      9 C           3.5674   -1.1949   22.0804 C.ar    1  UNL1        0.0028
     10 C           3.5381   -1.5673   20.6277 C.ar    1  UNL1        0.0201
     11 C           2.9024   -0.6453   19.6298 C.ar    1  UNL1        0.0028
     12 C           2.2961    0.6491   20.0847 C.ar    1  UNL1        0.0148
     13 C           4.1445   -2.8617   20.1729 C.ar    1  UNL1        0.1114
     14 C           3.5966   -3.7663   19.1092 C.ar    1  UNL1        0.0774
     15 S           4.5187   -4.9424   18.9808 S.2     1  UNL1        0.0378
     16 N           5.6365   -4.7646   19.9651 N.ar    1  UNL1       -0.1094
     17 N           5.4052   -3.4786   20.7019 N.ar    1  UNL1       -0.1405
     18 N          -2.0979    3.4184   24.9363 N.ar    1  UNL1       -0.2162
     19 N          -3.5907    3.5405   25.0190 N.ar    1  UNL1       -0.1683
     20 C          -4.1066    3.8579   23.6467 C.ar    1  UNL1        0.0810
     21 C          -2.9327    3.9321   22.7159 C.ar    1  UNL1        0.0509
     22 C          -1.6913    3.6605   23.5129 C.ar    1  UNL1        0.1380
     23 C           1.5976    2.1797   29.4979 C.3     1  UNL1        0.0310
     24 C           0.6737    2.4894   28.3575 C.ar    1  UNL1       -0.0218
     25 C           0.2869    1.4094   27.3912 C.ar    1  UNL1       -0.0027
     26 C          -0.6370    1.7191   26.2507 C.ar    1  UNL1        0.0189
     27 C          -1.1741    3.1088   26.0767 C.ar    1  UNL1        0.0842
     28 C          -0.7872    4.1888   27.0431 C.ar    1  UNL1        0.0189
     29 C           0.1367    3.8791   28.1835 C.ar    1  UNL1       -0.0027
     30 C          -5.5440    4.0648   23.2713 C.3     1  UNL1        0.0372
     31 C          -5.8525    4.4777   24.6800 C.3     1  UNL1        0.0060
     32 C          -5.2355    3.6519   21.8626 C.3     1  UNL1        0.0060
     33 C          -6.9814    4.2718   22.8958 C.3     1  UNL1        0.0060
@<TRIPOS>BOND
     1    23    24    1
     2    24    25   ar
     3    25    26   ar
     4    26    27   ar
     5    27    18    1
     6    18    19   ar
     7    19    20   ar
     8    20    30    1
     9    30    31    1
    10    30    32    1
    11    30    33    1
    12    20    21   ar
    13    21    22   ar
    14    22     1    1
    15     1     2   am
    16     2     3    2
    17     2     4   am
    18     4     7    1
    19     7     8   ar
    20     8     9   ar
    21     9    10   ar
    22    10    13    1
    23    13    14   ar
    24    14    15   ar
    25    15    16   ar
    26    16    17   ar
    27    10    11   ar
    28    11    12   ar
    29    27    28   ar
    30    28    29   ar
    31    29    24   ar
    32    22    18   ar
    33    12     7   ar
    34    17    13   ar
    35     1     5    1
    36     4     6    1
@<TRIPOS>MOLECULE
*****
 33 36 0 0 0
SMALL
GASTEIGER

@<TRIPOS>ATOM
      1 N          -3.0935    2.6964   20.5998 N.am    1  UNL1       -0.2533
      2 C          -3.6439    3.5436   21.7085 C.2     1  UNL1        0.3092
      3 O          -3.1015    4.9231   21.9384 O.2     1  UNL1       -0.2521
      4 N          -4.7367    3.0114   22.5874 N.am    1  UNL1       -0.2680
      5 H          -3.4495    1.7911   20.4490 H       1  UNL1        0.1578
      6 H          -5.0927    2.1060   22.4365 H       1  UNL1        0.1564
      7 C          -5.2871    3.8586   23.6961 C.ar    1  UNL1        0.0516
      8 C          -6.5452    4.6473   23.4836 C.ar    1  UNL1        0.0148
      9 C          -7.0956    5.4946   24.5923 C.ar    1  UNL1        0.0028
     10 C          -6.3879    5.5532   25.9135 C.ar    1  UNL1        0.0201
     11 C          -5.1298    4.7645   26.1260 C.ar    1  UNL1        0.0028
     12 C          -4.5794    3.9173   25.0173 C.ar    1  UNL1        0.0148
     13 C          -6.9383    6.4004   27.0222 C.ar    1  UNL1        0.1114
     14 C          -6.1724    6.9066   28.2085 C.ar    1  UNL1        0.0774
     15 S          -7.1120    7.7093   29.0587 S.2     1  UNL1        0.0378
     16 N          -8.4586    7.6991   28.3980 N.ar    1  UNL1       -0.1094
     17 N          -8.3513    6.8902   27.1393 N.ar    1  UNL1       -0.1405
     18 N          -2.1756    4.1808   18.5752 N.ar    1  UNL1       -0.2162
     19 N          -0.8240    4.4427   17.9796 N.ar    1  UNL1       -0.1683
     20 C           0.1863    3.6524   18.7573 C.ar    1  UNL1        0.0810
     21 C          -0.5409    2.9021   19.8335 C.ar    1  UNL1        0.0509
     22 C          -2.0006    3.2287   19.7209 C.ar    1  UNL1        0.1380
     23 C          -7.3697    6.5295   16.7030 C.3     1  UNL1        0.0310
     24 C          -6.0712    5.9423   17.1711 C.ar    1  UNL1       -0.0218
     25 C          -5.4431    6.4294   18.4431 C.ar    1  UNL1       -0.0027
     26 C          -4.1446    5.8422   18.9112 C.ar    1  UNL1        0.0189
     27 C          -3.4741    4.7680   18.1071 C.ar    1  UNL1        0.0842
     28 C          -4.1022    4.2809   16.8351 C.ar    1  UNL1        0.0189
     29 C          -5.4008    4.8681   16.3670 C.ar    1  UNL1       -0.0027
     30 C           1.6642    3.6185   18.5034 C.3     1  UNL1        0.0372
     31 C           1.5855    4.9732   17.8642 C.3     1  UNL1        0.0060
     32 C           1.7429    2.2638   19.1426 C.3     1  UNL1        0.0060
     33 C           3.1422    3.5845   18.2494 C.3     1  UNL1        0.0060
@<TRIPOS>BOND
     1    23    24    1
     2    24    25   ar
     3    25    26   ar
     4    26    27   ar
     5    27    18    1
     6    18    19   ar
     7    19    20   ar
     8    20    30    1
     9    30    31    1
    10    30    32    1
    11    30    33    1
    12    20    21   ar
    13    21    22   ar
    14    22     1    1
    15     1     2   am
    16     2     3    2
    17     2     4   am
    18     4     7    1
    19     7     8   ar
    20     8     9   ar
    21     9    10   ar
    22    10    13    1
    23    13    14   ar
    24    14    15   ar
    25    15    16   ar
    26    16    17   ar
    27    10    11   ar
    28    11    12   ar
    29    27    28   ar
    30    28    29   ar
    31    29    24   ar
    32    22    18   ar
    33    12     7   ar
    34    17    13   ar
    35     1     5    1
    36     4     6    1
@<TRIPOS>MOLECULE
*****
 33 36 0 0 0
SMALL
GASTEIGER

@<TRIPOS>ATOM
      1 N           7.0041   -1.7024   28.1159 N.am    1  UNL1       -0.2533
      2 C           5.9248   -1.4085   27.1167 C.2     1  UNL1        0.3092
      3 O           4.4833   -1.5554   27.5046 O.2     1  UNL1       -0.2521
      4 N           6.2870   -0.9677   25.7294 N.am    1  UNL1       -0.2680
      5 H           7.9502   -1.6060   27.8613 H       1  UNL1        0.1578
      6 H           7.2330   -0.8712   25.4747 H       1  UNL1        0.1564
      7 C           5.2076   -0.6738   24.7301 C.ar    1  UNL1        0.0516
      8 C           4.6318    0.7079   24.6325 C.ar    1  UNL1        0.0148
      9 C           3.5525    1.0018   23.6332 C.ar    1  UNL1        0.0028
     10 C           3.0488   -0.0859   22.7315 C.ar    1  UNL1        0.0201
     11 C           3.6246   -1.4675   22.8290 C.ar    1  UNL1        0.0028
     12 C           4.7040   -1.7615   23.8283 C.ar    1  UNL1        0.0148
     13 C           1.9695    0.2080   21.7322 C.ar    1  UNL1        0.1114
     14 C           1.9965   -0.1471   20.2751 C.ar    1  UNL1        0.0774
     15 S           0.7173    0.3340   19.6569 S.2     1  UNL1        0.0378
     16 N          -0.1003    0.9866   20.7319 N.ar    1  UNL1       -0.1094
     17 N           0.6736    0.9087   22.0146 N.ar    1  UNL1       -0.1405
     18 N           6.6617   -3.5537   30.0135 N.ar    1  UNL1       -0.2162
     19 N           6.2285   -3.5331   31.4494 N.ar    1  UNL1       -0.1683
     20 C           5.9410   -2.1101   31.8266 C.ar    1  UNL1        0.0810
     21 C           6.1966   -1.2511   30.6238 C.ar    1  UNL1        0.0509
     22 C           6.6420   -2.1433   29.5032 C.ar    1  UNL1        0.1380
     23 C           8.2030   -8.4225   26.8640 C.3     1  UNL1        0.0310
     24 C           7.8177   -7.2053   27.6514 C.ar    1  UNL1       -0.0218
     25 C           8.5006   -6.9069   28.9530 C.ar    1  UNL1       -0.0027
     26 C           8.1153   -5.6897   29.7404 C.ar    1  UNL1        0.0189
     27 C           7.0470   -4.7709   29.2261 C.ar    1  UNL1        0.0842
     28 C           6.3641   -5.0693   27.9244 C.ar    1  UNL1        0.0189
     29 C           6.7494   -6.2865   27.1370 C.ar    1  UNL1       -0.0027
     30 C           5.4791   -1.6303   33.1706 C.3     1  UNL1        0.0372
     31 C           6.5156   -0.5465   33.1400 C.3     1  UNL1        0.0060
     32 C           4.4425   -2.7141   33.2013 C.3     1  UNL1        0.0060
     33 C           5.0172   -1.1505   34.5146 C.3     1  UNL1        0.0060
@<TRIPOS>BOND
     1    23    24    1
     2    24    25   ar
     3    25    26   ar
     4    26    27   ar
     5    27    18    1
     6    18    19   ar
     7    19    20   ar
     8    20    30    1
     9    30    31    1
    10    30    32    1
    11    30    33    1
    12    20    21   ar
    13    21    22   ar
    14    22     1    1
    15     1     2   am
    16     2     3    2
    17     2     4   am
    18     4     7    1
    19     7     8   ar
    20     8     9   ar
    21     9    10   ar
    22    10    13    1
    23    13    14   ar
    24    14    15   ar
    25    15    16   ar
    26    16    17   ar
    27    10    11   ar
    28    11    12   ar
    29    27    28   ar
    30    28    29   ar
    31    29    24   ar
    32    22    18   ar
    33    12     7   ar
    34    17    13   ar
    35     1     5    1
    36     4     6    1
@<TRIPOS>MOLECULE
*****
 33 36 0 0 0
SMALL
GASTEIGER

@<TRIPOS>ATOM
      1 N          -1.3447    2.4059   20.1580 N.am    1  UNL1       -0.2533
      2 C          -2.4473    3.1619   20.8382 C.2     1  UNL1        0.3092
      3 O          -2.1680    4.4985   21.4591 O.2     1  UNL1       -0.2521
      4 N          -3.8291    2.5813   20.8976 N.am    1  UNL1       -0.2680
      5 H          -1.5280    1.5286   19.7505 H       1  UNL1        0.1578
      6 H          -4.0124    1.7041   20.4901 H       1  UNL1        0.1564
      7 C          -4.9316    3.3374   21.5779 C.ar    1  UNL1        0.0516
      8 C          -5.0780    3.2701   23.0692 C.ar    1  UNL1        0.0148
      9 C          -6.1806    4.0261   23.7495 C.ar    1  UNL1        0.0028
     10 C          -7.1367    4.8496   22.9385 C.ar    1  UNL1        0.0201
     11 C          -6.9903    4.9169   21.4472 C.ar    1  UNL1        0.0028
     12 C          -5.8878    4.1608   20.7669 C.ar    1  UNL1        0.0148
     13 C          -8.2392    5.6056   23.6188 C.ar    1  UNL1        0.1114
     14 C          -8.3031    7.0924   23.8069 C.ar    1  UNL1        0.0774
     15 S          -9.5748    7.4134   24.5347 S.2     1  UNL1        0.0378
     16 N         -10.2969    6.1249   24.7965 N.ar    1  UNL1       -0.1094
     17 N          -9.4714    5.0076   24.2304 N.ar    1  UNL1       -0.1405
     18 N           0.9744    3.1522   21.2579 N.ar    1  UNL1       -0.2162
     19 N           2.2408    3.7713   20.7452 N.ar    1  UNL1       -0.1683
     20 C           2.0862    3.9881   19.2690 C.ar    1  UNL1        0.0810
     21 C           0.7242    3.5030   18.8693 C.ar    1  UNL1        0.0509
     22 C           0.0371    2.9864   20.0986 C.ar    1  UNL1        0.1380
     23 C          -0.1455    1.6097   26.9470 C.3     1  UNL1        0.0310
     24 C           0.1344    1.9953   25.5248 C.ar    1  UNL1       -0.0218
     25 C          -0.0225    3.4222   25.0897 C.ar    1  UNL1       -0.0027
     26 C           0.2575    3.8078   23.6675 C.ar    1  UNL1        0.0189
     27 C           0.6944    2.7666   22.6802 C.ar    1  UNL1        0.0842
     28 C           0.8514    1.3397   23.1152 C.ar    1  UNL1        0.0189
     29 C           0.5714    0.9540   24.5375 C.ar    1  UNL1       -0.0027
     30 C           3.1133    4.5852   18.3532 C.3     1  UNL1        0.0372
     31 C           2.4673    5.9304   18.5059 C.3     1  UNL1        0.0060
     32 C           3.7592    3.2401   18.2006 C.3     1  UNL1        0.0060
     33 C           4.1403    5.1824   17.4375 C.3     1  UNL1        0.0060
@<TRIPOS>BOND
     1    23    24    1
     2    24    25   ar
     3    25    26   ar
     4    26    27   ar
     5    27    18    1
     6    18    19   ar
     7    19    20   ar
     8    20    30    1
     9    30    31    1
    10    30    32    1
    11    30    33    1
    12    20    21   ar
    13    21    22   ar
    14    22     1    1
    15     1     2   am
    16     2     3    2
    17     2     4   am
    18     4     7    1
    19     7     8   ar
    20     8     9   ar
    21     9    10   ar
    22    10    13    1
    23    13    14   ar
    24    14    15   ar
    25    15    16   ar
    26    16    17   ar
    27    10    11   ar
    28    11    12   ar
    29    27    28   ar
    30    28    29   ar
    31    29    24   ar
    32    22    18   ar
    33    12     7   ar
    34    17    13   ar
    35     1     5    1
    36     4     6    1
@<TRIPOS>MOLECULE
*****
 33 36 0 0 0
SMALL
GASTEIGER

@<TRIPOS>ATOM
      1 N           6.0106   -1.1184   24.9950 N.am    1  UNL1       -0.2533
      2 C           4.6226   -0.5836   25.1882 C.2     1  UNL1        0.3092
      3 O           3.5603   -1.4546   25.7906 O.2     1  UNL1       -0.2521
      4 N           4.2968    0.8223   24.7790 N.am    1  UNL1       -0.2680
      5 H           6.7078   -0.5467   24.5996 H       1  UNL1        0.1578
      6 H           4.9940    1.3940   24.3836 H       1  UNL1        0.1564
      7 C           2.9087    1.3571   24.9722 C.ar    1  UNL1        0.0516
      8 C           1.8119    0.9537   24.0318 C.ar    1  UNL1        0.0148
      9 C           0.4239    1.4885   24.2250 C.ar    1  UNL1        0.0028
     10 C           0.1326    2.4266   25.3586 C.ar    1  UNL1        0.0201
     11 C           1.2294    2.8299   26.2990 C.ar    1  UNL1        0.0028
     12 C           2.6174    2.2952   26.1058 C.ar    1  UNL1        0.0148
     13 C          -1.2555    2.9614   25.5518 C.ar    1  UNL1        0.1114
     14 C          -2.1566    3.4853   24.4731 C.ar    1  UNL1        0.0774
     15 S          -3.4441    3.9139   25.1123 S.2     1  UNL1        0.0378
     16 N          -3.3388    3.6548   26.5860 N.ar    1  UNL1       -0.1094
     17 N          -1.9861    3.0661   26.8576 N.ar    1  UNL1       -0.1405
     18 N           6.3472   -3.7243   24.5044 N.ar    1  UNL1       -0.2162
     19 N           6.7261   -4.9186   25.3291 N.ar    1  UNL1       -0.1683
     20 C           6.9495   -4.4566   26.7386 C.ar    1  UNL1        0.0810
     21 C           6.7086   -2.9768   26.7850 C.ar    1  UNL1        0.0509
     22 C           6.3364   -2.5242   25.4042 C.ar    1  UNL1        0.1380
     23 C           5.0948   -3.7443   18.6366 C.3     1  UNL1        0.0310
     24 C           5.4079   -3.7393   20.1035 C.ar    1  UNL1       -0.0218
     25 C           4.3086   -3.5400   21.1044 C.ar    1  UNL1       -0.0027
     26 C           4.6217   -3.5350   22.5713 C.ar    1  UNL1        0.0189
     27 C           6.0341   -3.7293   23.0374 C.ar    1  UNL1        0.0842
     28 C           7.1334   -3.9287   22.0366 C.ar    1  UNL1        0.0189
     29 C           6.8203   -3.9337   20.5696 C.ar    1  UNL1       -0.0027
     30 C           7.3443   -5.3224   27.8981 C.3     1  UNL1        0.0372
     31 C           7.4109   -6.5121   26.9871 C.3     1  UNL1        0.0060
     32 C           7.2778   -4.1326   28.8092 C.3     1  UNL1        0.0060
     33 C           7.7392   -6.1881   29.0577 C.3     1  UNL1        0.0060
@<TRIPOS>BOND
     1    23    24    1
     2    24    25   ar
     3    25    26   ar
     4    26    27   ar
     5    27    18    1
     6    18    19   ar
     7    19    20   ar
     8    20    30    1
     9    30    31    1
    10    30    32    1
    11    30    33    1
    12    20    21   ar
    13    21    22   ar
    14    22     1    1
    15     1     2   am
    16     2     3    2
    17     2     4   am
    18     4     7    1
    19     7     8   ar
    20     8     9   ar
    21     9    10   ar
    22    10    13    1
    23    13    14   ar
    24    14    15   ar
    25    15    16   ar
    26    16    17   ar
    27    10    11   ar
    28    11    12   ar
    29    27    28   ar
    30    28    29   ar
    31    29    24   ar
    32    22    18   ar
    33    12     7   ar
    34    17    13   ar
    35     1     5    1
    36     4     6    1
