@<TRIPOS>MOLECULE
*****
 26 28 0 0 0
SMALL
GASTEIGER

@<TRIPOS>ATOM
      1 C          -9.3257  -18.5491   22.4397 C.3     1  UNL1        0.0564
      2 C          -4.1629  -18.5848   23.0264 C.3     1  UNL1        0.0310
      3 C          -5.3763  -18.8445   22.1838 C.ar    1  UNL1       -0.0221
      4 C          -5.2219  -19.3819   20.7919 C.ar    1  UNL1       -0.0043
      5 C          -6.4354  -19.6417   19.9493 C.ar    1  UNL1       -0.0006
      6 C          -7.8033  -19.3641   20.4985 C.ar    1  UNL1       -0.0037
      7 C          -7.9577  -18.8267   21.8904 C.ar    1  UNL1       -0.0155
      8 C          -6.7442  -18.5670   22.7330 C.ar    1  UNL1       -0.0079
      9 C          -8.8087  -17.3044   23.0979 C.ar    1  UNL1       -0.0152
     10 C          -8.2050  -16.2116   22.2663 C.ar    1  UNL1       -0.0037
     11 C          -7.6881  -14.9668   22.9245 C.ar    1  UNL1       -0.0003
     12 C          -7.7747  -14.8148   24.4143 C.ar    1  UNL1       -0.0000
     13 C          -8.3784  -15.9075   25.2458 C.ar    1  UNL1       -0.0003
     14 C          -8.8954  -17.1523   24.5877 C.ar    1  UNL1       -0.0037
     15 C         -10.6936  -18.2715   22.9890 C.ar    1  UNL1       -0.0152
     16 C         -11.4983  -17.1245   22.4534 C.ar    1  UNL1       -0.0037
     17 C         -12.8662  -16.8469   23.0027 C.ar    1  UNL1       -0.0003
     18 C         -13.4294  -17.7162   24.0877 C.ar    1  UNL1       -0.0000
     19 C         -12.6247  -18.8631   24.6233 C.ar    1  UNL1       -0.0003
     20 C         -11.2567  -19.1408   24.0740 C.ar    1  UNL1       -0.0037
     21 C          -9.8427  -19.7939   21.7815 C.3     1  UNL1        0.0136
     22 C         -10.9994  -19.7141   20.8300 C.3     1  UNL1        0.0178
     23 C         -10.8243  -19.0645   19.4893 C.3     1  UNL1        0.0652
     24 N         -10.7644  -17.5695   19.3824 N.3     1  UNL1       -0.3211
     25 H         -11.6662  -17.1733   19.6475 H       1  UNL1        0.1189
     26 H         -10.5465  -17.3058   18.4214 H       1  UNL1        0.1189
@<TRIPOS>BOND
     1     2     3    1
     2     3     4   ar
     3     4     5   ar
     4     5     6   ar
     5     6     7   ar
     6     7     1    1
     7     1    21    1
     8    21    22    1
     9    22    23    1
    10    23    24    1
    11     1     9    1
    12     9    10   ar
    13    10    11   ar
    14    11    12   ar
    15    12    13   ar
    16    13    14   ar
    17     1    15    1
    18    15    16   ar
    19    16    17   ar
    20    17    18   ar
    21    18    19   ar
    22    19    20   ar
    23     7     8   ar
    24     8     3   ar
    25    14     9   ar
    26    20    15   ar
    27    24    25    1
    28    24    26    1
@<TRIPOS>MOLECULE
*****
 26 28 0 0 0
SMALL
GASTEIGER

@<TRIPOS>ATOM
      1 C          -9.3183  -18.5466   22.4298 C.3     1  UNL1        0.0564
      2 C          -4.1558  -18.6198   23.0152 C.3     1  UNL1        0.0310
      3 C          -5.3702  -18.8504   22.1655 C.ar    1  UNL1       -0.0221
      4 C          -5.2177  -19.3482   20.7588 C.ar    1  UNL1       -0.0043
      5 C          -6.4321  -19.5788   19.9090 C.ar    1  UNL1       -0.0006
      6 C          -7.7989  -19.3116   20.4660 C.ar    1  UNL1       -0.0037
      7 C          -7.9514  -18.8138   21.8727 C.ar    1  UNL1       -0.0155
      8 C          -6.7370  -18.5832   22.7225 C.ar    1  UNL1       -0.0079
      9 C          -8.8044  -17.3042   23.0947 C.ar    1  UNL1       -0.0152
     10 C          -8.9047  -17.1541   24.5838 C.ar    1  UNL1       -0.0037
     11 C          -8.3908  -15.9117   25.2487 C.ar    1  UNL1       -0.0003
     12 C          -7.7766  -14.8192   24.4246 C.ar    1  UNL1       -0.0000
     13 C          -7.6763  -14.9692   22.9355 C.ar    1  UNL1       -0.0003
     14 C          -8.1902  -16.2117   22.2705 C.ar    1  UNL1       -0.0037
     15 C         -10.6851  -18.2794   22.9868 C.ar    1  UNL1       -0.0152
     16 C         -11.2363  -19.1540   24.0738 C.ar    1  UNL1       -0.0037
     17 C         -12.6031  -18.8868   24.6308 C.ar    1  UNL1       -0.0003
     18 C         -13.4188  -17.7449   24.1010 C.ar    1  UNL1       -0.0000
     19 C         -12.8678  -16.8703   23.0141 C.ar    1  UNL1       -0.0003
     20 C         -11.5009  -17.1375   22.4570 C.ar    1  UNL1       -0.0037
     21 C          -9.8322  -19.7891   21.7649 C.3     1  UNL1        0.0136
     22 C         -11.0003  -19.7096   20.8272 C.3     1  UNL1        0.0178
     23 C         -10.8428  -19.0549   19.4867 C.3     1  UNL1        0.0652
     24 N         -10.7782  -17.5598   19.3853 N.3     1  UNL1       -0.3211
     25 H         -11.6740  -17.1609   19.6659 H       1  UNL1        0.1189
     26 H         -10.5738  -17.2928   18.4223 H       1  UNL1        0.1189
@<TRIPOS>BOND
     1     2     3    1
     2     3     4   ar
     3     4     5   ar
     4     5     6   ar
     5     6     7   ar
     6     7     1    1
     7     1    21    1
     8    21    22    1
     9    22    23    1
    10    23    24    1
    11     1     9    1
    12     9    10   ar
    13    10    11   ar
    14    11    12   ar
    15    12    13   ar
    16    13    14   ar
    17     1    15    1
    18    15    16   ar
    19    16    17   ar
    20    17    18   ar
    21    18    19   ar
    22    19    20   ar
    23     7     8   ar
    24     8     3   ar
    25    14     9   ar
    26    20    15   ar
    27    24    25    1
    28    24    26    1
@<TRIPOS>MOLECULE
*****
 26 28 0 0 0
SMALL
GASTEIGER

@<TRIPOS>ATOM
      1 C          -9.5178  -18.3538   22.2227 C.3     1  UNL1        0.0564
      2 C         -14.0885  -18.5518   24.6865 C.3     1  UNL1        0.0310
      3 C         -13.1337  -17.8389   23.7753 C.ar    1  UNL1       -0.0221
      4 C         -13.5095  -16.5123   23.1848 C.ar    1  UNL1       -0.0043
      5 C         -12.5547  -15.7995   22.2736 C.ar    1  UNL1       -0.0006
      6 C         -11.2242  -16.4133   21.9529 C.ar    1  UNL1       -0.0037
      7 C         -10.8484  -17.7399   22.5434 C.ar    1  UNL1       -0.0155
      8 C         -11.8032  -18.4528   23.4546 C.ar    1  UNL1       -0.0079
      9 C          -8.8380  -17.3284   23.0808 C.ar    1  UNL1       -0.0152
     10 C          -9.0390  -17.3420   24.5673 C.ar    1  UNL1       -0.0037
     11 C          -8.3592  -16.3166   25.4254 C.ar    1  UNL1       -0.0003
     12 C          -7.4784  -15.2777   24.7972 C.ar    1  UNL1       -0.0000
     13 C          -7.2774  -15.2641   23.3108 C.ar    1  UNL1       -0.0003
     14 C          -7.9572  -16.2895   22.4526 C.ar    1  UNL1       -0.0037
     15 C          -8.1873  -18.9676   21.9021 C.ar    1  UNL1       -0.0152
     16 C          -7.7074  -20.1623   22.6719 C.ar    1  UNL1       -0.0037
     17 C          -6.3768  -20.7761   22.3513 C.ar    1  UNL1       -0.0003
     18 C          -5.5262  -20.1953   21.2608 C.ar    1  UNL1       -0.0000
     19 C          -6.0060  -19.0007   20.4910 C.ar    1  UNL1       -0.0003
     20 C          -7.3366  -18.3868   20.8116 C.ar    1  UNL1       -0.0037
     21 C         -10.1977  -19.3792   21.3646 C.3     1  UNL1        0.0136
     22 C         -10.5729  -19.0448   19.9513 C.3     1  UNL1        0.0178
     23 C         -10.2425  -19.9988   18.8419 C.3     1  UNL1        0.0652
     24 N          -8.8213  -20.4209   18.6139 N.3     1  UNL1       -0.3211
     25 H          -8.2710  -19.6154   18.3159 H       1  UNL1        0.1189
     26 H          -8.7918  -21.1392   17.8904 H       1  UNL1        0.1189
@<TRIPOS>BOND
     1     2     3    1
     2     3     4   ar
     3     4     5   ar
     4     5     6   ar
     5     6     7   ar
     6     7     1    1
     7     1    21    1
     8    21    22    1
     9    22    23    1
    10    23    24    1
    11     1     9    1
    12     9    10   ar
    13    10    11   ar
    14    11    12   ar
    15    12    13   ar
    16    13    14   ar
    17     1    15    1
    18    15    16   ar
    19    16    17   ar
    20    17    18   ar
    21    18    19   ar
    22    19    20   ar
    23     7     8   ar
    24     8     3   ar
    25    14     9   ar
    26    20    15   ar
    27    24    25    1
    28    24    26    1
@<TRIPOS>MOLECULE
*****
 26 28 0 0 0
SMALL
GASTEIGER

@<TRIPOS>ATOM
      1 C          -8.6613  -17.6612   22.1801 C.3     1  UNL1        0.0564
      2 C          -8.7626  -16.8814   27.3164 C.3     1  UNL1        0.0310
      3 C          -8.3691  -16.4293   25.9413 C.ar    1  UNL1       -0.0221
      4 C          -7.6327  -15.1353   25.7594 C.ar    1  UNL1       -0.0043
      5 C          -7.2392  -14.6832   24.3843 C.ar    1  UNL1       -0.0006
      6 C          -7.5820  -15.5252   23.1913 C.ar    1  UNL1       -0.0037
      7 C          -8.3184  -16.8192   23.3732 C.ar    1  UNL1       -0.0155
      8 C          -8.7119  -17.2713   24.7483 C.ar    1  UNL1       -0.0079
      9 C         -10.1159  -17.5718   22.5351 C.ar    1  UNL1       -0.0152
     10 C         -10.7927  -18.7217   23.2205 C.ar    1  UNL1       -0.0037
     11 C         -12.2474  -18.6322   23.5755 C.ar    1  UNL1       -0.0003
     12 C         -13.0252  -17.3930   23.2451 C.ar    1  UNL1       -0.0000
     13 C         -12.3484  -16.2431   22.5596 C.ar    1  UNL1       -0.0003
     14 C         -10.8937  -16.3325   22.2046 C.ar    1  UNL1       -0.0037
     15 C          -9.0042  -18.5032   20.9870 C.ar    1  UNL1       -0.0152
     16 C          -7.9648  -19.3944   20.3742 C.ar    1  UNL1       -0.0037
     17 C          -8.3077  -20.2364   19.1812 C.ar    1  UNL1       -0.0003
     18 C          -9.6900  -20.1873   18.6009 C.ar    1  UNL1       -0.0000
     19 C         -10.7294  -19.2962   19.2136 C.ar    1  UNL1       -0.0003
     20 C         -10.3865  -18.4541   20.4067 C.ar    1  UNL1       -0.0037
     21 C          -7.2067  -17.7507   21.8251 C.3     1  UNL1        0.0136
     22 C          -6.3182  -18.7239   22.5417 C.3     1  UNL1        0.0178
     23 C          -4.8364  -18.4947   22.5857 C.3     1  UNL1        0.0652
     24 N          -4.2976  -17.1269   22.8836 N.3     1  UNL1       -0.3211
     25 H          -4.5463  -16.4910   22.1258 H       1  UNL1        0.1189
     26 H          -3.2823  -17.1727   22.9697 H       1  UNL1        0.1189
@<TRIPOS>BOND
     1     2     3    1
     2     3     4   ar
     3     4     5   ar
     4     5     6   ar
     5     6     7   ar
     6     7     1    1
     7     1    21    1
     8    21    22    1
     9    22    23    1
    10    23    24    1
    11     1     9    1
    12     9    10   ar
    13    10    11   ar
    14    11    12   ar
    15    12    13   ar
    16    13    14   ar
    17     1    15    1
    18    15    16   ar
    19    16    17   ar
    20    17    18   ar
    21    18    19   ar
    22    19    20   ar
    23     7     8   ar
    24     8     3   ar
    25    14     9   ar
    26    20    15   ar
    27    24    25    1
    28    24    26    1
@<TRIPOS>MOLECULE
*****
 26 28 0 0 0
SMALL
GASTEIGER

@<TRIPOS>ATOM
      1 C          -7.0077  -18.9999   21.7776 C.3     1  UNL1        0.0564
      2 C         -11.5870  -16.5531   21.9870 C.3     1  UNL1        0.0310
      3 C         -10.7177  -17.7169   22.3609 C.ar    1  UNL1       -0.0221
      4 C         -11.2688  -18.8212   23.2133 C.ar    1  UNL1       -0.0043
      5 C         -10.3995  -19.9851   23.5872 C.ar    1  UNL1       -0.0006
      6 C          -8.9792  -20.0447   23.1087 C.ar    1  UNL1       -0.0037
      7 C          -8.4281  -18.9404   22.2562 C.ar    1  UNL1       -0.0155
      8 C          -9.2974  -17.7765   21.8823 C.ar    1  UNL1       -0.0079
      9 C          -7.4388  -19.8244   20.6010 C.ar    1  UNL1       -0.0152
     10 C          -8.5914  -19.3754   19.7524 C.ar    1  UNL1       -0.0037
     11 C          -9.0224  -20.1999   18.5759 C.ar    1  UNL1       -0.0003
     12 C          -8.3010  -21.4734   18.2478 C.ar    1  UNL1       -0.0000
     13 C          -7.1484  -21.9224   19.0963 C.ar    1  UNL1       -0.0003
     14 C          -6.7173  -21.0979   20.2730 C.ar    1  UNL1       -0.0037
     15 C          -5.5874  -19.0594   21.2989 C.ar    1  UNL1       -0.0152
     16 C          -4.4936  -19.4602   22.2440 C.ar    1  UNL1       -0.0037
     17 C          -3.0733  -19.5198   21.7654 C.ar    1  UNL1       -0.0003
     18 C          -2.7467  -19.1785   20.3417 C.ar    1  UNL1       -0.0000
     19 C          -3.8404  -18.7777   19.3966 C.ar    1  UNL1       -0.0003
     20 C          -5.2608  -18.7182   19.8752 C.ar    1  UNL1       -0.0037
     21 C          -6.5767  -18.1754   22.9541 C.3     1  UNL1        0.0136
     22 C          -6.9455  -16.7233   23.0278 C.3     1  UNL1        0.0178
     23 C          -6.1733  -15.7978   23.9208 C.3     1  UNL1        0.0652
     24 N          -5.2198  -14.8041   23.3262 N.3     1  UNL1       -0.3211
     25 H          -4.4457  -15.2989   22.8830 H       1  UNL1        0.1189
     26 H          -4.8585  -14.1973   24.0621 H       1  UNL1        0.1189
@<TRIPOS>BOND
     1     2     3    1
     2     3     4   ar
     3     4     5   ar
     4     5     6   ar
     5     6     7   ar
     6     7     1    1
     7     1    21    1
     8    21    22    1
     9    22    23    1
    10    23    24    1
    11     1     9    1
    12     9    10   ar
    13    10    11   ar
    14    11    12   ar
    15    12    13   ar
    16    13    14   ar
    17     1    15    1
    18    15    16   ar
    19    16    17   ar
    20    17    18   ar
    21    18    19   ar
    22    19    20   ar
    23     7     8   ar
    24     8     3   ar
    25    14     9   ar
    26    20    15   ar
    27    24    25    1
    28    24    26    1
@<TRIPOS>MOLECULE
*****
 26 28 0 0 0
SMALL
GASTEIGER

@<TRIPOS>ATOM
      1 C          -8.8460  -17.5498   23.3265 C.3     1  UNL1        0.0564
      2 C          -6.6887  -20.7049   19.8063 C.3     1  UNL1        0.0310
      3 C          -7.8147  -19.8096   20.2314 C.ar    1  UNL1       -0.0221
      4 C          -8.9880  -19.5966   19.3215 C.ar    1  UNL1       -0.0043
      5 C         -10.1139  -18.7014   19.7466 C.ar    1  UNL1       -0.0006
      6 C         -10.0666  -18.0191   21.0815 C.ar    1  UNL1       -0.0037
      7 C          -8.8933  -18.2321   21.9914 C.ar    1  UNL1       -0.0155
      8 C          -7.7674  -19.1273   21.5664 C.ar    1  UNL1       -0.0079
      9 C         -10.3451  -17.5416   23.3755 C.ar    1  UNL1       -0.0152
     10 C         -11.0811  -18.6852   24.0086 C.ar    1  UNL1       -0.0037
     11 C         -12.5802  -18.6770   24.0576 C.ar    1  UNL1       -0.0003
     12 C         -13.3435  -17.5254   23.4735 C.ar    1  UNL1       -0.0000
     13 C         -12.6076  -16.3820   22.8403 C.ar    1  UNL1       -0.0003
     14 C         -11.1084  -16.3900   22.7913 C.ar    1  UNL1       -0.0037
     15 C          -8.7987  -16.8675   24.6615 C.ar    1  UNL1       -0.0152
     16 C          -8.6859  -17.6817   25.9163 C.ar    1  UNL1       -0.0037
     17 C          -8.6386  -16.9994   27.2513 C.ar    1  UNL1       -0.0003
     18 C          -8.7040  -15.5030   27.3315 C.ar    1  UNL1       -0.0000
     19 C          -8.8168  -14.6888   26.0768 C.ar    1  UNL1       -0.0003
     20 C          -8.8641  -15.3711   24.7417 C.ar    1  UNL1       -0.0037
     21 C          -7.3468  -17.5579   23.2775 C.3     1  UNL1        0.0136
     22 C          -6.5909  -16.2631   23.2301 C.3     1  UNL1        0.0178
     23 C          -5.3581  -16.0834   24.0656 C.3     1  UNL1        0.0652
     24 N          -5.2664  -14.9385   25.0304 N.3     1  UNL1       -0.3211
     25 H          -5.2523  -14.0590   24.5139 H       1  UNL1        0.1189
     26 H          -4.4110  -15.0241   25.5793 H       1  UNL1        0.1189
@<TRIPOS>BOND
     1     2     3    1
     2     3     4   ar
     3     4     5   ar
     4     5     6   ar
     5     6     7   ar
     6     7     1    1
     7     1    21    1
     8    21    22    1
     9    22    23    1
    10    23    24    1
    11     1     9    1
    12     9    10   ar
    13    10    11   ar
    14    11    12   ar
    15    12    13   ar
    16    13    14   ar
    17     1    15    1
    18    15    16   ar
    19    16    17   ar
    20    17    18   ar
    21    18    19   ar
    22    19    20   ar
    23     7     8   ar
    24     8     3   ar
    25    14     9   ar
    26    20    15   ar
    27    24    25    1
    28    24    26    1
@<TRIPOS>MOLECULE
*****
 26 28 0 0 0
SMALL
GASTEIGER

@<TRIPOS>ATOM
      1 C          -8.6673  -18.0229   22.1958 C.3     1  UNL1        0.0564
      2 C         -12.4554  -15.6668   19.5314 C.3     1  UNL1        0.0310
      3 C         -12.0140  -16.5150   20.6871 C.ar    1  UNL1       -0.0221
      4 C         -13.0251  -17.0334   21.6663 C.ar    1  UNL1       -0.0043
      5 C         -12.5836  -17.8815   22.8221 C.ar    1  UNL1       -0.0006
      6 C         -11.1311  -18.2114   22.9986 C.ar    1  UNL1       -0.0037
      7 C         -10.1200  -17.6930   22.0194 C.ar    1  UNL1       -0.0155
      8 C         -10.5614  -16.8448   20.8636 C.ar    1  UNL1       -0.0079
      9 C          -8.6820  -17.3658   23.5442 C.ar    1  UNL1       -0.0152
     10 C          -8.9439  -18.1835   24.7742 C.ar    1  UNL1       -0.0037
     11 C          -8.9586  -17.5264   26.1225 C.ar    1  UNL1       -0.0003
     12 C          -8.7113  -16.0516   26.2409 C.ar    1  UNL1       -0.0000
     13 C          -8.4494  -15.2340   25.0109 C.ar    1  UNL1       -0.0003
     14 C          -8.4347  -15.8911   23.6625 C.ar    1  UNL1       -0.0037
     15 C          -7.2147  -18.3526   22.3724 C.ar    1  UNL1       -0.0152
     16 C          -6.7041  -19.7135   22.0015 C.ar    1  UNL1       -0.0037
     17 C          -5.2515  -20.0433   22.1780 C.ar    1  UNL1       -0.0003
     18 C          -4.3095  -19.0123   22.7254 C.ar    1  UNL1       -0.0000
     19 C          -4.8200  -17.6515   23.0962 C.ar    1  UNL1       -0.0003
     20 C          -6.2727  -17.3217   22.9197 C.ar    1  UNL1       -0.0037
     21 C          -8.6526  -18.6799   20.8475 C.3     1  UNL1        0.0136
     22 C          -9.6879  -19.7094   20.5036 C.3     1  UNL1        0.0178
     23 C          -9.9583  -20.0507   19.0681 C.3     1  UNL1        0.0652
     24 N          -8.8923  -20.7030   18.2387 N.3     1  UNL1       -0.3211
     25 H          -8.1131  -20.0561   18.1165 H       1  UNL1        0.1189
     26 H          -9.2751  -20.9503   17.3262 H       1  UNL1        0.1189
@<TRIPOS>BOND
     1     2     3    1
     2     3     4   ar
     3     4     5   ar
     4     5     6   ar
     5     6     7   ar
     6     7     1    1
     7     1    21    1
     8    21    22    1
     9    22    23    1
    10    23    24    1
    11     1     9    1
    12     9    10   ar
    13    10    11   ar
    14    11    12   ar
    15    12    13   ar
    16    13    14   ar
    17     1    15    1
    18    15    16   ar
    19    16    17   ar
    20    17    18   ar
    21    18    19   ar
    22    19    20   ar
    23     7     8   ar
    24     8     3   ar
    25    14     9   ar
    26    20    15   ar
    27    24    25    1
    28    24    26    1
@<TRIPOS>MOLECULE
*****
 26 28 0 0 0
SMALL
GASTEIGER

@<TRIPOS>ATOM
      1 C          -7.1743  -18.8377   21.7436 C.3     1  UNL1        0.0564
      2 C          -2.1151  -18.3252   22.8122 C.3     1  UNL1        0.0310
      3 C          -3.2231  -18.4718   21.8119 C.ar    1  UNL1       -0.0221
      4 C          -2.9097  -18.5087   20.3455 C.ar    1  UNL1       -0.0043
      5 C          -4.0177  -18.6552   19.3451 C.ar    1  UNL1       -0.0006
      6 C          -5.4392  -18.7649   19.8111 C.ar    1  UNL1       -0.0037
      7 C          -5.7527  -18.7280   21.2775 C.ar    1  UNL1       -0.0155
      8 C          -4.6446  -18.5815   22.2779 C.ar    1  UNL1       -0.0079
      9 C          -7.4741  -19.7719   20.6090 C.ar    1  UNL1       -0.0152
     10 C          -8.5824  -19.4547   19.6491 C.ar    1  UNL1       -0.0037
     11 C          -8.8822  -20.3889   18.5146 C.ar    1  UNL1       -0.0003
     12 C          -8.0739  -21.6403   18.3398 C.ar    1  UNL1       -0.0000
     13 C          -6.9658  -21.9576   19.2996 C.ar    1  UNL1       -0.0003
     14 C          -6.6658  -21.0233   20.4343 C.ar    1  UNL1       -0.0037
     15 C          -8.5958  -18.9474   22.2096 C.ar    1  UNL1       -0.0152
     16 C          -8.9804  -20.0048   23.2017 C.ar    1  UNL1       -0.0037
     17 C         -10.4019  -20.1145   23.6677 C.ar    1  UNL1       -0.0003
     18 C         -11.4389  -19.1668   23.1417 C.ar    1  UNL1       -0.0000
     19 C         -11.0543  -18.1095   22.1497 C.ar    1  UNL1       -0.0003
     20 C          -9.6328  -17.9997   21.6836 C.ar    1  UNL1       -0.0037
     21 C          -6.8744  -17.9035   22.8782 C.3     1  UNL1        0.0136
     22 C          -7.3757  -16.4903   22.8386 C.3     1  UNL1        0.0178
     23 C          -6.7666  -15.4530   23.7348 C.3     1  UNL1        0.0652
     24 N          -7.5656  -14.2505   24.1414 N.3     1  UNL1       -0.3211
     25 H          -7.7568  -13.6759   23.3206 H       1  UNL1        0.1189
     26 H          -7.0370  -13.7054   24.8224 H       1  UNL1        0.1189
@<TRIPOS>BOND
     1     2     3    1
     2     3     4   ar
     3     4     5   ar
     4     5     6   ar
     5     6     7   ar
     6     7     1    1
     7     1    21    1
     8    21    22    1
     9    22    23    1
    10    23    24    1
    11     1     9    1
    12     9    10   ar
    13    10    11   ar
    14    11    12   ar
    15    12    13   ar
    16    13    14   ar
    17     1    15    1
    18    15    16   ar
    19    16    17   ar
    20    17    18   ar
    21    18    19   ar
    22    19    20   ar
    23     7     8   ar
    24     8     3   ar
    25    14     9   ar
    26    20    15   ar
    27    24    25    1
    28    24    26    1
@<TRIPOS>MOLECULE
*****
 26 28 0 0 0
SMALL
GASTEIGER

@<TRIPOS>ATOM
      1 C           4.1984   -1.6803   20.6761 C.3     1  UNL1        0.0564
      2 C           9.0132   -3.6320   20.7713 C.3     1  UNL1        0.0310
      3 C           7.6489   -3.5094   21.3825 C.ar    1  UNL1       -0.0221
      4 C           7.3276   -4.2400   22.6525 C.ar    1  UNL1       -0.0043
      5 C           5.9633   -4.1175   23.2637 C.ar    1  UNL1       -0.0006
      6 C           4.9202   -3.2643   22.6049 C.ar    1  UNL1       -0.0037
      7 C           5.2415   -2.5336   21.3349 C.ar    1  UNL1       -0.0155
      8 C           6.6058   -2.6562   20.7237 C.ar    1  UNL1       -0.0079
      9 C           4.1587   -0.7947   21.8861 C.ar    1  UNL1       -0.0152
     10 C           5.1095    0.3597   22.0021 C.ar    1  UNL1       -0.0037
     11 C           5.0698    1.2453   23.2121 C.ar    1  UNL1       -0.0003
     12 C           4.0793    0.9766   24.3060 C.ar    1  UNL1       -0.0000
     13 C           3.1285   -0.1777   24.1900 C.ar    1  UNL1       -0.0003
     14 C           3.1682   -1.0634   22.9800 C.ar    1  UNL1       -0.0037
     15 C           3.1554   -0.8271   20.0173 C.ar    1  UNL1       -0.0152
     16 C           1.7482   -0.8277   20.5368 C.ar    1  UNL1       -0.0037
     17 C           0.7051    0.0255   19.8780 C.ar    1  UNL1       -0.0003
     18 C           1.0692    0.8794   18.6998 C.ar    1  UNL1       -0.0000
     19 C           2.4764    0.8801   18.1803 C.ar    1  UNL1       -0.0003
     20 C           3.5195    0.0268   18.8391 C.ar    1  UNL1       -0.0037
     21 C           4.2381   -2.5660   19.4661 C.3     1  UNL1        0.0136
     22 C           3.1974   -3.6303   19.2812 C.3     1  UNL1        0.0178
     23 C           3.5538   -5.0722   19.4909 C.3     1  UNL1        0.0652
     24 N           4.9384   -5.5559   19.1764 N.3     1  UNL1       -0.3211
     25 H           5.1041   -5.4834   18.1726 H       1  UNL1        0.1189
     26 H           5.0328   -6.5290   19.4672 H       1  UNL1        0.1189
@<TRIPOS>BOND
     1     2     3    1
     2     3     4   ar
     3     4     5   ar
     4     5     6   ar
     5     6     7   ar
     6     7     1    1
     7     1    21    1
     8    21    22    1
     9    22    23    1
    10    23    24    1
    11     1     9    1
    12     9    10   ar
    13    10    11   ar
    14    11    12   ar
    15    12    13   ar
    16    13    14   ar
    17     1    15    1
    18    15    16   ar
    19    16    17   ar
    20    17    18   ar
    21    18    19   ar
    22    19    20   ar
    23     7     8   ar
    24     8     3   ar
    25    14     9   ar
    26    20    15   ar
    27    24    25    1
    28    24    26    1
