@<TRIPOS>MOLECULE
*****
 38 41 0 0 0
SMALL
GASTEIGER

@<TRIPOS>ATOM
      1 N           3.4194   -0.3888   29.2346 N.3     1  UNL1       -0.2689
      2 C           3.8383    0.3836   28.0189 C.3     1  UNL1        0.0727
      3 C           2.8073    1.0782   27.1796 C.3     1  UNL1        0.0217
      4 C           1.3573    1.0005   27.5560 C.3     1  UNL1        0.0251
      5 C           0.9384    0.2282   28.7717 C.3     1  UNL1        0.0217
      6 C           1.9695   -0.4665   29.6111 C.3     1  UNL1        0.0727
      7 C           0.3263    1.6952   26.7167 C.ar    1  UNL1       -0.0224
      8 C           0.4865    1.7518   25.2264 C.ar    1  UNL1       -0.0041
      9 C          -0.5445    2.4465   24.3871 C.ar    1  UNL1        0.0042
     10 C          -1.7357    3.0846   25.0382 C.ar    1  UNL1        0.0537
     11 C          -1.8959    3.0281   26.5285 C.ar    1  UNL1        0.0042
     12 C          -0.8649    2.3334   27.3677 C.ar    1  UNL1       -0.0041
     13 C          -2.7667    3.7793   24.1988 C.2     1  UNL1        0.2495
     14 O          -2.4418    5.0886   23.5430 O.2     1  UNL1       -0.2698
     15 N          -4.1226    3.1647   24.0153 N.am    1  UNL1       -0.2794
     16 H          -4.3359    2.3054   24.4458 H       1  UNL1        0.1552
     17 C          -5.1536    3.8594   23.1760 C.ar    1  UNL1        0.0636
     18 C          -6.1124    4.8228   23.8107 C.ar    1  UNL1        0.0159
     19 C          -7.1433    5.5175   22.9714 C.ar    1  UNL1        0.0014
     20 C          -7.2156    5.2489   21.4974 C.ar    1  UNL1        0.0013
     21 C          -6.2569    4.2856   20.8627 C.ar    1  UNL1        0.0153
     22 C          -5.2258    3.5908   21.7020 C.ar    1  UNL1        0.0552
     23 N          -4.2671    2.6275   21.0674 N.pl3   1  UNL1       -0.3560
     24 H          -4.3146    2.4512   20.0999 H       1  UNL1        0.1424
     25 H          -3.5905    2.1715   21.6182 H       1  UNL1        0.1424
     26 C           4.4504   -1.0835   30.0739 C.3     1  UNL1        0.0991
     27 C           4.7094   -0.2289   34.4844 C.ar    1  UNL1        0.0533
     28 C           4.4500   -1.6264   34.0052 C.ar    1  UNL1        0.0042
     29 C           4.3637   -1.9113   32.5351 C.ar    1  UNL1       -0.0028
     30 C           4.5367   -0.7986   31.5441 C.ar    1  UNL1       -0.0061
     31 C           4.7961    0.5989   32.0233 C.ar    1  UNL1       -0.0028
     32 C           4.8824    0.8837   33.4935 C.ar    1  UNL1        0.0042
     33 N           3.7924    0.9631   36.6030 N.am    1  UNL1       -0.3009
     34 C           4.7957    0.0559   35.9546 C.2     1  UNL1        0.2458
     35 O           5.8854   -0.5663   36.7764 O.2     1  UNL1       -0.2701
     36 H           3.0772    1.3715   36.0636 H       1  UNL1        0.1497
     37 C           2.6835    1.0251   38.9517 C.3     1  UNL1        0.0230
     38 C           3.8787    1.2479   38.0731 C.3     1  UNL1        0.0898
@<TRIPOS>BOND
     1    37    38    1
     2    38    33    1
     3    33    34   am
     4    34    35    2
     5    34    27    1
     6    27    28   ar
     7    28    29   ar
     8    29    30   ar
     9    30    26    1
    10    26     1    1
    11     1     2    1
    12     2     3    1
    13     3     4    1
    14     4     7    1
    15     7     8   ar
    16     8     9   ar
    17     9    10   ar
    18    10    13    1
    19    13    14    2
    20    13    15   am
    21    15    17    1
    22    17    18   ar
    23    18    19   ar
    24    19    20   ar
    25    20    21   ar
    26    21    22   ar
    27    22    23    1
    28    10    11   ar
    29    11    12   ar
    30     4     5    1
    31     5     6    1
    32    30    31   ar
    33    31    32   ar
    34    32    27   ar
    35     6     1    1
    36    12     7   ar
    37    22    17   ar
    38    33    36    1
    39    15    16    1
    40    23    24    1
    41    23    25    1
@<TRIPOS>MOLECULE
*****
 38 41 0 0 0
SMALL
GASTEIGER

@<TRIPOS>ATOM
      1 N          -0.9129    3.2408   19.2724 N.3     1  UNL1       -0.2689
      2 C           0.0365    2.6838   18.2533 C.3     1  UNL1        0.0727
      3 C           0.9972    1.5978   18.6379 C.3     1  UNL1        0.0217
      4 C           1.0084    1.0689   20.0415 C.3     1  UNL1        0.0251
      5 C           0.0591    1.6259   21.0605 C.3     1  UNL1        0.0217
      6 C          -0.9016    2.7119   20.6760 C.3     1  UNL1        0.0727
      7 C           1.9691   -0.0171   20.4261 C.ar    1  UNL1       -0.0224
      8 C           2.5007   -0.9528   19.3812 C.ar    1  UNL1       -0.0041
      9 C           3.4613   -2.0387   19.7658 C.ar    1  UNL1        0.0042
     10 C           3.8904   -2.1889   21.1952 C.ar    1  UNL1        0.0537
     11 C           3.3588   -1.2531   22.2401 C.ar    1  UNL1        0.0042
     12 C           2.3982   -0.1672   21.8555 C.ar    1  UNL1       -0.0041
     13 C           4.8511   -3.2749   21.5798 C.2     1  UNL1        0.2495
     14 O           4.6667   -4.6636   21.0438 O.2     1  UNL1       -0.2698
     15 N           5.9960   -2.9720   22.5003 N.am    1  UNL1       -0.2794
     16 H           6.1170   -2.0605   22.8521 H       1  UNL1        0.1552
     17 C           6.9566   -4.0580   22.8848 C.ar    1  UNL1        0.0636
     18 C           7.8366   -4.6841   21.8438 C.ar    1  UNL1        0.0159
     19 C           8.7972   -5.7701   22.2283 C.ar    1  UNL1        0.0014
     20 C           8.8779   -6.2300   23.6538 C.ar    1  UNL1        0.0013
     21 C           7.9980   -5.6039   24.6947 C.ar    1  UNL1        0.0153
     22 C           7.0373   -4.5179   24.3103 C.ar    1  UNL1        0.0552
     23 N           6.1574   -3.8918   25.3513 N.pl3   1  UNL1       -0.3560
     24 H           6.2103   -4.1936   26.2868 H       1  UNL1        0.1424
     25 H           5.5269   -3.1790   25.0989 H       1  UNL1        0.1424
     26 C          -1.8735    4.3268   18.8878 C.3     1  UNL1        0.0991
     27 C          -5.7336    4.8202   21.1474 C.ar    1  UNL1        0.0533
     28 C          -4.5942    5.7639   21.3942 C.ar    1  UNL1        0.0042
     29 C          -3.3075    5.5994   20.6410 C.ar    1  UNL1       -0.0028
     30 C          -3.1602    4.4912   19.6410 C.ar    1  UNL1       -0.0061
     31 C          -4.2996    3.5475   19.3941 C.ar    1  UNL1       -0.0028
     32 C          -5.5864    3.7120   20.1473 C.ar    1  UNL1        0.0042
     33 N          -7.2848    4.1569   23.1232 N.am    1  UNL1       -0.3009
     34 C          -7.0204    4.9847   21.9006 C.2     1  UNL1        0.2458
     35 O          -8.0426    5.9769   21.4311 O.2     1  UNL1       -0.2701
     36 H          -6.6139    3.5057   23.4313 H       1  UNL1        0.1497
     37 C          -8.8345    5.5822   24.6454 C.3     1  UNL1        0.0230
     38 C          -8.5716    4.3214   23.8764 C.3     1  UNL1        0.0898
@<TRIPOS>BOND
     1    37    38    1
     2    38    33    1
     3    33    34   am
     4    34    35    2
     5    34    27    1
     6    27    28   ar
     7    28    29   ar
     8    29    30   ar
     9    30    26    1
    10    26     1    1
    11     1     2    1
    12     2     3    1
    13     3     4    1
    14     4     7    1
    15     7     8   ar
    16     8     9   ar
    17     9    10   ar
    18    10    13    1
    19    13    14    2
    20    13    15   am
    21    15    17    1
    22    17    18   ar
    23    18    19   ar
    24    19    20   ar
    25    20    21   ar
    26    21    22   ar
    27    22    23    1
    28    10    11   ar
    29    11    12   ar
    30     4     5    1
    31     5     6    1
    32    30    31   ar
    33    31    32   ar
    34    32    27   ar
    35     6     1    1
    36    12     7   ar
    37    22    17   ar
    38    33    36    1
    39    15    16    1
    40    23    24    1
    41    23    25    1
@<TRIPOS>MOLECULE
*****
 38 41 0 0 0
SMALL
GASTEIGER

@<TRIPOS>ATOM
      1 N           0.4107    1.9690   20.5243 N.3     1  UNL1       -0.2689
      2 C           1.5217    2.3945   21.4380 C.3     1  UNL1        0.0727
      3 C           2.4753    1.3741   21.9851 C.3     1  UNL1        0.0217
      4 C           2.3180   -0.0719   21.6185 C.3     1  UNL1        0.0251
      5 C           1.2071   -0.4975   20.7049 C.3     1  UNL1        0.0217
      6 C           0.2534    0.5230   20.1578 C.3     1  UNL1        0.0727
      7 C           3.2717   -1.0923   22.1657 C.ar    1  UNL1       -0.0224
      8 C           3.6375   -1.0730   23.6202 C.ar    1  UNL1       -0.0041
      9 C           4.5912   -2.0934   24.1673 C.ar    1  UNL1        0.0042
     10 C           5.1789   -3.1331   23.2598 C.ar    1  UNL1        0.0537
     11 C           4.8130   -3.1524   21.8053 C.ar    1  UNL1        0.0042
     12 C           3.8594   -2.1321   21.2582 C.ar    1  UNL1       -0.0041
     13 C           6.1326   -4.1535   23.8069 C.2     1  UNL1        0.2495
     14 O           6.8935   -5.0462   22.8720 O.2     1  UNL1       -0.2698
     15 N           6.3254   -4.2812   25.2890 N.am    1  UNL1       -0.2794
     16 H           5.8260   -3.6953   25.9026 H       1  UNL1        0.1552
     17 C           7.2790   -5.3016   25.8360 C.ar    1  UNL1        0.0636
     18 C           8.5794   -5.5643   25.1359 C.ar    1  UNL1        0.0159
     19 C           9.5330   -6.5847   25.6829 C.ar    1  UNL1        0.0014
     20 C           9.1864   -7.3425   26.9302 C.ar    1  UNL1        0.0013
     21 C           7.8861   -7.0799   27.6303 C.ar    1  UNL1        0.0153
     22 C           6.9324   -6.0594   27.0833 C.ar    1  UNL1        0.0552
     23 N           5.6321   -5.7968   27.7835 N.pl3   1  UNL1       -0.3560
     24 H           5.4046   -6.2942   28.6021 H       1  UNL1        0.1424
     25 H           5.0062   -5.1271   27.4244 H       1  UNL1        0.1424
     26 C          -0.5429    2.9894   19.9772 C.3     1  UNL1        0.0991
     27 C          -4.3313    3.9519   22.2069 C.ar    1  UNL1        0.0533
     28 C          -4.3706    3.7242   20.7248 C.ar    1  UNL1        0.0042
     29 C          -3.1078    3.4033   19.9816 C.ar    1  UNL1       -0.0028
     30 C          -1.8057    3.3102   20.7204 C.ar    1  UNL1       -0.0061
     31 C          -1.7665    3.5380   22.2025 C.ar    1  UNL1       -0.0028
     32 C          -3.0293    3.8588   22.9457 C.ar    1  UNL1        0.0042
     33 N          -5.5248    4.8325   24.3400 N.am    1  UNL1       -0.3009
     34 C          -5.5941    4.2728   22.9501 C.2     1  UNL1        0.2458
     35 O          -6.9263    4.0338   22.3035 O.2     1  UNL1       -0.2701
     36 H          -4.6504    4.9894   24.7644 H       1  UNL1        0.1497
     37 C          -6.7799    6.1995   26.1583 C.3     1  UNL1        0.0230
     38 C          -6.7876    5.1534   25.0832 C.3     1  UNL1        0.0898
@<TRIPOS>BOND
     1    37    38    1
     2    38    33    1
     3    33    34   am
     4    34    35    2
     5    34    27    1
     6    27    28   ar
     7    28    29   ar
     8    29    30   ar
     9    30    26    1
    10    26     1    1
    11     1     2    1
    12     2     3    1
    13     3     4    1
    14     4     7    1
    15     7     8   ar
    16     8     9   ar
    17     9    10   ar
    18    10    13    1
    19    13    14    2
    20    13    15   am
    21    15    17    1
    22    17    18   ar
    23    18    19   ar
    24    19    20   ar
    25    20    21   ar
    26    21    22   ar
    27    22    23    1
    28    10    11   ar
    29    11    12   ar
    30     4     5    1
    31     5     6    1
    32    30    31   ar
    33    31    32   ar
    34    32    27   ar
    35     6     1    1
    36    12     7   ar
    37    22    17   ar
    38    33    36    1
    39    15    16    1
    40    23    24    1
    41    23    25    1
@<TRIPOS>MOLECULE
*****
 38 41 0 0 0
SMALL
GASTEIGER

@<TRIPOS>ATOM
      1 N           1.9343    1.0671   30.7586 N.3     1  UNL1       -0.2689
      2 C           1.3111    0.0542   29.8443 C.3     1  UNL1        0.0727
      3 C           0.5124    0.5059   28.6577 C.3     1  UNL1        0.0217
      4 C           0.3369    1.9705   28.3853 C.3     1  UNL1        0.0251
      5 C           0.9601    2.9833   29.2995 C.3     1  UNL1        0.0217
      6 C           1.7588    2.5316   30.4861 C.3     1  UNL1        0.0727
      7 C          -0.4618    2.4222   27.1986 C.ar    1  UNL1       -0.0224
      8 C          -0.0157    2.0610   25.8128 C.ar    1  UNL1       -0.0041
      9 C          -0.8144    2.5127   24.6262 C.ar    1  UNL1        0.0042
     10 C          -2.0592    3.3256   24.8255 C.ar    1  UNL1        0.0537
     11 C          -2.5053    3.6867   26.2113 C.ar    1  UNL1        0.0042
     12 C          -1.7066    3.2350   27.3978 C.ar    1  UNL1       -0.0041
     13 C          -2.8579    3.7773   23.6388 C.2     1  UNL1        0.2495
     14 O          -2.3089    4.8297   22.7218 O.2     1  UNL1       -0.2698
     15 N          -4.2056    3.1765   23.3692 N.am    1  UNL1       -0.2794
     16 H          -4.5660    2.4858   23.9710 H       1  UNL1        0.1552
     17 C          -5.0043    3.6282   22.1826 C.ar    1  UNL1        0.0636
     18 C          -6.3001    4.3565   22.3838 C.ar    1  UNL1        0.0159
     19 C          -7.0987    4.8082   21.1972 C.ar    1  UNL1        0.0014
     20 C          -6.6016    4.5317   19.8093 C.ar    1  UNL1        0.0013
     21 C          -5.3058    3.8034   19.6080 C.ar    1  UNL1        0.0153
     22 C          -4.5071    3.3517   20.7946 C.ar    1  UNL1        0.0552
     23 N          -3.2113    2.6234   20.5933 N.pl3   1  UNL1       -0.3560
     24 H          -2.8851    2.4419   19.6823 H       1  UNL1        0.1424
     25 H          -2.6871    2.3269   21.3721 H       1  UNL1        0.1424
     26 C           2.7329    0.6153   31.9451 C.3     1  UNL1        0.0991
     27 C           5.8984   -2.5454   31.4556 C.ar    1  UNL1        0.0533
     28 C           5.0542   -2.5150   32.6951 C.ar    1  UNL1        0.0042
     29 C           3.9991   -1.4614   32.8583 C.ar    1  UNL1       -0.0028
     30 C           3.7881   -0.4382   31.7820 C.ar    1  UNL1       -0.0061
     31 C           4.6323   -0.4686   30.5425 C.ar    1  UNL1       -0.0028
     32 C           5.6874   -1.5222   30.3793 C.ar    1  UNL1        0.0042
     33 N           6.5807   -4.9624   30.7906 N.am    1  UNL1       -0.3009
     34 C           6.9536   -3.5989   31.2924 C.2     1  UNL1        0.2458
     35 O           8.3816   -3.2890   31.6310 O.2     1  UNL1       -0.2701
     36 H           5.6435   -5.1659   30.5684 H       1  UNL1        0.1497
     37 C           8.1730   -6.3347   29.2636 C.3     1  UNL1        0.0230
     38 C           7.6359   -6.0160   30.6275 C.3     1  UNL1        0.0898
@<TRIPOS>BOND
     1    37    38    1
     2    38    33    1
     3    33    34   am
     4    34    35    2
     5    34    27    1
     6    27    28   ar
     7    28    29   ar
     8    29    30   ar
     9    30    26    1
    10    26     1    1
    11     1     2    1
    12     2     3    1
    13     3     4    1
    14     4     7    1
    15     7     8   ar
    16     8     9   ar
    17     9    10   ar
    18    10    13    1
    19    13    14    2
    20    13    15   am
    21    15    17    1
    22    17    18   ar
    23    18    19   ar
    24    19    20   ar
    25    20    21   ar
    26    21    22   ar
    27    22    23    1
    28    10    11   ar
    29    11    12   ar
    30     4     5    1
    31     5     6    1
    32    30    31   ar
    33    31    32   ar
    34    32    27   ar
    35     6     1    1
    36    12     7   ar
    37    22    17   ar
    38    33    36    1
    39    15    16    1
    40    23    24    1
    41    23    25    1
@<TRIPOS>MOLECULE
*****
 38 41 0 0 0
SMALL
GASTEIGER

@<TRIPOS>ATOM
      1 N           1.6792    0.6933   29.2236 N.3     1  UNL1       -0.2689
      2 C           0.2768    0.2398   28.9449 C.3     1  UNL1        0.0727
      3 C          -0.4625    0.7763   27.7551 C.3     1  UNL1        0.0217
      4 C           0.2006    1.7662   26.8439 C.3     1  UNL1        0.0251
      5 C           1.6030    2.2197   27.1225 C.3     1  UNL1        0.0217
      6 C           2.3423    1.6833   28.3124 C.3     1  UNL1        0.0727
      7 C          -0.5387    2.3027   25.6540 C.ar    1  UNL1       -0.0224
      8 C           0.0954    2.2602   24.2954 C.ar    1  UNL1       -0.0041
      9 C          -0.6439    2.7966   23.1056 C.ar    1  UNL1        0.0042
     10 C          -2.0173    3.3756   23.2745 C.ar    1  UNL1        0.0537
     11 C          -2.6514    3.4181   24.6332 C.ar    1  UNL1        0.0042
     12 C          -1.9121    2.8816   25.8229 C.ar    1  UNL1       -0.0041
     13 C          -2.7566    3.9120   22.0846 C.2     1  UNL1        0.2495
     14 O          -3.1210    5.3657   22.0209 O.2     1  UNL1       -0.2698
     15 N          -3.1315    2.9948   20.9585 N.am    1  UNL1       -0.2794
     16 H          -2.8923    2.0407   21.0003 H       1  UNL1        0.1552
     17 C          -3.8708    3.5313   19.7687 C.ar    1  UNL1        0.0636
     18 C          -5.3695    3.4798   19.7312 C.ar    1  UNL1        0.0159
     19 C          -6.1087    4.0162   18.5414 C.ar    1  UNL1        0.0014
     20 C          -5.3494    4.6042   17.3891 C.ar    1  UNL1        0.0013
     21 C          -3.8508    4.6558   17.4267 C.ar    1  UNL1        0.0153
     22 C          -3.1114    4.1193   18.6165 C.ar    1  UNL1        0.0552
     23 N          -1.6128    4.1708   18.6540 N.pl3   1  UNL1       -0.3560
     24 H          -1.1145    4.5567   17.8978 H       1  UNL1        0.1424
     25 H          -1.1276    3.8187   19.4349 H       1  UNL1        0.1424
     26 C           2.4184    0.1569   30.4134 C.3     1  UNL1        0.0991
     27 C           2.4287    2.4575   34.2809 C.ar    1  UNL1        0.0533
     28 C           1.5188    2.8733   33.1632 C.ar    1  UNL1        0.0042
     29 C           1.5154    2.1065   31.8741 C.ar    1  UNL1       -0.0028
     30 C           2.4219    0.9237   31.7025 C.ar    1  UNL1       -0.0061
     31 C           3.3317    0.5079   32.8202 C.ar    1  UNL1       -0.0028
     32 C           3.3351    1.2747   34.1093 C.ar    1  UNL1        0.0042
     33 N           2.0767    2.5347   36.8538 N.am    1  UNL1       -0.3009
     34 C           2.4321    3.2243   35.5700 C.2     1  UNL1        0.2458
     35 O           2.7909    4.6807   35.5754 O.2     1  UNL1       -0.2701
     36 H           1.8412    1.5788   36.8503 H       1  UNL1        0.1497
     37 C           3.3390    3.4020   38.9526 C.3     1  UNL1        0.0230
     38 C           2.0802    3.3016   38.1430 C.3     1  UNL1        0.0898
@<TRIPOS>BOND
     1    37    38    1
     2    38    33    1
     3    33    34   am
     4    34    35    2
     5    34    27    1
     6    27    28   ar
     7    28    29   ar
     8    29    30   ar
     9    30    26    1
    10    26     1    1
    11     1     2    1
    12     2     3    1
    13     3     4    1
    14     4     7    1
    15     7     8   ar
    16     8     9   ar
    17     9    10   ar
    18    10    13    1
    19    13    14    2
    20    13    15   am
    21    15    17    1
    22    17    18   ar
    23    18    19   ar
    24    19    20   ar
    25    20    21   ar
    26    21    22   ar
    27    22    23    1
    28    10    11   ar
    29    11    12   ar
    30     4     5    1
    31     5     6    1
    32    30    31   ar
    33    31    32   ar
    34    32    27   ar
    35     6     1    1
    36    12     7   ar
    37    22    17   ar
    38    33    36    1
    39    15    16    1
    40    23    24    1
    41    23    25    1
@<TRIPOS>MOLECULE
*****
 38 41 0 0 0
SMALL
GASTEIGER

@<TRIPOS>ATOM
      1 N           2.4627    0.0798   18.9158 N.3     1  UNL1       -0.2689
      2 C           2.2988    1.5378   18.6037 C.3     1  UNL1        0.0727
      3 C           1.2197    2.3324   19.2777 C.3     1  UNL1        0.0217
      4 C           0.3046    1.6689   20.2638 C.3     1  UNL1        0.0251
      5 C           0.4685    0.2110   20.5759 C.3     1  UNL1        0.0217
      6 C           1.5476   -0.5837   19.9019 C.3     1  UNL1        0.0727
      7 C          -0.7745    2.4635   20.9379 C.ar    1  UNL1       -0.0224
      8 C          -1.9804    2.9011   20.1606 C.ar    1  UNL1       -0.0041
      9 C          -3.0594    3.6957   20.8346 C.ar    1  UNL1        0.0042
     10 C          -2.9325    4.0527   22.2860 C.ar    1  UNL1        0.0537
     11 C          -1.7266    3.6151   23.0633 C.ar    1  UNL1        0.0042
     12 C          -0.6476    2.8205   22.3892 C.ar    1  UNL1       -0.0041
     13 C          -4.0115    4.8473   22.9600 C.2     1  UNL1        0.2495
     14 O          -4.2023    6.2950   22.6170 O.2     1  UNL1       -0.2698
     15 N          -4.8998    4.1942   23.9770 N.am    1  UNL1       -0.2794
     16 H          -4.7746    3.2440   24.2021 H       1  UNL1        0.1552
     17 C          -5.9788    4.9888   24.6510 C.ar    1  UNL1        0.0636
     18 C          -5.6432    5.8726   25.8156 C.ar    1  UNL1        0.0159
     19 C          -6.7222    6.6672   26.4896 C.ar    1  UNL1        0.0014
     20 C          -8.1369    6.5781   25.9990 C.ar    1  UNL1        0.0013
     21 C          -8.4726    5.6943   24.8344 C.ar    1  UNL1        0.0153
     22 C          -7.3935    4.8997   24.1604 C.ar    1  UNL1        0.0552
     23 N          -7.7292    4.0159   22.9958 N.pl3   1  UNL1       -0.3560
     24 H          -8.6577    3.9574   22.6738 H       1  UNL1        0.1424
     25 H          -7.0210    3.4944   22.5534 H       1  UNL1        0.1424
     26 C           3.5418   -0.7148   18.2418 C.3     1  UNL1        0.0991
     27 C           6.2965   -3.2977   20.6892 C.ar    1  UNL1        0.0533
     28 C           6.2407   -1.8188   20.9337 C.ar    1  UNL1        0.0042
     29 C           5.3225   -0.9578   20.1179 C.ar    1  UNL1       -0.0028
     30 C           4.4600   -1.5757   19.0576 C.ar    1  UNL1       -0.0061
     31 C           4.5158   -3.0546   18.8131 C.ar    1  UNL1       -0.0028
     32 C           5.4340   -3.9155   19.6289 C.ar    1  UNL1        0.0042
     33 N           7.4193   -3.8665   22.9620 N.am    1  UNL1       -0.3009
     34 C           7.2147   -4.1586   21.5051 C.2     1  UNL1        0.2458
     35 O           7.9284   -5.3117   20.8639 O.2     1  UNL1       -0.2701
     36 H           6.9510   -3.1097   23.3828 H       1  UNL1        0.1497
     37 C           7.7695   -5.7348   24.7332 C.3     1  UNL1        0.0230
     38 C           8.3376   -4.7275   23.7778 C.3     1  UNL1        0.0898
@<TRIPOS>BOND
     1    37    38    1
     2    38    33    1
     3    33    34   am
     4    34    35    2
     5    34    27    1
     6    27    28   ar
     7    28    29   ar
     8    29    30   ar
     9    30    26    1
    10    26     1    1
    11     1     2    1
    12     2     3    1
    13     3     4    1
    14     4     7    1
    15     7     8   ar
    16     8     9   ar
    17     9    10   ar
    18    10    13    1
    19    13    14    2
    20    13    15   am
    21    15    17    1
    22    17    18   ar
    23    18    19   ar
    24    19    20   ar
    25    20    21   ar
    26    21    22   ar
    27    22    23    1
    28    10    11   ar
    29    11    12   ar
    30     4     5    1
    31     5     6    1
    32    30    31   ar
    33    31    32   ar
    34    32    27   ar
    35     6     1    1
    36    12     7   ar
    37    22    17   ar
    38    33    36    1
    39    15    16    1
    40    23    24    1
    41    23    25    1
@<TRIPOS>MOLECULE
*****
 38 41 0 0 0
SMALL
GASTEIGER

@<TRIPOS>ATOM
      1 N           8.7257   -5.6542   29.9438 N.3     1  UNL1       -0.2689
      2 C           9.5202   -4.5673   30.6053 C.3     1  UNL1        0.0727
      3 C           8.8341   -3.5692   31.4902 C.3     1  UNL1        0.0217
      4 C           7.3535   -3.6580   31.7137 C.3     1  UNL1        0.0251
      5 C           6.5590   -4.7448   31.0523 C.3     1  UNL1        0.0217
      6 C           7.2451   -5.7430   30.1673 C.3     1  UNL1        0.0727
      7 C           6.6674   -2.6599   32.5987 C.ar    1  UNL1       -0.0224
      8 C           5.1991   -2.7888   32.8770 C.ar    1  UNL1       -0.0041
      9 C           4.5131   -1.7908   33.7620 C.ar    1  UNL1        0.0042
     10 C           5.2953   -0.6638   34.3686 C.ar    1  UNL1        0.0537
     11 C           6.7636   -0.5348   34.0902 C.ar    1  UNL1        0.0042
     12 C           7.4496   -1.5329   33.2053 C.ar    1  UNL1       -0.0041
     13 C           4.6092    0.3344   35.2536 C.2     1  UNL1        0.2495
     14 O           3.7911    1.4361   34.6479 O.2     1  UNL1       -0.2698
     15 N           4.7412    0.2306   36.7441 N.am    1  UNL1       -0.2794
     16 H           5.2781   -0.4925   37.1416 H       1  UNL1        0.1552
     17 C           4.0551    1.2287   37.6290 C.ar    1  UNL1        0.0636
     18 C           2.6476    0.9832   38.0860 C.ar    1  UNL1        0.0159
     19 C           1.9615    1.9813   38.9709 C.ar    1  UNL1        0.0014
     20 C           2.6828    3.2249   39.3988 C.ar    1  UNL1        0.0013
     21 C           4.0902    3.4704   38.9418 C.ar    1  UNL1        0.0153
     22 C           4.7764    2.4723   38.0569 C.ar    1  UNL1        0.0552
     23 N           6.1838    2.7179   37.5999 N.pl3   1  UNL1       -0.3560
     24 H           6.6572    3.5341   37.8808 H       1  UNL1        0.1424
     25 H           6.6341    2.0628   37.0191 H       1  UNL1        0.1424
     26 C           9.4118   -6.6522   29.0589 C.3     1  UNL1        0.0991
     27 C           9.1256   -6.2636   24.5849 C.ar    1  UNL1        0.0533
     28 C           9.3856   -5.0506   25.4279 C.ar    1  UNL1        0.0042
     29 C           9.4810   -5.1801   26.9193 C.ar    1  UNL1       -0.0028
     30 C           9.3164   -6.5227   27.5675 C.ar    1  UNL1       -0.0061
     31 C           9.0564   -7.7357   26.7245 C.ar    1  UNL1       -0.0028
     32 C           8.9610   -7.6062   25.2331 C.ar    1  UNL1        0.0042
     33 N           9.4843   -4.8734   22.4196 N.am    1  UNL1       -0.3009
     34 C           9.0302   -6.1341   23.0935 C.2     1  UNL1        0.2458
     35 O           8.4806   -7.2653   22.2761 O.2     1  UNL1       -0.2701
     36 H           9.8450   -4.1309   22.9561 H       1  UNL1        0.1497
     37 C           8.6317   -3.5998   20.3217 C.3     1  UNL1        0.0230
     38 C           9.3889   -4.7439   20.9282 C.3     1  UNL1        0.0898
@<TRIPOS>BOND
     1    37    38    1
     2    38    33    1
     3    33    34   am
     4    34    35    2
     5    34    27    1
     6    27    28   ar
     7    28    29   ar
     8    29    30   ar
     9    30    26    1
    10    26     1    1
    11     1     2    1
    12     2     3    1
    13     3     4    1
    14     4     7    1
    15     7     8   ar
    16     8     9   ar
    17     9    10   ar
    18    10    13    1
    19    13    14    2
    20    13    15   am
    21    15    17    1
    22    17    18   ar
    23    18    19   ar
    24    19    20   ar
    25    20    21   ar
    26    21    22   ar
    27    22    23    1
    28    10    11   ar
    29    11    12   ar
    30     4     5    1
    31     5     6    1
    32    30    31   ar
    33    31    32   ar
    34    32    27   ar
    35     6     1    1
    36    12     7   ar
    37    22    17   ar
    38    33    36    1
    39    15    16    1
    40    23    24    1
    41    23    25    1
@<TRIPOS>MOLECULE
*****
 38 41 0 0 0
SMALL
GASTEIGER

@<TRIPOS>ATOM
      1 N           5.7299   -2.4665   20.0499 N.3     1  UNL1       -0.2689
      2 C           5.9180   -1.0039   20.3246 C.3     1  UNL1        0.0727
      3 C           4.7330   -0.0844   20.3356 C.3     1  UNL1        0.0217
      4 C           3.3598   -0.6274   20.0719 C.3     1  UNL1        0.0251
      5 C           3.1717   -2.0899   19.7972 C.3     1  UNL1        0.0217
      6 C           4.3567   -3.0095   19.7862 C.3     1  UNL1        0.0727
      7 C           2.1748    0.2922   20.0829 C.ar    1  UNL1       -0.0224
      8 C           1.7680    1.0064   18.8282 C.ar    1  UNL1       -0.0041
      9 C           0.5830    1.9259   18.8392 C.ar    1  UNL1        0.0042
     10 C          -0.1952    2.1313   20.1050 C.ar    1  UNL1        0.0537
     11 C           0.2116    1.4172   21.3598 C.ar    1  UNL1        0.0042
     12 C           1.3966    0.4977   21.3487 C.ar    1  UNL1       -0.0041
     13 C          -1.3802    3.0510   20.1160 C.2     1  UNL1        0.2495
     14 O          -1.2423    4.4581   19.6151 O.2     1  UNL1       -0.2698
     15 N          -2.7032    2.5634   20.6279 N.am    1  UNL1       -0.2794
     16 H          -2.7937    1.6399   20.9567 H       1  UNL1        0.1552
     17 C          -3.8881    3.4830   20.6389 C.ar    1  UNL1        0.0636
     18 C          -4.6949    3.6818   19.3900 C.ar    1  UNL1        0.0159
     19 C          -5.8799    4.6014   19.4010 C.ar    1  UNL1        0.0014
     20 C          -6.2581    5.3223   20.6609 C.ar    1  UNL1        0.0013
     21 C          -5.4514    5.1236   21.9097 C.ar    1  UNL1        0.0153
     22 C          -4.2664    4.2039   21.8988 C.ar    1  UNL1        0.0552
     23 N          -3.4597    4.0052   23.1477 N.pl3   1  UNL1       -0.3560
     24 H          -3.7080    4.4784   23.9745 H       1  UNL1        0.1424
     25 H          -2.6819    3.4016   23.1405 H       1  UNL1        0.1424
     26 C           6.9149   -3.3860   20.0389 C.3     1  UNL1        0.0991
     27 C           8.1669   -5.4881   23.8156 C.ar    1  UNL1        0.0533
     28 C           8.8889   -5.7627   22.5298 C.ar    1  UNL1        0.0042
     29 C           8.4716   -5.0620   21.2709 C.ar    1  UNL1       -0.0028
     30 C           7.3323   -4.0867   21.2978 C.ar    1  UNL1       -0.0061
     31 C           6.6103   -3.8121   22.5836 C.ar    1  UNL1       -0.0028
     32 C           7.0276   -4.5128   23.8425 C.ar    1  UNL1        0.0042
     33 N           8.8852   -7.6581   25.0506 N.am    1  UNL1       -0.3009
     34 C           8.5843   -6.1888   25.0745 C.2     1  UNL1        0.2458
     35 O           8.7006   -5.4202   26.3573 O.2     1  UNL1       -0.2701
     36 H           8.8089   -8.1626   24.2086 H       1  UNL1        0.1497
     37 C           8.2672   -8.7963   27.3029 C.3     1  UNL1        0.0230
     38 C           9.3026   -8.3588   26.3095 C.3     1  UNL1        0.0898
@<TRIPOS>BOND
     1    37    38    1
     2    38    33    1
     3    33    34   am
     4    34    35    2
     5    34    27    1
     6    27    28   ar
     7    28    29   ar
     8    29    30   ar
     9    30    26    1
    10    26     1    1
    11     1     2    1
    12     2     3    1
    13     3     4    1
    14     4     7    1
    15     7     8   ar
    16     8     9   ar
    17     9    10   ar
    18    10    13    1
    19    13    14    2
    20    13    15   am
    21    15    17    1
    22    17    18   ar
    23    18    19   ar
    24    19    20   ar
    25    20    21   ar
    26    21    22   ar
    27    22    23    1
    28    10    11   ar
    29    11    12   ar
    30     4     5    1
    31     5     6    1
    32    30    31   ar
    33    31    32   ar
    34    32    27   ar
    35     6     1    1
    36    12     7   ar
    37    22    17   ar
    38    33    36    1
    39    15    16    1
    40    23    24    1
    41    23    25    1
@<TRIPOS>MOLECULE
*****
 38 41 0 0 0
SMALL
GASTEIGER

@<TRIPOS>ATOM
      1 N           7.6491   -4.4185   25.1312 N.3     1  UNL1       -0.2689
      2 C           7.8503   -2.9787   25.5007 C.3     1  UNL1        0.0727
      3 C           7.3838   -2.4744   26.8341 C.3     1  UNL1        0.0217
      4 C           6.7161   -3.4098   27.7981 C.3     1  UNL1        0.0251
      5 C           6.5150   -4.8496   27.4286 C.3     1  UNL1        0.0217
      6 C           6.9815   -5.3540   26.0951 C.3     1  UNL1        0.0727
      7 C           6.2496   -2.9054   29.1315 C.ar    1  UNL1       -0.0224
      8 C           5.4169   -1.6605   29.2130 C.ar    1  UNL1       -0.0041
      9 C           4.9504   -1.1562   30.5464 C.ar    1  UNL1        0.0042
     10 C           5.3167   -1.8968   31.7983 C.ar    1  UNL1        0.0537
     11 C           6.1494   -3.1417   31.7169 C.ar    1  UNL1        0.0042
     12 C           6.6159   -3.6460   30.3835 C.ar    1  UNL1       -0.0041
     13 C           4.8502   -1.3924   33.1318 C.2     1  UNL1        0.2495
     14 O           3.9347   -2.2319   33.9727 O.2     1  UNL1       -0.2698
     15 N           5.2992   -0.0486   33.6243 N.am    1  UNL1       -0.2794
     16 H           5.9000    0.5023   33.0724 H       1  UNL1        0.1552
     17 C           4.8327    0.4557   34.9577 C.ar    1  UNL1        0.0636
     18 C           5.5790    0.0817   36.2040 C.ar    1  UNL1        0.0159
     19 C           5.1125    0.5860   37.5374 C.ar    1  UNL1        0.0014
     20 C           3.8996    1.4643   37.6246 C.ar    1  UNL1        0.0013
     21 C           3.1533    1.8383   36.3784 C.ar    1  UNL1        0.0153
     22 C           3.6198    1.3340   35.0449 C.ar    1  UNL1        0.0552
     23 N           2.8735    1.7081   33.7987 N.pl3   1  UNL1       -0.3560
     24 H           2.0775    2.2845   33.8559 H       1  UNL1        0.1424
     25 H           3.1797    1.3771   32.9235 H       1  UNL1        0.1424
     26 C           8.1156   -4.9228   23.7978 C.3     1  UNL1        0.0991
     27 C           6.5809   -3.0310   20.0142 C.ar    1  UNL1        0.0533
     28 C           5.6454   -3.2842   21.1591 C.ar    1  UNL1        0.0042
     29 C           6.1570   -3.9148   22.4203 C.ar    1  UNL1       -0.0028
     30 C           7.6040   -4.2922   22.5366 C.ar    1  UNL1       -0.0061
     31 C           8.5395   -4.0390   21.3918 C.ar    1  UNL1       -0.0028
     32 C           8.0279   -3.4084   20.1306 C.ar    1  UNL1        0.0042
     33 N           4.7148   -1.7564   18.7325 N.am    1  UNL1       -0.3009
     34 C           6.0693   -2.4004   18.7530 C.2     1  UNL1        0.2458
     35 O           6.9123   -2.4138   17.5124 O.2     1  UNL1       -0.2701
     36 H           4.1615   -1.7476   19.5467 H       1  UNL1        0.1497
     37 C           3.0537   -0.1636   17.5266 C.3     1  UNL1        0.0230
     38 C           4.2032   -1.1258   17.4713 C.3     1  UNL1        0.0898
@<TRIPOS>BOND
     1    37    38    1
     2    38    33    1
     3    33    34   am
     4    34    35    2
     5    34    27    1
     6    27    28   ar
     7    28    29   ar
     8    29    30   ar
     9    30    26    1
    10    26     1    1
    11     1     2    1
    12     2     3    1
    13     3     4    1
    14     4     7    1
    15     7     8   ar
    16     8     9   ar
    17     9    10   ar
    18    10    13    1
    19    13    14    2
    20    13    15   am
    21    15    17    1
    22    17    18   ar
    23    18    19   ar
    24    19    20   ar
    25    20    21   ar
    26    21    22   ar
    27    22    23    1
    28    10    11   ar
    29    11    12   ar
    30     4     5    1
    31     5     6    1
    32    30    31   ar
    33    31    32   ar
    34    32    27   ar
    35     6     1    1
    36    12     7   ar
    37    22    17   ar
    38    33    36    1
    39    15    16    1
    40    23    24    1
    41    23    25    1
