@<TRIPOS>MOLECULE
*****
 26 27 0 0 0
SMALL
GASTEIGER

@<TRIPOS>ATOM
      1 C          -7.9503  -19.4866   21.7747 C.3     1  UNL1        0.2969
      2 F          -8.1176  -18.6419   20.5465 F       1  UNL1       -0.1981
      3 F          -7.7830  -20.3313   23.0029 F       1  UNL1       -0.1981
      4 C          -4.0021  -19.0972   21.8748 C.ar    1  UNL1        0.1384
      5 C          -3.5955  -20.0527   20.7924 C.ar    1  UNL1        0.0369
      6 C          -4.6404  -20.8195   20.0374 C.ar    1  UNL1        0.0030
      7 C          -6.0920  -20.6308   20.3648 C.ar    1  UNL1        0.0012
      8 C          -6.4986  -19.6753   21.4472 C.ar    1  UNL1        0.0422
      9 C          -5.4537  -18.9085   22.2022 C.ar    1  UNL1        0.0379
     10 O          -2.9571  -18.3303   22.6298 O.3     1  UNL1       -0.4755
     11 C          -2.8012  -16.8554   22.4060 C.3     1  UNL1        0.2054
     12 C          -1.7555  -16.3469   21.4584 C.3     1  UNL1        0.0473
     13 C          -0.1834  -17.8023   19.9884 C.3     1  UNL1        0.0001
     14 C          -1.4840  -17.0794   20.1778 C.3     1  UNL1        0.0038
     15 C          -9.4019  -19.2979   22.1022 C.3     1  UNL1        0.1409
     16 N         -10.0457  -17.9568   21.9108 N.3     1  UNL1       -0.2850
     17 H         -11.0532  -18.1145   21.8871 H       1  UNL1        0.1239
     18 C          -9.8024  -16.8594   22.9041 C.3     1  UNL1        0.1553
     19 C          -8.4336  -16.2614   23.0408 C.2     1  UNL1        0.2418
     20 O          -7.6431  -15.9095   21.8155 O.2     1  UNL1       -0.2734
     21 N          -7.8552  -16.0153   24.4027 N.am    1  UNL1       -0.2784
     22 C          -8.6457  -16.3672   25.6280 C.3     1  UNL1        0.0934
     23 C          -8.0674  -16.1212   26.9900 C.3     1  UNL1        0.0216
     24 C          -6.6985  -15.5232   27.1267 C.3     1  UNL1        0.0035
     25 C          -5.9080  -15.1713   25.9013 C.3     1  UNL1        0.0216
     26 C          -6.4864  -15.4174   24.5394 C.3     1  UNL1        0.0934
@<TRIPOS>BOND
     1    13    14    1
     2    14    12    1
     3    12    11    1
     4    11    10    1
     5    10     4    1
     6     4     5   ar
     7     5     6   ar
     8     6     7   ar
     9     7     8   ar
    10     8     1    1
    11     1     2    1
    12     1     3    1
    13     1    15    1
    14    15    16    1
    15    16    18    1
    16    18    19    1
    17    19    20    2
    18    19    21   am
    19    21    22    1
    20    22    23    1
    21    23    24    1
    22    24    25    1
    23    25    26    1
    24     8     9   ar
    25     9     4   ar
    26    26    21    1
    27    16    17    1
@<TRIPOS>MOLECULE
*****
 26 27 0 0 0
SMALL
GASTEIGER

@<TRIPOS>ATOM
      1 C          -4.4293  -16.2009   23.8157 C.3     1  UNL1        0.2969
      2 F          -4.5945  -14.9883   22.9485 F       1  UNL1       -0.1981
      3 F          -4.2641  -17.4136   24.6829 F       1  UNL1       -0.1981
      4 C          -2.8564  -18.8850   21.3515 C.ar    1  UNL1        0.1384
      5 C          -1.7803  -18.0714   20.6958 C.ar    1  UNL1        0.0369
      6 C          -1.5872  -16.6344   21.0799 C.ar    1  UNL1        0.0030
      7 C          -2.4701  -16.0109   22.1199 C.ar    1  UNL1        0.0012
      8 C          -3.5462  -16.8244   22.7757 C.ar    1  UNL1        0.0422
      9 C          -3.7394  -18.2615   22.3915 C.ar    1  UNL1        0.0379
     10 O          -3.0495  -20.3220   20.9674 O.3     1  UNL1       -0.4755
     11 C          -4.0276  -20.6854   19.8898 C.3     1  UNL1        0.2054
     12 C          -5.4051  -21.1542   20.2542 C.3     1  UNL1        0.0473
     13 C          -6.8528  -20.1268   22.1513 C.3     1  UNL1        0.0001
     14 C          -6.4374  -20.1661   20.7105 C.3     1  UNL1        0.0038
     15 C          -5.3123  -15.5775   24.8557 C.3     1  UNL1        0.1409
     16 N          -6.4403  -14.6797   24.4415 N.3     1  UNL1       -0.2850
     17 H          -6.1795  -14.2748   23.5423 H       1  UNL1        0.1239
     18 C          -7.8230  -15.2383   24.2801 C.3     1  UNL1        0.1553
     19 C          -8.2377  -15.8485   22.9740 C.2     1  UNL1        0.2418
     20 O          -7.8181  -15.2120   21.6821 O.2     1  UNL1       -0.2734
     21 N          -9.0718  -17.0950   22.9598 N.am    1  UNL1       -0.2784
     22 C          -9.4914  -17.7314   24.2516 C.3     1  UNL1        0.0934
     23 C         -10.3256  -18.9780   24.2374 C.3     1  UNL1        0.0216
     24 C         -10.7403  -19.5881   22.9313 C.3     1  UNL1        0.0035
     25 C         -10.3207  -18.9516   21.6394 C.3     1  UNL1        0.0216
     26 C          -9.4865  -17.7051   21.6537 C.3     1  UNL1        0.0934
@<TRIPOS>BOND
     1    13    14    1
     2    14    12    1
     3    12    11    1
     4    11    10    1
     5    10     4    1
     6     4     5   ar
     7     5     6   ar
     8     6     7   ar
     9     7     8   ar
    10     8     1    1
    11     1     2    1
    12     1     3    1
    13     1    15    1
    14    15    16    1
    15    16    18    1
    16    18    19    1
    17    19    20    2
    18    19    21   am
    19    21    22    1
    20    22    23    1
    21    23    24    1
    22    24    25    1
    23    25    26    1
    24     8     9   ar
    25     9     4   ar
    26    26    21    1
    27    16    17    1
@<TRIPOS>MOLECULE
*****
 26 27 0 0 0
SMALL
GASTEIGER

@<TRIPOS>ATOM
      1 C          -6.4598  -19.8676   20.3074 C.3     1  UNL1        0.2969
      2 F          -5.9358  -21.2534   20.0733 F       1  UNL1       -0.1981
      3 F          -6.9838  -18.4818   20.5416 F       1  UNL1       -0.1981
      4 C          -3.9350  -18.2495   22.9069 C.ar    1  UNL1        0.1384
      5 C          -2.6258  -18.7700   22.3921 C.ar    1  UNL1        0.0369
      6 C          -2.5946  -19.6564   21.1824 C.ar    1  UNL1        0.0030
      7 C          -3.8726  -20.0223   20.4875 C.ar    1  UNL1        0.0012
      8 C          -5.1817  -19.5018   21.0023 C.ar    1  UNL1        0.0422
      9 C          -5.2129  -18.6153   22.2120 C.ar    1  UNL1        0.0379
     10 O          -3.9662  -17.3631   24.1165 O.3     1  UNL1       -0.4755
     11 C          -4.8964  -16.1872   24.1609 C.3     1  UNL1        0.2054
     12 C          -5.3255  -15.6198   25.4815 C.3     1  UNL1        0.0473
     13 C          -7.2165  -15.4497   27.2551 C.3     1  UNL1        0.0001
     14 C          -6.7839  -15.5302   25.8210 C.3     1  UNL1        0.0038
     15 C          -7.7378  -20.2334   19.6126 C.3     1  UNL1        0.1409
     16 N          -8.7158  -19.1628   19.2288 N.3     1  UNL1       -0.2850
     17 H          -8.5250  -18.9250   18.2554 H       1  UNL1        0.1239
     18 C         -10.1898  -19.4221   19.3303 C.3     1  UNL1        0.1553
     19 C         -11.0516  -18.5310   20.1747 C.2     1  UNL1        0.2418
     20 O         -11.8190  -17.4092   19.5399 O.2     1  UNL1       -0.2734
     21 N         -11.1462  -18.7615   21.6538 N.am    1  UNL1       -0.2784
     22 C         -10.3789  -19.8833   22.2885 C.3     1  UNL1        0.0934
     23 C         -10.4734  -20.1139   23.7677 C.3     1  UNL1        0.0216
     24 C         -11.3352  -19.2227   24.6122 C.3     1  UNL1        0.0035
     25 C         -12.1026  -18.1009   23.9774 C.3     1  UNL1        0.0216
     26 C         -12.0080  -17.8704   22.4983 C.3     1  UNL1        0.0934
@<TRIPOS>BOND
     1    13    14    1
     2    14    12    1
     3    12    11    1
     4    11    10    1
     5    10     4    1
     6     4     5   ar
     7     5     6   ar
     8     6     7   ar
     9     7     8   ar
    10     8     1    1
    11     1     2    1
    12     1     3    1
    13     1    15    1
    14    15    16    1
    15    16    18    1
    16    18    19    1
    17    19    20    2
    18    19    21   am
    19    21    22    1
    20    22    23    1
    21    23    24    1
    22    24    25    1
    23    25    26    1
    24     8     9   ar
    25     9     4   ar
    26    26    21    1
    27    16    17    1
@<TRIPOS>MOLECULE
*****
 26 27 0 0 0
SMALL
GASTEIGER

@<TRIPOS>ATOM
      1 C          -7.8012  -15.9335   23.6153 C.3     1  UNL1        0.2969
      2 F          -7.8904  -16.5941   24.9590 F       1  UNL1       -0.1981
      3 F          -7.7120  -15.2730   22.2716 F       1  UNL1       -0.1981
      4 C         -10.2840  -17.9008   21.2247 C.ar    1  UNL1        0.1384
      5 C         -11.3376  -18.3306   22.2020 C.ar    1  UNL1        0.0369
      6 C         -11.2124  -17.9614   23.6504 C.ar    1  UNL1        0.0030
      7 C         -10.0336  -17.1624   24.1215 C.ar    1  UNL1        0.0012
      8 C          -8.9801  -16.7326   23.1442 C.ar    1  UNL1        0.0422
      9 C          -9.1053  -17.1018   21.6958 C.ar    1  UNL1        0.0379
     10 O         -10.4093  -18.2701   19.7762 O.3     1  UNL1       -0.4755
     11 C         -10.2210  -19.6948   19.3464 C.3     1  UNL1        0.2054
     12 C          -8.9705  -20.1015   18.6248 C.3     1  UNL1        0.0473
     13 C          -9.3403  -21.4224   16.4183 C.3     1  UNL1        0.0001
     14 C          -8.9313  -21.3920   17.8611 C.3     1  UNL1        0.0038
     15 C          -6.6224  -15.1345   24.0863 C.3     1  UNL1        0.1409
     16 N          -5.2477  -15.4559   23.5796 N.3     1  UNL1       -0.2850
     17 H          -4.6239  -14.7355   23.9432 H       1  UNL1        0.1239
     18 C          -4.6185  -16.7781   23.9052 C.3     1  UNL1        0.1553
     19 C          -3.8011  -17.4945   22.8714 C.2     1  UNL1        0.2418
     20 O          -2.3617  -17.1257   22.6657 O.2     1  UNL1       -0.2734
     21 N          -4.4229  -18.5797   22.0435 N.am    1  UNL1       -0.2784
     22 C          -5.8622  -18.9485   22.2492 C.3     1  UNL1        0.0934
     23 C          -6.4842  -20.0337   21.4213 C.3     1  UNL1        0.0216
     24 C          -5.6668  -20.7502   20.3875 C.3     1  UNL1        0.0035
     25 C          -4.2274  -20.3813   20.1818 C.3     1  UNL1        0.0216
     26 C          -3.6055  -19.2961   21.0097 C.3     1  UNL1        0.0934
@<TRIPOS>BOND
     1    13    14    1
     2    14    12    1
     3    12    11    1
     4    11    10    1
     5    10     4    1
     6     4     5   ar
     7     5     6   ar
     8     6     7   ar
     9     7     8   ar
    10     8     1    1
    11     1     2    1
    12     1     3    1
    13     1    15    1
    14    15    16    1
    15    16    18    1
    16    18    19    1
    17    19    20    2
    18    19    21   am
    19    21    22    1
    20    22    23    1
    21    23    24    1
    22    24    25    1
    23    25    26    1
    24     8     9   ar
    25     9     4   ar
    26    26    21    1
    27    16    17    1
@<TRIPOS>MOLECULE
*****
 26 27 0 0 0
SMALL
GASTEIGER

@<TRIPOS>ATOM
      1 C          -8.4651  -19.2529   20.5812 C.3     1  UNL1        0.2969
      2 F          -7.7020  -19.5150   21.8456 F       1  UNL1       -0.1981
      3 F          -9.2283  -18.9907   19.3168 F       1  UNL1       -0.1981
      4 C         -10.1595  -16.8536   23.2501 C.ar    1  UNL1        0.1384
      5 C         -11.6115  -17.0597   22.9350 C.ar    1  UNL1        0.0369
      6 C         -12.0147  -17.9967   21.8353 C.ar    1  UNL1        0.0030
      7 C         -10.9659  -18.7278   21.0507 C.ar    1  UNL1        0.0012
      8 C          -9.5140  -18.5218   21.3658 C.ar    1  UNL1        0.0422
      9 C          -9.1108  -17.5847   22.4655 C.ar    1  UNL1        0.0379
     10 O          -9.7563  -15.9166   24.3498 O.3     1  UNL1       -0.4755
     11 C          -8.4277  -16.0814   25.0261 C.3     1  UNL1        0.2054
     12 C          -8.3100  -15.8789   26.5077 C.3     1  UNL1        0.0473
     13 C          -5.7805  -15.3375   26.2660 C.3     1  UNL1        0.0001
     14 C          -6.9626  -15.6621   27.1304 C.3     1  UNL1        0.0038
     15 C          -7.4163  -19.9839   19.7966 C.3     1  UNL1        0.1409
     16 N          -6.3938  -20.8195   20.5081 N.3     1  UNL1       -0.2850
     17 H          -6.5110  -21.7760   20.1739 H       1  UNL1        0.1239
     18 C          -4.9358  -20.4913   20.3794 C.3     1  UNL1        0.1553
     19 C          -4.2958  -19.5309   21.3376 C.2     1  UNL1        0.2418
     20 O          -4.7783  -19.4529   22.7558 O.2     1  UNL1       -0.2734
     21 N          -3.1733  -18.6486   20.8776 N.am    1  UNL1       -0.2784
     22 C          -2.6909  -18.7267   19.4595 C.3     1  UNL1        0.0934
     23 C          -1.5683  -17.8444   18.9995 C.3     1  UNL1        0.0216
     24 C          -0.9283  -16.8840   19.9577 C.3     1  UNL1        0.0035
     25 C          -1.4108  -16.8060   21.3759 C.3     1  UNL1        0.0216
     26 C          -2.5333  -17.6883   21.8358 C.3     1  UNL1        0.0934
@<TRIPOS>BOND
     1    13    14    1
     2    14    12    1
     3    12    11    1
     4    11    10    1
     5    10     4    1
     6     4     5   ar
     7     5     6   ar
     8     6     7   ar
     9     7     8   ar
    10     8     1    1
    11     1     2    1
    12     1     3    1
    13     1    15    1
    14    15    16    1
    15    16    18    1
    16    18    19    1
    17    19    20    2
    18    19    21   am
    19    21    22    1
    20    22    23    1
    21    23    24    1
    22    24    25    1
    23    25    26    1
    24     8     9   ar
    25     9     4   ar
    26    26    21    1
    27    16    17    1
@<TRIPOS>MOLECULE
*****
 26 27 0 0 0
SMALL
GASTEIGER

@<TRIPOS>ATOM
      1 C          -4.9648  -16.7319   24.0582 C.3     1  UNL1        0.2969
      2 F          -3.9216  -17.0466   25.0891 F       1  UNL1       -0.1981
      3 F          -6.0079  -16.4172   23.0273 F       1  UNL1       -0.1981
      4 C          -4.5672  -19.6256   21.3715 C.ar    1  UNL1        0.1384
      5 C          -3.0741  -19.6891   21.2421 C.ar    1  UNL1        0.0369
      6 C          -2.2113  -18.7669   22.0515 C.ar    1  UNL1        0.0030
      7 C          -2.8415  -17.7812   22.9902 C.ar    1  UNL1        0.0012
      8 C          -4.3345  -17.7176   23.1195 C.ar    1  UNL1        0.0422
      9 C          -5.1973  -18.6398   22.3102 C.ar    1  UNL1        0.0379
     10 O          -5.4300  -20.5478   20.5621 O.3     1  UNL1       -0.4755
     11 C          -6.9229  -20.4089   20.6055 C.3     1  UNL1        0.2054
     12 C          -7.6165  -19.4697   19.6639 C.3     1  UNL1        0.0473
     13 C          -8.9534  -21.0054   18.0500 C.3     1  UNL1        0.0001
     14 C          -8.9152  -19.8686   19.0279 C.3     1  UNL1        0.0038
     15 C          -5.5950  -15.7462   24.9969 C.3     1  UNL1        0.1409
     16 N          -6.6278  -14.7833   24.4907 N.3     1  UNL1       -0.2850
     17 H          -6.6016  -14.8318   23.4722 H       1  UNL1        0.1239
     18 C          -8.0636  -14.9424   24.8951 C.3     1  UNL1        0.1553
     19 C          -8.5479  -16.2524   25.4421 C.2     1  UNL1        0.2418
     20 O          -8.4152  -16.5487   26.9066 O.2     1  UNL1       -0.2734
     21 N          -9.1650  -17.2661   24.5248 N.am    1  UNL1       -0.2784
     22 C          -9.2977  -16.9698   23.0604 C.3     1  UNL1        0.0934
     23 C          -9.9148  -17.9835   22.1430 C.3     1  UNL1        0.0216
     24 C         -10.3992  -19.2935   22.6900 C.3     1  UNL1        0.0035
     25 C         -10.2664  -19.5898   24.1545 C.3     1  UNL1        0.0216
     26 C          -9.6493  -18.5761   25.0719 C.3     1  UNL1        0.0934
@<TRIPOS>BOND
     1    13    14    1
     2    14    12    1
     3    12    11    1
     4    11    10    1
     5    10     4    1
     6     4     5   ar
     7     5     6   ar
     8     6     7   ar
     9     7     8   ar
    10     8     1    1
    11     1     2    1
    12     1     3    1
    13     1    15    1
    14    15    16    1
    15    16    18    1
    16    18    19    1
    17    19    20    2
    18    19    21   am
    19    21    22    1
    20    22    23    1
    21    23    24    1
    22    24    25    1
    23    25    26    1
    24     8     9   ar
    25     9     4   ar
    26    26    21    1
    27    16    17    1
@<TRIPOS>MOLECULE
*****
 26 27 0 0 0
SMALL
GASTEIGER

@<TRIPOS>ATOM
      1 C          -4.7448  -16.2651   24.0157 C.3     1  UNL1        0.2969
      2 F          -4.7451  -17.1587   25.2204 F       1  UNL1       -0.1981
      3 F          -4.7445  -15.3715   22.8109 F       1  UNL1       -0.1981
      4 C          -2.1425  -18.4999   22.0197 C.ar    1  UNL1        0.1384
      5 C          -3.0316  -19.6074   21.5369 C.ar    1  UNL1        0.0369
      6 C          -4.4917  -19.6007   21.8804 C.ar    1  UNL1        0.0030
      7 C          -5.0628  -18.4867   22.7067 C.ar    1  UNL1        0.0012
      8 C          -4.1737  -17.3792   23.1894 C.ar    1  UNL1        0.0422
      9 C          -2.7136  -17.3858   22.8459 C.ar    1  UNL1        0.0379
     10 O          -0.6824  -18.5065   21.6762 O.3     1  UNL1       -0.4755
     11 C          -0.2496  -18.4774   20.2403 C.3     1  UNL1        0.2054
     12 C          -0.7813  -17.4208   19.3179 C.3     1  UNL1        0.0473
     13 C          -3.3094  -17.3513   18.7231 C.3     1  UNL1        0.0001
     14 C          -1.9036  -17.7429   18.3762 C.3     1  UNL1        0.0038
     15 C          -5.3158  -15.1510   24.8419 C.3     1  UNL1        0.1409
     16 N          -6.6637  -14.5840   24.5074 N.3     1  UNL1       -0.2850
     17 H          -6.5863  -14.1688   23.5790 H       1  UNL1        0.1239
     18 C          -7.8682  -15.4777   24.4832 C.3     1  UNL1        0.1553
     19 C          -8.2475  -16.1911   23.2194 C.2     1  UNL1        0.2418
     20 O          -7.8020  -15.6531   21.8919 O.2     1  UNL1       -0.2734
     21 N          -9.0722  -17.4423   23.2831 N.am    1  UNL1       -0.2784
     22 C          -9.5177  -17.9802   24.6106 C.3     1  UNL1        0.0934
     23 C         -10.3424  -19.2316   24.6743 C.3     1  UNL1        0.0216
     24 C         -10.7217  -19.9449   23.4105 C.3     1  UNL1        0.0035
     25 C         -10.2763  -19.4070   22.0830 C.3     1  UNL1        0.0216
     26 C          -9.4515  -18.1557   22.0193 C.3     1  UNL1        0.0934
@<TRIPOS>BOND
     1    13    14    1
     2    14    12    1
     3    12    11    1
     4    11    10    1
     5    10     4    1
     6     4     5   ar
     7     5     6   ar
     8     6     7   ar
     9     7     8   ar
    10     8     1    1
    11     1     2    1
    12     1     3    1
    13     1    15    1
    14    15    16    1
    15    16    18    1
    16    18    19    1
    17    19    20    2
    18    19    21   am
    19    21    22    1
    20    22    23    1
    21    23    24    1
    22    24    25    1
    23    25    26    1
    24     8     9   ar
    25     9     4   ar
    26    26    21    1
    27    16    17    1
@<TRIPOS>MOLECULE
*****
 26 27 0 0 0
SMALL
GASTEIGER

@<TRIPOS>ATOM
      1 C          -8.6125  -16.0163   24.2670 C.3     1  UNL1        0.2969
      2 F          -8.8729  -16.5178   25.6564 F       1  UNL1       -0.1981
      3 F          -8.3521  -15.5147   22.8776 F       1  UNL1       -0.1981
      4 C         -10.3574  -18.4499   21.6626 C.ar    1  UNL1        0.1384
      5 C         -10.8798  -19.5172   22.5780 C.ar    1  UNL1        0.0369
      6 C         -10.6464  -19.4175   24.0564 C.ar    1  UNL1        0.0030
      7 C          -9.8907  -18.2506   24.6194 C.ar    1  UNL1        0.0012
      8 C          -9.3683  -17.1833   23.7040 C.ar    1  UNL1        0.0422
      9 C          -9.6017  -17.2830   22.2256 C.ar    1  UNL1        0.0379
     10 O         -10.5908  -18.5496   20.1842 O.3     1  UNL1       -0.4755
     11 C         -10.0261  -19.7049   19.4120 C.3     1  UNL1        0.2054
     12 C          -8.5896  -19.6882   18.9807 C.3     1  UNL1        0.0473
     13 C          -6.4875  -18.9367   20.3098 C.3     1  UNL1        0.0001
     14 C          -7.5050  -19.9862   19.9731 C.3     1  UNL1        0.0038
     15 C          -7.8567  -14.8493   24.8299 C.3     1  UNL1        0.1409
     16 N          -6.3571  -14.8706   24.8593 N.3     1  UNL1       -0.2850
     17 H          -6.0807  -14.7950   25.8382 H       1  UNL1        0.1239
     18 C          -5.6124  -16.0408   24.2882 C.3     1  UNL1        0.1553
     19 C          -4.5099  -15.8163   23.2961 C.2     1  UNL1        0.2418
     20 O          -4.1467  -14.4212   22.8814 O.2     1  UNL1       -0.2734
     21 N          -3.7706  -16.9868   22.7189 N.am    1  UNL1       -0.2784
     22 C          -4.1337  -18.3818   23.1337 C.3     1  UNL1        0.0934
     23 C          -3.3944  -19.5524   22.5564 C.3     1  UNL1        0.0216
     24 C          -2.2919  -19.3279   21.5644 C.3     1  UNL1        0.0035
     25 C          -1.9287  -17.9329   21.1496 C.3     1  UNL1        0.0216
     26 C          -2.6681  -16.7623   21.7269 C.3     1  UNL1        0.0934
@<TRIPOS>BOND
     1    13    14    1
     2    14    12    1
     3    12    11    1
     4    11    10    1
     5    10     4    1
     6     4     5   ar
     7     5     6   ar
     8     6     7   ar
     9     7     8   ar
    10     8     1    1
    11     1     2    1
    12     1     3    1
    13     1    15    1
    14    15    16    1
    15    16    18    1
    16    18    19    1
    17    19    20    2
    18    19    21   am
    19    21    22    1
    20    22    23    1
    21    23    24    1
    22    24    25    1
    23    25    26    1
    24     8     9   ar
    25     9     4   ar
    26    26    21    1
    27    16    17    1
@<TRIPOS>MOLECULE
*****
 26 27 0 0 0
SMALL
GASTEIGER

@<TRIPOS>ATOM
      1 C         -10.3454  -19.1176   20.2892 C.3     1  UNL1        0.2969
      2 F         -10.6849  -20.5500   20.5771 F       1  UNL1       -0.1981
      3 F         -10.0060  -17.6852   20.0012 F       1  UNL1       -0.1981
      4 C         -11.3723  -18.4104   24.0569 C.ar    1  UNL1        0.1384
      5 C         -12.7427  -17.8290   23.8728 C.ar    1  UNL1        0.0369
      6 C         -13.3140  -17.6771   22.4942 C.ar    1  UNL1        0.0030
      7 C         -12.5150  -18.1066   21.2997 C.ar    1  UNL1        0.0012
      8 C         -11.1446  -18.6880   21.4837 C.ar    1  UNL1        0.0422
      9 C         -10.5732  -18.8399   22.8623 C.ar    1  UNL1        0.0379
     10 O         -10.8009  -18.5623   25.4354 O.3     1  UNL1       -0.4755
     11 C          -9.4294  -18.0374   25.7409 C.3     1  UNL1        0.2054
     12 C          -8.9518  -16.7684   25.0993 C.3     1  UNL1        0.0473
     13 C          -8.0775  -15.7886   27.3411 C.3     1  UNL1        0.0001
     14 C          -8.6001  -15.5841   25.9500 C.3     1  UNL1        0.0038
     15 C          -9.5463  -19.5470   19.0946 C.3     1  UNL1        0.1409
     16 N          -8.0664  -19.3053   19.0559 N.3     1  UNL1       -0.2850
     17 H          -7.9115  -18.3672   19.4252 H       1  UNL1        0.1239
     18 C          -7.1373  -20.2211   19.7964 C.3     1  UNL1        0.1553
     19 C          -6.5300  -19.7826   21.0960 C.2     1  UNL1        0.2418
     20 O          -7.3420  -19.8281   22.3564 O.2     1  UNL1       -0.2734
     21 N          -5.1108  -19.2987   21.1352 N.am    1  UNL1       -0.2784
     22 C          -4.2989  -19.2532   19.8748 C.3     1  UNL1        0.0934
     23 C          -2.8796  -18.7692   19.9139 C.3     1  UNL1        0.0216
     24 C          -2.2723  -18.3308   21.2136 C.3     1  UNL1        0.0035
     25 C          -3.0843  -18.3763   22.4740 C.3     1  UNL1        0.0216
     26 C          -4.5035  -18.8602   22.4348 C.3     1  UNL1        0.0934
@<TRIPOS>BOND
     1    13    14    1
     2    14    12    1
     3    12    11    1
     4    11    10    1
     5    10     4    1
     6     4     5   ar
     7     5     6   ar
     8     6     7   ar
     9     7     8   ar
    10     8     1    1
    11     1     2    1
    12     1     3    1
    13     1    15    1
    14    15    16    1
    15    16    18    1
    16    18    19    1
    17    19    20    2
    18    19    21   am
    19    21    22    1
    20    22    23    1
    21    23    24    1
    22    24    25    1
    23    25    26    1
    24     8     9   ar
    25     9     4   ar
    26    26    21    1
    27    16    17    1
