@<TRIPOS>MOLECULE
*****
 32 34 0 0 0
SMALL
GASTEIGER

@<TRIPOS>ATOM
      1 C          -9.2089  -18.3853   22.6636 C.3     1  UNL1        0.0377
      2 C          -9.8708  -19.1631   21.5650 C.3     1  UNL1        0.0075
      3 C          -9.0613  -19.6563   20.4025 C.3     1  UNL1        0.0219
      4 C          -7.5899  -19.3718   20.3386 C.3     1  UNL1        0.0950
      5 N          -6.9280  -18.5940   21.4372 N.am    1  UNL1       -0.2637
      6 C          -5.4566  -18.3095   21.3733 C.2     1  UNL1        0.3077
      7 O          -4.7948  -17.5317   22.4719 O.2     1  UNL1       -0.2522
      8 N          -4.6471  -18.8027   20.2108 N.am    1  UNL1       -0.2681
      9 C          -7.7375  -18.1008   22.5997 C.3     1  UNL1        0.0989
     10 H          -5.0815  -19.3132   19.4897 H       1  UNL1        0.1564
     11 C          -3.1758  -18.5182   20.1470 C.ar    1  UNL1        0.0516
     12 C          -2.2772  -18.9609   21.2636 C.ar    1  UNL1        0.0156
     13 C          -0.8059  -18.6764   21.1998 C.ar    1  UNL1        0.0127
     14 C          -0.2330  -17.9491   20.0196 C.ar    1  UNL1        0.0578
     15 CL          1.2384  -17.6646   19.9558 Cl      1  UNL1       -0.0822
     16 C          -1.1315  -17.5064   18.9030 C.ar    1  UNL1        0.0127
     17 C          -2.6030  -17.7910   18.9668 C.ar    1  UNL1        0.0156
     18 C         -10.6208  -18.4017   23.1701 C.ar    1  UNL1       -0.0212
     19 C         -11.7289  -17.8544   22.3202 C.ar    1  UNL1       -0.0043
     20 C         -13.1407  -17.8708   22.8268 C.ar    1  UNL1        0.0035
     21 C         -13.4442  -18.4345   24.1833 C.ar    1  UNL1        0.0714
     22 C         -12.3361  -18.9818   25.0332 C.ar    1  UNL1        0.0035
     23 C         -10.9243  -18.9654   24.5266 C.ar    1  UNL1       -0.0043
     24 C         -14.8561  -18.4509   24.6898 C.3     1  UNL1        0.4186
     25 F         -16.2679  -18.4672   25.1963 F       1  UNL1       -0.1659
     26 F         -14.3533  -18.3095   26.0959 F       1  UNL1       -0.1659
     27 F         -15.3589  -18.5923   23.2837 F       1  UNL1       -0.1659
     28 C          -9.0373  -17.6132   23.9381 C.3     1  UNL1        0.0116
     29 C          -8.7899  -16.1345   23.8917 C.3     1  UNL1        0.0421
     30 O          -8.4821  -15.5192   26.3971 O.co2   1  UNL1       -0.5492
     31 C          -7.9961  -15.4724   24.9788 C.2     1  UNL1        0.0503
     32 O          -6.7164  -14.7636   24.6474 O.co2   1  UNL1       -0.5492
@<TRIPOS>UNITY_ATOM_ATTR
30 1
charge -1
@<TRIPOS>BOND
     1    30    31   ar
     2    31    32   ar
     3    31    29    1
     4    29    28    1
     5    28     1    1
     6     1    18    1
     7    18    19   ar
     8    19    20   ar
     9    20    21   ar
    10    21    24    1
    11    24    25    1
    12    24    26    1
    13    24    27    1
    14    21    22   ar
    15    22    23   ar
    16     1     2    1
    17     2     3    1
    18     3     4    1
    19     4     5    1
    20     5     6   am
    21     6     7    2
    22     6     8   am
    23     8    11    1
    24    11    12   ar
    25    12    13   ar
    26    13    14   ar
    27    14    15    1
    28    14    16   ar
    29    16    17   ar
    30     5     9    1
    31     9     1    1
    32    23    18   ar
    33    17    11   ar
    34     8    10    1
@<TRIPOS>MOLECULE
*****
 32 34 0 0 0
SMALL
GASTEIGER

@<TRIPOS>ATOM
      1 C           3.2777   -0.9283   21.8783 C.3     1  UNL1        0.0377
      2 C           3.0357    0.0767   22.9652 C.3     1  UNL1        0.0075
      3 C           3.6355   -0.1296   24.3245 C.3     1  UNL1        0.0219
      4 C           4.4774   -1.3409   24.5968 C.3     1  UNL1        0.0950
      5 N           4.7194   -2.3458   23.5099 N.am    1  UNL1       -0.2637
      6 C           5.5613   -3.5571   23.7822 C.2     1  UNL1        0.3077
      7 O           5.8033   -4.5620   22.6952 O.2     1  UNL1       -0.2522
      8 N           6.1611   -3.7633   25.1415 N.am    1  UNL1       -0.2681
      9 C           4.1196   -2.1396   22.1506 C.3     1  UNL1        0.0989
     10 H           6.0023   -3.1038   25.8549 H       1  UNL1        0.1564
     11 C           7.0029   -4.9746   25.4138 C.ar    1  UNL1        0.0516
     12 C           6.5722   -5.9697   26.4504 C.ar    1  UNL1        0.0156
     13 C           7.4140   -7.1809   26.7227 C.ar    1  UNL1        0.0127
     14 C           8.6865   -7.3972   25.9585 C.ar    1  UNL1        0.0578
     15 CL          9.5283   -8.6085   26.2308 Cl      1  UNL1       -0.0822
     16 C           9.1172   -6.4022   24.9219 C.ar    1  UNL1        0.0127
     17 C           8.2754   -5.1909   24.6496 C.ar    1  UNL1        0.0156
     18 C           2.4160    0.0522   21.1392 C.ar    1  UNL1       -0.0212
     19 C           2.9127    1.4445   20.8850 C.ar    1  UNL1       -0.0043
     20 C           2.0509    2.4249   20.1460 C.ar    1  UNL1        0.0035
     21 C           0.6925    2.0130   19.6613 C.ar    1  UNL1        0.0714
     22 C           0.1958    0.6207   19.9155 C.ar    1  UNL1        0.0035
     23 C           1.0575   -0.3597   20.6545 C.ar    1  UNL1       -0.0043
     24 C          -0.1693    2.9935   18.9223 C.3     1  UNL1        0.4186
     25 F          -1.0310    3.9740   18.1833 F       1  UNL1       -0.1659
     26 F          -1.2894    2.7356   19.8860 F       1  UNL1       -0.1659
     27 F           0.9508    3.2515   17.9585 F       1  UNL1       -0.1659
     28 C           3.2205   -1.5928   20.5346 C.3     1  UNL1        0.0116
     29 C           4.4783   -1.7914   19.7420 C.3     1  UNL1        0.0421
     30 O           3.4135   -0.5573   17.7187 O.co2   1  UNL1       -0.5492
     31 C           4.5362   -1.3599   18.3065 C.2     1  UNL1        0.0503
     32 O           5.7169   -1.7309   17.4589 O.co2   1  UNL1       -0.5492
@<TRIPOS>UNITY_ATOM_ATTR
30 1
charge -1
@<TRIPOS>BOND
     1    30    31   ar
     2    31    32   ar
     3    31    29    1
     4    29    28    1
     5    28     1    1
     6     1    18    1
     7    18    19   ar
     8    19    20   ar
     9    20    21   ar
    10    21    24    1
    11    24    25    1
    12    24    26    1
    13    24    27    1
    14    21    22   ar
    15    22    23   ar
    16     1     2    1
    17     2     3    1
    18     3     4    1
    19     4     5    1
    20     5     6   am
    21     6     7    2
    22     6     8   am
    23     8    11    1
    24    11    12   ar
    25    12    13   ar
    26    13    14   ar
    27    14    15    1
    28    14    16   ar
    29    16    17   ar
    30     5     9    1
    31     9     1    1
    32    23    18   ar
    33    17    11   ar
    34     8    10    1
@<TRIPOS>MOLECULE
*****
 32 34 0 0 0
SMALL
GASTEIGER

@<TRIPOS>ATOM
      1 C           5.7923   -1.9009   29.6831 C.3     1  UNL1        0.0377
      2 C           6.5208   -3.0880   30.2398 C.3     1  UNL1        0.0075
      3 C           7.0102   -4.1668   29.3196 C.3     1  UNL1        0.0219
      4 C           6.7711   -4.0583   27.8427 C.3     1  UNL1        0.0950
      5 N           6.0426   -2.8711   27.2861 N.am    1  UNL1       -0.2637
      6 C           5.8036   -2.7626   25.8092 C.2     1  UNL1        0.3077
      7 O           5.0751   -1.5754   25.2526 O.2     1  UNL1       -0.2522
      8 N           6.2930   -3.8414   24.8890 N.am    1  UNL1       -0.2681
      9 C           5.5532   -1.7924   28.2063 C.3     1  UNL1        0.0989
     10 H           6.7711   -4.6206   25.2543 H       1  UNL1        0.1564
     11 C           6.0538   -3.7328   23.4122 C.ar    1  UNL1        0.0516
     12 C           4.6609   -3.5387   22.8903 C.ar    1  UNL1        0.0156
     13 C           4.4218   -3.4301   21.4135 C.ar    1  UNL1        0.0127
     14 C           5.5754   -3.5157   20.4585 C.ar    1  UNL1        0.0578
     15 CL          5.3362   -3.4071   18.9817 Cl      1  UNL1       -0.0822
     16 C           6.9682   -3.7098   20.9804 C.ar    1  UNL1        0.0127
     17 C           7.2074   -3.8184   22.4573 C.ar    1  UNL1        0.0156
     18 C           5.7765   -1.5553   31.1428 C.ar    1  UNL1       -0.0212
     19 C           6.5402   -0.3638   31.6397 C.ar    1  UNL1       -0.0043
     20 C           6.5243   -0.0183   33.0993 C.ar    1  UNL1        0.0035
     21 C           5.7448   -0.8643   34.0619 C.ar    1  UNL1        0.0714
     22 C           4.9811   -2.0558   33.5649 C.ar    1  UNL1        0.0035
     23 C           4.9969   -2.4013   32.1053 C.ar    1  UNL1       -0.0043
     24 C           5.7289   -0.5188   35.5215 C.3     1  UNL1        0.4186
     25 F           5.7131   -0.1732   36.9810 F       1  UNL1       -0.1659
     26 F           4.2864   -0.9222   35.6014 F       1  UNL1       -0.1659
     27 F           7.1714   -0.1153   35.4416 F       1  UNL1       -0.1659
     28 C           5.0583   -0.5936   29.6334 C.3     1  UNL1        0.0116
     29 C           3.7926   -0.4740   28.8376 C.3     1  UNL1        0.0421
     30 O           1.1971   -0.4226   28.7326 O.co2   1  UNL1       -0.5492
     31 C           2.4629   -0.5391   29.5289 C.2     1  UNL1        0.0503
     32 O           2.3992   -0.7206   31.0165 O.co2   1  UNL1       -0.5492
@<TRIPOS>UNITY_ATOM_ATTR
30 1
charge -1
@<TRIPOS>BOND
     1    30    31   ar
     2    31    32   ar
     3    31    29    1
     4    29    28    1
     5    28     1    1
     6     1    18    1
     7    18    19   ar
     8    19    20   ar
     9    20    21   ar
    10    21    24    1
    11    24    25    1
    12    24    26    1
    13    24    27    1
    14    21    22   ar
    15    22    23   ar
    16     1     2    1
    17     2     3    1
    18     3     4    1
    19     4     5    1
    20     5     6   am
    21     6     7    2
    22     6     8   am
    23     8    11    1
    24    11    12   ar
    25    12    13   ar
    26    13    14   ar
    27    14    15    1
    28    14    16   ar
    29    16    17   ar
    30     5     9    1
    31     9     1    1
    32    23    18   ar
    33    17    11   ar
    34     8    10    1
@<TRIPOS>MOLECULE
*****
 32 34 0 0 0
SMALL
GASTEIGER

@<TRIPOS>ATOM
      1 C           4.5558   -0.9211   30.1934 C.3     1  UNL1        0.0377
      2 C           5.7163   -1.7854   30.5884 C.3     1  UNL1        0.0075
      3 C           6.4429   -2.5864   29.5490 C.3     1  UNL1        0.0219
      4 C           6.0089   -2.5231   28.1145 C.3     1  UNL1        0.0950
      5 N           4.8484   -1.6588   27.7195 N.am    1  UNL1       -0.2637
      6 C           4.4144   -1.5955   26.2850 C.2     1  UNL1        0.3077
      7 O           3.2539   -0.7312   25.8901 O.2     1  UNL1       -0.2522
      8 N           5.1410   -2.3965   25.2456 N.am    1  UNL1       -0.2681
      9 C           4.1218   -0.8578   28.7589 C.3     1  UNL1        0.0989
     10 H           5.9028   -2.9638   25.5048 H       1  UNL1        0.1564
     11 C           4.7070   -2.3332   23.8112 C.ar    1  UNL1        0.0516
     12 C           4.1047   -1.0726   23.2649 C.ar    1  UNL1        0.0156
     13 C           3.6707   -1.0092   21.8305 C.ar    1  UNL1        0.0127
     14 C           3.8389   -2.2063   20.9423 C.ar    1  UNL1        0.0578
     15 CL          3.4048   -2.1428   19.5079 Cl      1  UNL1       -0.0822
     16 C           4.4412   -3.4668   21.4886 C.ar    1  UNL1        0.0127
     17 C           4.8752   -3.5302   22.9231 C.ar    1  UNL1        0.0156
     18 C           4.5909   -0.6518   31.6686 C.ar    1  UNL1       -0.0212
     19 C           4.3745   -1.7731   32.6411 C.ar    1  UNL1       -0.0043
     20 C           4.4096   -1.5036   34.1163 C.ar    1  UNL1        0.0035
     21 C           4.6612   -0.1129   34.6189 C.ar    1  UNL1        0.0714
     22 C           4.8776    1.0084   33.6464 C.ar    1  UNL1        0.0035
     23 C           4.8425    0.7389   32.1713 C.ar    1  UNL1       -0.0043
     24 C           4.6963    0.1565   36.0942 C.3     1  UNL1        0.4186
     25 F           4.7314    0.4259   37.5694 F       1  UNL1       -0.1659
     26 F           5.8390   -0.8038   36.2424 F       1  UNL1       -0.1659
     27 F           3.5536    1.1168   35.9460 F       1  UNL1       -0.1659
     28 C           3.4074    0.0367   30.3107 C.3     1  UNL1        0.0116
     29 C           2.0345   -0.3813   29.8745 C.3     1  UNL1        0.0421
     30 O          -0.4741    0.2736   29.7072 O.co2   1  UNL1       -0.5492
     31 C           0.9752    0.6539   29.6373 C.2     1  UNL1        0.0503
     32 O           1.3653    2.0694   29.3303 O.co2   1  UNL1       -0.5492
@<TRIPOS>UNITY_ATOM_ATTR
30 1
charge -1
@<TRIPOS>BOND
     1    30    31   ar
     2    31    32   ar
     3    31    29    1
     4    29    28    1
     5    28     1    1
     6     1    18    1
     7    18    19   ar
     8    19    20   ar
     9    20    21   ar
    10    21    24    1
    11    24    25    1
    12    24    26    1
    13    24    27    1
    14    21    22   ar
    15    22    23   ar
    16     1     2    1
    17     2     3    1
    18     3     4    1
    19     4     5    1
    20     5     6   am
    21     6     7    2
    22     6     8   am
    23     8    11    1
    24    11    12   ar
    25    12    13   ar
    26    13    14   ar
    27    14    15    1
    28    14    16   ar
    29    16    17   ar
    30     5     9    1
    31     9     1    1
    32    23    18   ar
    33    17    11   ar
    34     8    10    1
@<TRIPOS>MOLECULE
*****
 32 34 0 0 0
SMALL
GASTEIGER

@<TRIPOS>ATOM
      1 C           4.0003   -0.5096   23.6243 C.3     1  UNL1        0.0377
      2 C           2.8036    0.3578   23.3685 C.3     1  UNL1        0.0075
      3 C           2.0916    1.0108   24.5159 C.3     1  UNL1        0.0219
      4 C           2.5763    0.7964   25.9192 C.3     1  UNL1        0.0950
      5 N           3.7730   -0.0710   26.1750 N.am    1  UNL1       -0.2637
      6 C           4.2578   -0.2853   27.5782 C.2     1  UNL1        0.3077
      7 O           5.4546   -1.1527   27.8339 O.2     1  UNL1       -0.2522
      8 N           3.5458    0.3677   28.7256 N.am    1  UNL1       -0.2681
      9 C           4.4851   -0.7240   25.0275 C.3     1  UNL1        0.0989
     10 H           2.7603    0.9370   28.5578 H       1  UNL1        0.1564
     11 C           4.0306    0.1532   30.1288 C.ar    1  UNL1        0.0516
     12 C           5.2204    0.9134   30.6356 C.ar    1  UNL1        0.0156
     13 C           5.7052    0.6990   32.0387 C.ar    1  UNL1        0.0127
     14 C           5.0004   -0.2755   32.9352 C.ar    1  UNL1        0.0578
     15 CL          5.4852   -0.4898   34.3384 Cl      1  UNL1       -0.0822
     16 C           3.8106   -1.0355   32.4285 C.ar    1  UNL1        0.0127
     17 C           3.3257   -0.8212   31.0252 C.ar    1  UNL1        0.0156
     18 C           3.9217   -0.6084   22.1295 C.ar    1  UNL1       -0.0212
     19 C           5.0722   -0.1453   21.2858 C.ar    1  UNL1       -0.0043
     20 C           4.9936   -0.2441   19.7911 C.ar    1  UNL1        0.0035
     21 C           3.7645   -0.8060   19.1402 C.ar    1  UNL1        0.0714
     22 C           2.6140   -1.2690   19.9840 C.ar    1  UNL1        0.0035
     23 C           2.6926   -1.1702   21.4786 C.ar    1  UNL1       -0.0043
     24 C           3.6859   -0.9048   17.6455 C.3     1  UNL1        0.4186
     25 F           3.6074   -1.0036   16.1509 F       1  UNL1       -0.1659
     26 F           2.8497    0.3399   17.6072 F       1  UNL1       -0.1659
     27 F           4.5221   -2.1494   17.6839 F       1  UNL1       -0.1659
     28 C           5.1698   -1.4113   23.3610 C.3     1  UNL1        0.0116
     29 C           5.1034   -2.8585   23.7496 C.3     1  UNL1        0.0421
     30 O           4.4795   -4.2692   21.6590 O.co2   1  UNL1       -0.5492
     31 C           5.4497   -3.9206   22.7485 C.2     1  UNL1        0.0503
     32 O           6.7662   -4.6339   22.8370 O.co2   1  UNL1       -0.5492
@<TRIPOS>UNITY_ATOM_ATTR
30 1
charge -1
@<TRIPOS>BOND
     1    30    31   ar
     2    31    32   ar
     3    31    29    1
     4    29    28    1
     5    28     1    1
     6     1    18    1
     7    18    19   ar
     8    19    20   ar
     9    20    21   ar
    10    21    24    1
    11    24    25    1
    12    24    26    1
    13    24    27    1
    14    21    22   ar
    15    22    23   ar
    16     1     2    1
    17     2     3    1
    18     3     4    1
    19     4     5    1
    20     5     6   am
    21     6     7    2
    22     6     8   am
    23     8    11    1
    24    11    12   ar
    25    12    13   ar
    26    13    14   ar
    27    14    15    1
    28    14    16   ar
    29    16    17   ar
    30     5     9    1
    31     9     1    1
    32    23    18   ar
    33    17    11   ar
    34     8    10    1
@<TRIPOS>MOLECULE
*****
 32 34 0 0 0
SMALL
GASTEIGER

@<TRIPOS>ATOM
      1 C           3.2976   -0.9259   21.0459 C.3     1  UNL1        0.0377
      2 C           3.3958   -0.7256   22.5292 C.3     1  UNL1        0.0075
      3 C           2.4643    0.2250   23.2209 C.3     1  UNL1        0.0219
      4 C           1.4345    0.9754   22.4293 C.3     1  UNL1        0.0950
      5 N           1.3363    0.7750   20.9460 N.am    1  UNL1       -0.2637
      6 C           0.3066    1.5254   20.1544 C.2     1  UNL1        0.3077
      7 O           0.2084    1.3250   18.6711 O.2     1  UNL1       -0.2522
      8 N          -0.6250    2.4760   20.8461 N.am    1  UNL1       -0.2681
      9 C           2.2679   -0.1756   20.2543 C.3     1  UNL1        0.0989
     10 H          -0.5606    2.6075   21.8196 H       1  UNL1        0.1564
     11 C          -1.6547    3.2263   20.0544 C.ar    1  UNL1        0.0516
     12 C          -1.2334    4.0827   18.8971 C.ar    1  UNL1        0.0156
     13 C          -2.2630    4.8330   18.1055 C.ar    1  UNL1        0.0127
     14 C          -3.7140    4.7269   18.4709 C.ar    1  UNL1        0.0578
     15 CL         -4.7437    5.4772   17.6792 Cl      1  UNL1       -0.0822
     16 C          -4.1353    3.8705   19.6281 C.ar    1  UNL1        0.0127
     17 C          -3.1056    3.1202   20.4199 C.ar    1  UNL1        0.0156
     18 C           4.4299   -1.8583   21.3603 C.ar    1  UNL1       -0.0212
     19 C           5.7571   -1.6812   20.6842 C.ar    1  UNL1       -0.0043
     20 C           6.8893   -2.6135   20.9986 C.ar    1  UNL1        0.0035
     21 C           6.6942   -3.7230   21.9890 C.ar    1  UNL1        0.0714
     22 C           5.3670   -3.9002   22.6651 C.ar    1  UNL1        0.0035
     23 C           4.2349   -2.9678   22.3507 C.ar    1  UNL1       -0.0043
     24 C           7.8265   -4.6554   22.3034 C.3     1  UNL1        0.4186
     25 F           8.9587   -5.5877   22.6177 F       1  UNL1       -0.1659
     26 F           7.1595   -5.0304   23.5935 F       1  UNL1       -0.1659
     27 F           8.4934   -4.2804   21.0133 F       1  UNL1       -0.1659
     28 C           3.5927   -1.4501   19.6718 C.3     1  UNL1        0.0116
     29 C           3.5100   -0.5349   18.4862 C.3     1  UNL1        0.0421
     30 O           5.8036   -0.6686   17.2731 O.co2   1  UNL1       -0.5492
     31 C           4.3124   -0.8298   17.2536 C.2     1  UNL1        0.0503
     32 O           3.6235   -1.2860   16.0017 O.co2   1  UNL1       -0.5492
@<TRIPOS>UNITY_ATOM_ATTR
30 1
charge -1
@<TRIPOS>BOND
     1    30    31   ar
     2    31    32   ar
     3    31    29    1
     4    29    28    1
     5    28     1    1
     6     1    18    1
     7    18    19   ar
     8    19    20   ar
     9    20    21   ar
    10    21    24    1
    11    24    25    1
    12    24    26    1
    13    24    27    1
    14    21    22   ar
    15    22    23   ar
    16     1     2    1
    17     2     3    1
    18     3     4    1
    19     4     5    1
    20     5     6   am
    21     6     7    2
    22     6     8   am
    23     8    11    1
    24    11    12   ar
    25    12    13   ar
    26    13    14   ar
    27    14    15    1
    28    14    16   ar
    29    16    17   ar
    30     5     9    1
    31     9     1    1
    32    23    18   ar
    33    17    11   ar
    34     8    10    1
@<TRIPOS>MOLECULE
*****
 32 34 0 0 0
SMALL
GASTEIGER

@<TRIPOS>ATOM
      1 C           0.0688    2.4620   19.7432 C.3     1  UNL1        0.0377
      2 C           0.0110    3.1003   18.3871 C.3     1  UNL1        0.0075
      3 C          -1.1331    4.0028   18.0311 C.3     1  UNL1        0.0219
      4 C          -2.2193    4.2669   19.0314 C.3     1  UNL1        0.0950
      5 N          -2.1614    3.6286   20.3875 N.am    1  UNL1       -0.2637
      6 C          -3.2477    3.8928   21.3877 C.2     1  UNL1        0.3077
      7 O          -3.1897    3.2544   22.7439 O.2     1  UNL1       -0.2522
      8 N          -4.3917    4.7952   21.0317 N.am    1  UNL1       -0.2681
      9 C          -1.0174    2.7262   20.7435 C.3     1  UNL1        0.0989
     10 H          -4.4297    5.2142   20.1416 H       1  UNL1        0.1564
     11 C          -5.4778    5.0593   22.0320 C.ar    1  UNL1        0.0516
     12 C          -5.4481    6.3108   22.8584 C.ar    1  UNL1        0.0156
     13 C          -6.5342    6.5750   23.8586 C.ar    1  UNL1        0.0127
     14 C          -7.6500    5.5877   24.0326 C.ar    1  UNL1        0.0578
     15 CL         -8.7362    5.8518   25.0329 Cl      1  UNL1       -0.0822
     16 C          -7.6797    4.3362   23.2062 C.ar    1  UNL1        0.0127
     17 C          -6.5936    4.0720   22.2059 C.ar    1  UNL1        0.0156
     18 C           1.3269    1.9095   19.1415 C.ar    1  UNL1       -0.0212
     19 C           2.5841    2.7277   19.1490 C.ar    1  UNL1       -0.0043
     20 C           3.8421    2.1752   18.5473 C.ar    1  UNL1        0.0035
     21 C           3.8429    0.8045   17.9379 C.ar    1  UNL1        0.0714
     22 C           2.5857   -0.0136   17.9303 C.ar    1  UNL1        0.0035
     23 C           1.3277    0.5389   18.5321 C.ar    1  UNL1       -0.0043
     24 C           5.1009    0.2520   17.3361 C.3     1  UNL1        0.4186
     25 F           6.3590   -0.3004   16.7344 F       1  UNL1       -0.1659
     26 F           4.2852   -0.5392   16.3571 F       1  UNL1       -0.1659
     27 F           5.9167    1.0433   18.3151 F       1  UNL1       -0.1659
     28 C           0.5636    1.6318   20.8904 C.3     1  UNL1        0.0116
     29 C           0.3469    2.0958   22.3003 C.3     1  UNL1        0.0421
     30 O           2.3600    0.8190   23.3335 O.co2   1  UNL1       -0.5492
     31 C           0.9564    1.3368   23.4417 C.2     1  UNL1        0.0503
     32 O           0.1622    1.0959   24.6911 O.co2   1  UNL1       -0.5492
@<TRIPOS>UNITY_ATOM_ATTR
30 1
charge -1
@<TRIPOS>BOND
     1    30    31   ar
     2    31    32   ar
     3    31    29    1
     4    29    28    1
     5    28     1    1
     6     1    18    1
     7    18    19   ar
     8    19    20   ar
     9    20    21   ar
    10    21    24    1
    11    24    25    1
    12    24    26    1
    13    24    27    1
    14    21    22   ar
    15    22    23   ar
    16     1     2    1
    17     2     3    1
    18     3     4    1
    19     4     5    1
    20     5     6   am
    21     6     7    2
    22     6     8   am
    23     8    11    1
    24    11    12   ar
    25    12    13   ar
    26    13    14   ar
    27    14    15    1
    28    14    16   ar
    29    16    17   ar
    30     5     9    1
    31     9     1    1
    32    23    18   ar
    33    17    11   ar
    34     8    10    1
@<TRIPOS>MOLECULE
*****
 32 34 0 0 0
SMALL
GASTEIGER

@<TRIPOS>ATOM
      1 C           0.5155    1.4786   19.7983 C.3     1  UNL1        0.0377
      2 C           0.7496    2.0045   18.4132 C.3     1  UNL1        0.0075
      3 C          -0.1372    3.0800   17.8594 C.3     1  UNL1        0.0219
      4 C          -1.2582    3.6297   18.6908 C.3     1  UNL1        0.0950
      5 N          -1.4924    3.1038   20.0759 N.am    1  UNL1       -0.2637
      6 C          -2.6134    3.6535   20.9073 C.2     1  UNL1        0.3077
      7 O          -2.8475    3.1275   22.2924 O.2     1  UNL1       -0.2522
      8 N          -3.5003    4.7291   20.3536 N.am    1  UNL1       -0.2681
      9 C          -0.6056    2.0282   20.6297 C.3     1  UNL1        0.0989
     10 H          -3.3466    5.0742   19.4445 H       1  UNL1        0.1564
     11 C          -4.6212    5.2787   21.1850 C.ar    1  UNL1        0.0516
     12 C          -5.9407    4.5664   21.2298 C.ar    1  UNL1        0.0156
     13 C          -7.0616    5.1159   22.0612 C.ar    1  UNL1        0.0127
     14 C          -6.8633    6.3777   22.8478 C.ar    1  UNL1        0.0578
     15 CL         -7.9844    6.9273   23.6793 Cl      1  UNL1       -0.0822
     16 C          -5.5440    7.0899   22.8030 C.ar    1  UNL1        0.0127
     17 C          -4.4229    6.5403   21.9716 C.ar    1  UNL1        0.0156
     18 C           1.6978    0.6458   19.3999 C.ar    1  UNL1       -0.0212
     19 C           1.8153   -0.7694   19.8830 C.ar    1  UNL1       -0.0043
     20 C           2.9976   -1.6021   19.4846 C.ar    1  UNL1        0.0035
     21 C           4.0624   -1.0196   18.6031 C.ar    1  UNL1        0.0714
     22 C           3.9448    0.3955   18.1200 C.ar    1  UNL1        0.0035
     23 C           2.7626    1.2282   18.5184 C.ar    1  UNL1       -0.0043
     24 C           5.2447   -1.8524   18.2048 C.3     1  UNL1        0.4186
     25 F           6.4270   -2.6851   17.8064 F       1  UNL1       -0.1659
     26 F           4.7126   -2.9962   19.0164 F       1  UNL1       -0.1659
     27 F           5.7768   -0.7087   17.3931 F       1  UNL1       -0.1659
     28 C           0.6919    0.6634   21.0451 C.3     1  UNL1        0.0116
     29 C           0.6423    1.3279   22.3889 C.3     1  UNL1        0.0421
     30 O           2.9866    0.4712   23.1100 O.co2   1  UNL1       -0.5492
     31 C           1.5979    0.9113   23.4674 C.2     1  UNL1        0.0503
     32 O           1.1647    0.9347   24.9033 O.co2   1  UNL1       -0.5492
@<TRIPOS>UNITY_ATOM_ATTR
30 1
charge -1
@<TRIPOS>BOND
     1    30    31   ar
     2    31    32   ar
     3    31    29    1
     4    29    28    1
     5    28     1    1
     6     1    18    1
     7    18    19   ar
     8    19    20   ar
     9    20    21   ar
    10    21    24    1
    11    24    25    1
    12    24    26    1
    13    24    27    1
    14    21    22   ar
    15    22    23   ar
    16     1     2    1
    17     2     3    1
    18     3     4    1
    19     4     5    1
    20     5     6   am
    21     6     7    2
    22     6     8   am
    23     8    11    1
    24    11    12   ar
    25    12    13   ar
    26    13    14   ar
    27    14    15    1
    28    14    16   ar
    29    16    17   ar
    30     5     9    1
    31     9     1    1
    32    23    18   ar
    33    17    11   ar
    34     8    10    1
@<TRIPOS>MOLECULE
*****
 32 34 0 0 0
SMALL
GASTEIGER

@<TRIPOS>ATOM
      1 C           4.9833   -1.0983   29.9373 C.3     1  UNL1        0.0377
      2 C           3.6454   -0.5364   30.3173 C.3     1  UNL1        0.0075
      3 C           2.5977   -0.3180   29.2663 C.3     1  UNL1        0.0219
      4 C           2.8879   -0.6615   27.8353 C.3     1  UNL1        0.0950
      5 N           4.2257   -1.2234   27.4553 N.am    1  UNL1       -0.2637
      6 C           4.5159   -1.5670   26.0243 C.2     1  UNL1        0.3077
      7 O           5.8538   -2.1289   25.6443 O.2     1  UNL1       -0.2522
      8 N           3.4682   -1.3486   24.9733 N.am    1  UNL1       -0.2681
      9 C           5.2734   -1.4418   28.5063 C.3     1  UNL1        0.0989
     10 H           2.5901   -0.9798   25.2226 H       1  UNL1        0.1564
     11 C           3.7584   -1.6921   23.5423 C.ar    1  UNL1        0.0516
     12 C           3.2534   -0.8073   22.4413 C.ar    1  UNL1        0.0156
     13 C           3.5436   -1.1508   21.0104 C.ar    1  UNL1        0.0127
     14 C           4.3388   -2.3791   20.6803 C.ar    1  UNL1        0.0578
     15 CL          4.6290   -2.7225   19.2492 Cl      1  UNL1       -0.0822
     16 C           4.8439   -3.2638   21.7812 C.ar    1  UNL1        0.0127
     17 C           4.5537   -2.9203   23.2122 C.ar    1  UNL1        0.0156
     18 C           5.1817   -0.9295   31.4146 C.ar    1  UNL1       -0.0212
     19 C           4.3346   -1.7060   32.3786 C.ar    1  UNL1       -0.0043
     20 C           4.5330   -1.5373   33.8558 C.ar    1  UNL1        0.0035
     21 C           5.5786   -0.5920   34.3690 C.ar    1  UNL1        0.0714
     22 C           6.4257    0.1844   33.4049 C.ar    1  UNL1        0.0035
     23 C           6.2273    0.0157   31.9277 C.ar    1  UNL1       -0.0043
     24 C           5.7770   -0.4233   35.8462 C.3     1  UNL1        0.4186
     25 F           5.9754   -0.2546   37.3234 F       1  UNL1       -0.1659
     26 F           7.2065   -0.0352   35.6099 F       1  UNL1       -0.1659
     27 F           4.3476   -0.8114   36.0825 F       1  UNL1       -0.1659
     28 C           6.3901   -1.6016   30.0704 C.3     1  UNL1        0.0116
     29 C           6.6758   -3.0693   29.9523 C.3     1  UNL1        0.0421
     30 O           7.6669   -3.2353   32.3482 O.co2   1  UNL1       -0.5492
     31 C           7.5897   -3.7371   30.9368 C.2     1  UNL1        0.0503
     32 O           8.4262   -4.9065   30.5096 O.co2   1  UNL1       -0.5492
@<TRIPOS>UNITY_ATOM_ATTR
30 1
charge -1
@<TRIPOS>BOND
     1    30    31   ar
     2    31    32   ar
     3    31    29    1
     4    29    28    1
     5    28     1    1
     6     1    18    1
     7    18    19   ar
     8    19    20   ar
     9    20    21   ar
    10    21    24    1
    11    24    25    1
    12    24    26    1
    13    24    27    1
    14    21    22   ar
    15    22    23   ar
    16     1     2    1
    17     2     3    1
    18     3     4    1
    19     4     5    1
    20     5     6   am
    21     6     7    2
    22     6     8   am
    23     8    11    1
    24    11    12   ar
    25    12    13   ar
    26    13    14   ar
    27    14    15    1
    28    14    16   ar
    29    16    17   ar
    30     5     9    1
    31     9     1    1
    32    23    18   ar
    33    17    11   ar
    34     8    10    1
