@<TRIPOS>MOLECULE
*****
 17 19 0 0 0
SMALL
GASTEIGER

@<TRIPOS>ATOM
      1 C          -9.7763  -17.6420   22.6470 C.3     1  UNL1        0.0347
      2 C          -9.4264  -18.5805   23.7636 C.3     1  UNL1        0.0054
      3 C         -10.2358  -19.8313   23.5886 C.3     1  UNL1        0.0004
      4 C         -11.0858  -19.6658   22.3638 C.3     1  UNL1        0.0017
      5 C         -10.8019  -18.3128   21.7819 C.3     1  UNL1        0.0208
      6 C         -11.1518  -17.3743   20.6653 C.3     1  UNL1        0.0689
      7 N         -10.3425  -16.1234   20.8403 N.3     1  UNL1       -0.2972
      8 C          -9.4924  -16.2890   22.0651 C.3     1  UNL1        0.0726
      9 H         -10.9635  -15.3226   20.9556 H       1  UNL1        0.1233
     10 CL         -5.6740  -14.9590   26.1070 Cl      1  UNL1       -0.0814
     11 C          -6.6996  -15.6297   25.2421 C.ar    1  UNL1        0.0682
     12 C          -6.3302  -16.0959   23.8651 C.ar    1  UNL1        0.0119
     13 C          -7.3558  -16.7667   23.0001 C.ar    1  UNL1       -0.0033
     14 C          -8.7508  -16.9712   23.5121 C.ar    1  UNL1       -0.0206
     15 C          -9.1202  -16.5050   24.8891 C.ar    1  UNL1        0.0080
     16 C          -8.0946  -15.8343   25.7541 C.ar    1  UNL1        0.0679
     17 CL         -8.4640  -15.3681   27.1311 Cl      1  UNL1       -0.0814
@<TRIPOS>BOND
     1    10    11    1
     2    11    12   ar
     3    12    13   ar
     4    13    14   ar
     5     1    14    1
     6     1     2    1
     7     2     3    1
     8     3     4    1
     9     5     4    1
    10     5     6    1
    11     6     7    1
    12     7     8    1
    13    14    15   ar
    14    15    16   ar
    15    16    17    1
    16    16    11   ar
    17     5     1    1
    18     8     1    1
    19     7     9    1
@<TRIPOS>MOLECULE
*****
 17 19 0 0 0
SMALL
GASTEIGER

@<TRIPOS>ATOM
      1 C          -7.6502  -16.1387   25.0227 C.3     1  UNL1        0.0347
      2 C          -8.5978  -16.1664   26.1851 C.3     1  UNL1        0.0054
      3 C          -7.8825  -15.6084   27.3796 C.3     1  UNL1        0.0004
      4 C          -6.4928  -15.2358   26.9555 C.3     1  UNL1        0.0017
      5 C          -6.3492  -15.5636   25.4988 C.3     1  UNL1        0.0208
      6 C          -5.4015  -15.5359   24.3364 C.3     1  UNL1        0.0689
      7 N          -6.1168  -16.0940   23.1418 N.3     1  UNL1       -0.2972
      8 C          -7.5066  -16.4665   23.5660 C.3     1  UNL1        0.0726
      9 H          -5.6263  -16.9201   22.7993 H       1  UNL1        0.1233
     10 CL        -12.8539  -18.4395   23.1180 Cl      1  UNL1       -0.0814
     11 C         -11.5530  -17.8643   23.5942 C.ar    1  UNL1        0.0682
     12 C         -10.7451  -18.5915   24.6278 C.ar    1  UNL1        0.0119
     13 C          -9.4441  -18.0163   25.1040 C.ar    1  UNL1       -0.0033
     14 C          -8.9512  -16.7139   24.5465 C.ar    1  UNL1       -0.0206
     15 C          -9.7591  -15.9867   23.5129 C.ar    1  UNL1        0.0080
     16 C         -11.0600  -16.5619   23.0367 C.ar    1  UNL1        0.0679
     17 CL        -11.8679  -15.8347   22.0031 Cl      1  UNL1       -0.0814
@<TRIPOS>BOND
     1    10    11    1
     2    11    12   ar
     3    12    13   ar
     4    13    14   ar
     5     1    14    1
     6     1     2    1
     7     2     3    1
     8     3     4    1
     9     5     4    1
    10     5     6    1
    11     6     7    1
    12     7     8    1
    13    14    15   ar
    14    15    16   ar
    15    16    17    1
    16    16    11   ar
    17     5     1    1
    18     8     1    1
    19     7     9    1
@<TRIPOS>MOLECULE
*****
 17 19 0 0 0
SMALL
GASTEIGER

@<TRIPOS>ATOM
      1 C         -10.1946  -17.7955   23.1132 C.3     1  UNL1        0.0347
      2 C         -10.5316  -16.3345   23.1550 C.3     1  UNL1        0.0054
      3 C         -11.8719  -16.1492   22.5075 C.3     1  UNL1        0.0004
      4 C         -12.3632  -17.4957   22.0654 C.3     1  UNL1        0.0017
      5 C         -11.3266  -18.5132   22.4397 C.3     1  UNL1        0.0208
      6 C         -10.9896  -19.9743   22.3979 C.3     1  UNL1        0.0689
      7 N          -9.6493  -20.1596   23.0455 N.3     1  UNL1       -0.2972
      8 C          -9.1580  -18.8130   23.4875 C.3     1  UNL1        0.0726
      9 H          -8.9945  -20.5644   22.3763 H       1  UNL1        0.1233
     10 CL         -5.6665  -14.9249   25.8067 Cl      1  UNL1       -0.0814
     11 C          -6.7984  -15.6425   25.1334 C.ar    1  UNL1        0.0682
     12 C          -6.7032  -15.9955   23.6786 C.ar    1  UNL1        0.0119
     13 C          -7.8352  -16.7131   23.0052 C.ar    1  UNL1       -0.0033
     14 C          -9.0626  -17.0778   23.7866 C.ar    1  UNL1       -0.0206
     15 C          -9.1579  -16.7249   25.2414 C.ar    1  UNL1        0.0080
     16 C          -8.0259  -16.0073   25.9147 C.ar    1  UNL1        0.0679
     17 CL         -8.1211  -15.6544   27.3695 Cl      1  UNL1       -0.0814
@<TRIPOS>BOND
     1    10    11    1
     2    11    12   ar
     3    12    13   ar
     4    13    14   ar
     5     1    14    1
     6     1     2    1
     7     2     3    1
     8     3     4    1
     9     5     4    1
    10     5     6    1
    11     6     7    1
    12     7     8    1
    13    14    15   ar
    14    15    16   ar
    15    16    17    1
    16    16    11   ar
    17     5     1    1
    18     8     1    1
    19     7     9    1
@<TRIPOS>MOLECULE
*****
 17 19 0 0 0
SMALL
GASTEIGER

@<TRIPOS>ATOM
      1 C          -7.8512  -16.0857   24.8567 C.3     1  UNL1        0.0347
      2 C          -8.8551  -16.5970   25.8470 C.3     1  UNL1        0.0054
      3 C          -8.3064  -16.3671   27.2240 C.3     1  UNL1        0.0004
      4 C          -6.9634  -15.7136   27.0847 C.3     1  UNL1        0.0017
      5 C          -6.6820  -15.5397   25.6216 C.3     1  UNL1        0.0208
      6 C          -5.6781  -15.0284   24.6313 C.3     1  UNL1        0.0689
      7 N          -6.2268  -15.2583   23.2543 N.3     1  UNL1       -0.2972
      8 C          -7.5698  -15.9118   23.3936 C.3     1  UNL1        0.0726
      9 H          -5.5989  -15.8664   22.7285 H       1  UNL1        0.1233
     10 CL        -12.5276  -18.2692   21.7968 Cl      1  UNL1       -0.0814
     11 C         -11.3585  -17.7233   22.5617 C.ar    1  UNL1        0.0682
     12 C         -11.2353  -16.2459   22.7898 C.ar    1  UNL1        0.0119
     13 C         -10.0661  -15.7001   23.5548 C.ar    1  UNL1       -0.0033
     14 C          -9.0203  -16.6316   24.0917 C.ar    1  UNL1       -0.0206
     15 C          -9.1435  -18.1090   23.8637 C.ar    1  UNL1        0.0080
     16 C         -10.3126  -18.6549   23.0987 C.ar    1  UNL1        0.0679
     17 CL        -10.4358  -20.1323   22.8706 Cl      1  UNL1       -0.0814
@<TRIPOS>BOND
     1    10    11    1
     2    11    12   ar
     3    12    13   ar
     4    13    14   ar
     5     1    14    1
     6     1     2    1
     7     2     3    1
     8     3     4    1
     9     5     4    1
    10     5     6    1
    11     6     7    1
    12     7     8    1
    13    14    15   ar
    14    15    16   ar
    15    16    17    1
    16    16    11   ar
    17     5     1    1
    18     8     1    1
    19     7     9    1
@<TRIPOS>MOLECULE
*****
 17 19 0 0 0
SMALL
GASTEIGER

@<TRIPOS>ATOM
      1 C         -10.0648  -17.9936   22.5728 C.3     1  UNL1        0.0347
      2 C          -9.7155  -19.3311   23.1550 C.3     1  UNL1        0.0054
      3 C         -10.7706  -19.6891   24.1594 C.3     1  UNL1        0.0004
      4 C         -11.7718  -18.5729   24.1978 C.3     1  UNL1        0.0017
      5 C         -11.3356  -17.5249   23.2173 C.3     1  UNL1        0.0208
      6 C         -11.6848  -16.1874   22.6350 C.3     1  UNL1        0.0689
      7 N         -10.6297  -15.8293   21.6306 N.3     1  UNL1       -0.2972
      8 C          -9.6285  -16.9456   21.5922 C.3     1  UNL1        0.0726
      9 H         -10.1701  -14.9613   21.9060 H       1  UNL1        0.1233
     10 CL         -4.9815  -19.8678   19.9945 Cl      1  UNL1       -0.0814
     11 C          -6.2523  -19.3993   20.6390 C.ar    1  UNL1        0.0682
     12 C          -7.5684  -19.6306   19.9577 C.ar    1  UNL1        0.0119
     13 C          -8.8392  -19.1620   20.6023 C.ar    1  UNL1       -0.0033
     14 C          -8.7939  -18.4621   21.9283 C.ar    1  UNL1       -0.0206
     15 C          -7.4777  -18.2308   22.6096 C.ar    1  UNL1        0.0080
     16 C          -6.2070  -18.6993   21.9650 C.ar    1  UNL1        0.0679
     17 CL         -4.8908  -18.4680   22.6464 Cl      1  UNL1       -0.0814
@<TRIPOS>BOND
     1    10    11    1
     2    11    12   ar
     3    12    13   ar
     4    13    14   ar
     5     1    14    1
     6     1     2    1
     7     2     3    1
     8     3     4    1
     9     5     4    1
    10     5     6    1
    11     6     7    1
    12     7     8    1
    13    14    15   ar
    14    15    16   ar
    15    16    17    1
    16    16    11   ar
    17     5     1    1
    18     8     1    1
    19     7     9    1
@<TRIPOS>MOLECULE
*****
 17 19 0 0 0
SMALL
GASTEIGER

@<TRIPOS>ATOM
      1 C          -6.9523  -16.6510   23.4018 C.3     1  UNL1        0.0347
      2 C          -7.1266  -17.9216   22.6239 C.3     1  UNL1        0.0054
      3 C          -5.7683  -18.5164   22.3974 C.3     1  UNL1        0.0004
      4 C          -4.7545  -17.6133   23.0352 C.3     1  UNL1        0.0017
      5 C          -5.4863  -16.4604   23.6560 C.3     1  UNL1        0.0208
      6 C          -5.3120  -15.1898   24.4339 C.3     1  UNL1        0.0689
      7 N          -6.6703  -14.5950   24.6605 N.3     1  UNL1       -0.2972
      8 C          -7.6840  -15.4981   24.0226 C.3     1  UNL1        0.0726
      9 H          -6.7173  -13.6682   24.2371 H       1  UNL1        0.1233
     10 CL        -12.8162  -17.4129   22.3854 Cl      1  UNL1       -0.0814
     11 C         -11.3503  -17.2224   22.6395 C.ar    1  UNL1        0.0682
     12 C         -10.7290  -17.7676   23.8912 C.ar    1  UNL1        0.0119
     13 C          -9.2630  -17.5771   24.1452 C.ar    1  UNL1       -0.0033
     14 C          -8.4183  -16.8414   23.1476 C.ar    1  UNL1       -0.0206
     15 C          -9.0396  -16.2963   21.8959 C.ar    1  UNL1        0.0080
     16 C         -10.5055  -16.4867   21.6418 C.ar    1  UNL1        0.0679
     17 CL        -11.1268  -15.9416   20.3901 Cl      1  UNL1       -0.0814
@<TRIPOS>BOND
     1    10    11    1
     2    11    12   ar
     3    12    13   ar
     4    13    14   ar
     5     1    14    1
     6     1     2    1
     7     2     3    1
     8     3     4    1
     9     5     4    1
    10     5     6    1
    11     6     7    1
    12     7     8    1
    13    14    15   ar
    14    15    16   ar
    15    16    17    1
    16    16    11   ar
    17     5     1    1
    18     8     1    1
    19     7     9    1
@<TRIPOS>MOLECULE
*****
 17 19 0 0 0
SMALL
GASTEIGER

@<TRIPOS>ATOM
      1 C          -8.7515  -19.4963   21.5502 C.3     1  UNL1        0.0347
      2 C          -8.2911  -19.8961   22.9207 C.3     1  UNL1        0.0054
      3 C          -9.5012  -20.2643   23.7270 C.3     1  UNL1        0.0004
      4 C         -10.7094  -20.0920   22.8549 C.3     1  UNL1        0.0017
      5 C         -10.2460  -19.6174   21.5095 C.3     1  UNL1        0.0208
      6 C         -10.7064  -19.2176   20.1390 C.3     1  UNL1        0.0689
      7 N          -9.4963  -18.8494   19.3326 N.3     1  UNL1       -0.2972
      8 C          -8.2881  -19.0217   20.2048 C.3     1  UNL1        0.0726
      9 H          -9.5666  -17.8790   19.0263 H       1  UNL1        0.1233
     10 CL         -2.7733  -19.0118   21.7128 Cl      1  UNL1       -0.0814
     11 C          -4.2678  -19.1329   21.6721 C.ar    1  UNL1        0.0682
     12 C          -5.1142  -18.2792   22.5693 C.ar    1  UNL1        0.0119
     13 C          -6.6087  -18.4004   22.5286 C.ar    1  UNL1       -0.0033
     14 C          -7.2569  -19.3752   21.5908 C.ar    1  UNL1       -0.0206
     15 C          -6.4105  -20.2289   20.6936 C.ar    1  UNL1        0.0080
     16 C          -4.9161  -20.1077   20.7343 C.ar    1  UNL1        0.0679
     17 CL         -4.0697  -20.9614   19.8371 Cl      1  UNL1       -0.0814
@<TRIPOS>BOND
     1    10    11    1
     2    11    12   ar
     3    12    13   ar
     4    13    14   ar
     5     1    14    1
     6     1     2    1
     7     2     3    1
     8     3     4    1
     9     5     4    1
    10     5     6    1
    11     6     7    1
    12     7     8    1
    13    14    15   ar
    14    15    16   ar
    15    16    17    1
    16    16    11   ar
    17     5     1    1
    18     8     1    1
    19     7     9    1
@<TRIPOS>MOLECULE
*****
 17 19 0 0 0
SMALL
GASTEIGER

@<TRIPOS>ATOM
      1 C          -5.4047  -19.1747   21.5006 C.3     1  UNL1        0.0347
      2 C          -5.6671  -20.2633   20.5027 C.3     1  UNL1        0.0054
      3 C          -4.3438  -20.7986   20.0420 C.3     1  UNL1        0.0004
      4 C          -3.2635  -20.0408   20.7553 C.3     1  UNL1        0.0017
      5 C          -3.9192  -19.0371   21.6568 C.3     1  UNL1        0.0208
      6 C          -3.6568  -17.9485   22.6547 C.3     1  UNL1        0.0689
      7 N          -4.9802  -17.4131   23.1154 N.3     1  UNL1       -0.2972
      8 C          -6.0605  -18.1710   22.4021 C.3     1  UNL1        0.0726
      9 H          -5.0487  -16.4202   22.8921 H       1  UNL1        0.1233
     10 CL        -11.3467  -19.7246   20.8761 Cl      1  UNL1       -0.0814
     11 C          -9.8613  -19.5871   21.0322 C.ar    1  UNL1        0.0682
     12 C          -9.0050  -19.2971   19.8353 C.ar    1  UNL1        0.0119
     13 C          -7.5195  -19.1597   19.9915 C.ar    1  UNL1       -0.0033
     14 C          -6.8903  -19.3122   21.3445 C.ar    1  UNL1       -0.0206
     15 C          -7.7466  -19.6021   22.5414 C.ar    1  UNL1        0.0080
     16 C          -9.2320  -19.7396   22.3853 C.ar    1  UNL1        0.0679
     17 CL        -10.0883  -20.0296   23.5822 Cl      1  UNL1       -0.0814
@<TRIPOS>BOND
     1    10    11    1
     2    11    12   ar
     3    12    13   ar
     4    13    14   ar
     5     1    14    1
     6     1     2    1
     7     2     3    1
     8     3     4    1
     9     5     4    1
    10     5     6    1
    11     6     7    1
    12     7     8    1
    13    14    15   ar
    14    15    16   ar
    15    16    17    1
    16    16    11   ar
    17     5     1    1
    18     8     1    1
    19     7     9    1
@<TRIPOS>MOLECULE
*****
 17 19 0 0 0
SMALL
GASTEIGER

@<TRIPOS>ATOM
      1 C          -8.7858  -19.3535   21.5910 C.3     1  UNL1        0.0347
      2 C          -8.6958  -19.5298   23.0779 C.3     1  UNL1        0.0054
      3 C         -10.0319  -20.0012   23.5704 C.3     1  UNL1        0.0004
      4 C         -10.9476  -20.1163   22.3880 C.3     1  UNL1        0.0017
      5 C         -10.1775  -19.7160   21.1646 C.3     1  UNL1        0.0208
      6 C         -10.2675  -19.5397   19.6777 C.3     1  UNL1        0.0689
      7 N          -8.9313  -19.0682   19.1851 N.3     1  UNL1       -0.2972
      8 C          -8.0156  -18.9532   20.3676 C.3     1  UNL1        0.0726
      9 H          -9.0299  -18.1588   18.7339 H       1  UNL1        0.1233
     10 CL         -3.2189  -17.9039   23.2962 Cl      1  UNL1       -0.0814
     11 C          -4.6105  -18.2663   22.8699 C.ar    1  UNL1        0.0682
     12 C          -4.8717  -19.5850   22.2045 C.ar    1  UNL1        0.0119
     13 C          -6.2635  -19.9474   21.7783 C.ar    1  UNL1       -0.0033
     14 C          -7.3940  -18.9910   22.0173 C.ar    1  UNL1       -0.0206
     15 C          -7.1329  -17.6723   22.6827 C.ar    1  UNL1        0.0080
     16 C          -5.7412  -17.3099   23.1090 C.ar    1  UNL1        0.0679
     17 CL         -5.4801  -15.9912   23.7743 Cl      1  UNL1       -0.0814
@<TRIPOS>BOND
     1    10    11    1
     2    11    12   ar
     3    12    13   ar
     4    13    14   ar
     5     1    14    1
     6     1     2    1
     7     2     3    1
     8     3     4    1
     9     5     4    1
    10     5     6    1
    11     6     7    1
    12     7     8    1
    13    14    15   ar
    14    15    16   ar
    15    16    17    1
    16    16    11   ar
    17     5     1    1
    18     8     1    1
    19     7     9    1
