@<TRIPOS>MOLECULE
*****
 29 32 0 0 0
SMALL
GASTEIGER

@<TRIPOS>ATOM
      1 O          -9.5924  -18.6319   19.6128 O.2     1  UNL1       -0.2707
      2 C          -9.8778  -19.2949   20.9277 C.2     1  UNL1        0.2707
      3 N          -8.7461  -19.6953   21.8270 N.am    1  UNL1       -0.2809
      4 H          -8.9333  -20.1304   22.6900 H       1  UNL1        0.1550
      5 C          -7.3289  -19.4326   21.4114 C.ar    1  UNL1        0.0504
      6 C          -6.8140  -19.9810   20.1136 C.ar    1  UNL1        0.0147
      7 C          -5.3969  -19.7184   19.6980 C.ar    1  UNL1        0.0013
      8 C          -4.4946  -18.9074   20.5802 C.ar    1  UNL1        0.0001
      9 C          -5.0095  -18.3590   21.8779 C.ar    1  UNL1        0.0013
     10 C          -6.4267  -18.6216   22.2936 C.ar    1  UNL1        0.0147
     11 C          -3.0775  -18.6447   20.1646 C.ar    1  UNL1        0.0000
     12 C          -2.7912  -18.0045   18.8385 C.ar    1  UNL1        0.0000
     13 C          -1.3741  -17.7419   18.4230 C.ar    1  UNL1        0.0000
     14 C          -0.2433  -18.1194   19.3333 C.ar    1  UNL1        0.0000
     15 C          -0.5295  -18.7595   20.6593 C.ar    1  UNL1        0.0000
     16 C          -1.9467  -19.0222   21.0749 C.ar    1  UNL1        0.0000
     17 C         -11.2950  -19.5576   21.3433 C.3     1  UNL1        0.2897
     18 O         -11.8208  -18.9787   22.6232 O.3     1  UNL1       -0.4656
     19 C         -10.9084  -18.2020   23.5257 C.ar    1  UNL1        0.1394
     20 C         -10.4114  -18.8179   24.7999 C.ar    1  UNL1        0.0384
     21 C          -9.4990  -18.0412   25.7023 C.ar    1  UNL1        0.0207
     22 C          -9.0837  -16.6487   25.3305 C.ar    1  UNL1        0.0657
     23 C          -9.5807  -16.0327   24.0563 C.ar    1  UNL1        0.0207
     24 C         -10.4931  -16.8094   23.1539 C.ar    1  UNL1        0.0384
     25 N          -8.1713  -15.8720   26.2330 N.ar    1  UNL1       -0.2864
     26 C          -6.7191  -15.5886   25.9863 C.ar    1  UNL1        0.1022
     27 C          -6.2012  -14.7838   27.1414 C.ar    1  UNL1        0.1196
     28 N          -7.3333  -14.5699   28.1019 N.ar    1  UNL1       -0.2220
     29 C          -8.5509  -15.2425   27.5405 C.ar    1  UNL1        0.1828
@<TRIPOS>BOND
     1     1     2    2
     2     2    17    1
     3    17    18    1
     4    18    19    1
     5    19    20   ar
     6    20    21   ar
     7    21    22   ar
     8    22    25    1
     9    25    26   ar
    10    26    27   ar
    11    27    28   ar
    12    28    29   ar
    13    22    23   ar
    14    23    24   ar
    15     2     3   am
    16     3     5    1
    17     5     6   ar
    18     6     7   ar
    19     7     8   ar
    20     8    11    1
    21    11    12   ar
    22    12    13   ar
    23    13    14   ar
    24    14    15   ar
    25    15    16   ar
    26     8     9   ar
    27     9    10   ar
    28    24    19   ar
    29    10     5   ar
    30    29    25   ar
    31    16    11   ar
    32     3     4    1
@<TRIPOS>MOLECULE
*****
 29 32 0 0 0
SMALL
GASTEIGER

@<TRIPOS>ATOM
      1 O           7.8801   -2.8262   21.2296 O.2     1  UNL1       -0.2707
      2 C           7.4059   -4.0872   21.8892 C.2     1  UNL1        0.2707
      3 N           5.9402   -4.3072   22.1203 N.am    1  UNL1       -0.2809
      4 H           5.6290   -5.1348   22.5532 H       1  UNL1        0.1550
      5 C           4.9489   -3.2663   21.6918 C.ar    1  UNL1        0.0504
      6 C           4.4551   -3.2387   20.2756 C.ar    1  UNL1        0.0147
      7 C           3.4637   -2.1978   19.8471 C.ar    1  UNL1        0.0013
      8 C           2.9661   -1.1844   20.8348 C.ar    1  UNL1        0.0001
      9 C           3.4598   -1.2120   22.2509 C.ar    1  UNL1        0.0013
     10 C           4.4512   -2.2529   22.6794 C.ar    1  UNL1        0.0147
     11 C           1.9747   -0.1435   20.4063 C.ar    1  UNL1        0.0000
     12 C           1.8845    0.2575   18.9637 C.ar    1  UNL1        0.0000
     13 C           0.8931    1.2984   18.5352 C.ar    1  UNL1        0.0000
     14 C          -0.0081    1.9384   19.5493 C.ar    1  UNL1        0.0000
     15 C           0.0821    1.5374   20.9918 C.ar    1  UNL1        0.0000
     16 C           1.0735    0.4964   21.4204 C.ar    1  UNL1        0.0000
     17 C           8.3973   -5.1281   22.3177 C.3     1  UNL1        0.2897
     18 O           7.9388   -6.3247   23.0973 O.3     1  UNL1       -0.4656
     19 C           7.9288   -6.2842   24.5967 C.ar    1  UNL1        0.1394
     20 C           8.4467   -7.4526   25.3820 C.ar    1  UNL1        0.0384
     21 C           8.4367   -7.4120   26.8814 C.ar    1  UNL1        0.0207
     22 C           7.9089   -6.2031   27.5955 C.ar    1  UNL1        0.0657
     23 C           7.3911   -5.0347   26.8102 C.ar    1  UNL1        0.0207
     24 C           7.4011   -5.0753   25.3108 C.ar    1  UNL1        0.0384
     25 N           7.8990   -6.1625   29.0950 N.ar    1  UNL1       -0.2864
     26 C           6.8212   -5.5703   29.9538 C.ar    1  UNL1        0.1022
     27 C           7.2211   -5.7489   31.3885 C.ar    1  UNL1        0.1196
     28 N           8.5462   -6.4514   31.4162 N.ar    1  UNL1       -0.2220
     29 C           8.9651   -6.7070   29.9988 C.ar    1  UNL1        0.1828
@<TRIPOS>BOND
     1     1     2    2
     2     2    17    1
     3    17    18    1
     4    18    19    1
     5    19    20   ar
     6    20    21   ar
     7    21    22   ar
     8    22    25    1
     9    25    26   ar
    10    26    27   ar
    11    27    28   ar
    12    28    29   ar
    13    22    23   ar
    14    23    24   ar
    15     2     3   am
    16     3     5    1
    17     5     6   ar
    18     6     7   ar
    19     7     8   ar
    20     8    11    1
    21    11    12   ar
    22    12    13   ar
    23    13    14   ar
    24    14    15   ar
    25    15    16   ar
    26     8     9   ar
    27     9    10   ar
    28    24    19   ar
    29    10     5   ar
    30    29    25   ar
    31    16    11   ar
    32     3     4    1
@<TRIPOS>MOLECULE
*****
 29 32 0 0 0
SMALL
GASTEIGER

@<TRIPOS>ATOM
      1 O           5.4557   -4.6305   20.1846 O.2     1  UNL1       -0.2707
      2 C           6.4231   -3.5278   19.8713 C.2     1  UNL1        0.2707
      3 N           7.5892   -3.2726   20.7797 N.am    1  UNL1       -0.2809
      4 H           8.2242   -2.5489   20.5741 H       1  UNL1        0.1550
      5 C           7.7878   -4.1201   22.0013 C.ar    1  UNL1        0.0504
      6 C           7.0687   -3.7821   23.2736 C.ar    1  UNL1        0.0147
      7 C           7.2672   -4.6296   24.4952 C.ar    1  UNL1        0.0013
      8 C           8.1849   -5.8151   24.4445 C.ar    1  UNL1        0.0001
      9 C           8.9040   -6.1530   23.1723 C.ar    1  UNL1        0.0013
     10 C           8.7055   -5.3055   21.9506 C.ar    1  UNL1        0.0147
     11 C           8.3835   -6.6625   25.6661 C.ar    1  UNL1        0.0000
     12 C           7.7994   -6.2337   26.9795 C.ar    1  UNL1        0.0000
     13 C           7.9980   -7.0812   28.2011 C.ar    1  UNL1        0.0000
     14 C           8.7806   -8.3575   28.1093 C.ar    1  UNL1        0.0000
     15 C           9.3647   -8.7864   26.7960 C.ar    1  UNL1        0.0000
     16 C           9.1661   -7.9389   25.5743 C.ar    1  UNL1        0.0000
     17 C           6.2245   -2.6803   18.6497 C.3     1  UNL1        0.2897
     18 O           4.8848   -2.6371   17.9765 O.3     1  UNL1       -0.4656
     19 C           3.8481   -1.6531   18.4316 C.ar    1  UNL1        0.1394
     20 C           3.6251   -0.3872   17.6585 C.ar    1  UNL1        0.0384
     21 C           2.5885    0.5968   18.1136 C.ar    1  UNL1        0.0207
     22 C           1.7749    0.3149   19.3418 C.ar    1  UNL1        0.0657
     23 C           1.9979   -0.9510   20.1150 C.ar    1  UNL1        0.0207
     24 C           3.0345   -1.9350   19.6599 C.ar    1  UNL1        0.0384
     25 N           0.7382    1.2989   19.7969 N.ar    1  UNL1       -0.2864
     26 C           0.2063    2.4519   18.9983 C.ar    1  UNL1        0.1022
     27 C          -0.8092    3.1684   19.8382 C.ar    1  UNL1        0.1196
     28 N          -0.9049    2.4581   21.1560 N.ar    1  UNL1       -0.2220
     29 C           0.0514    1.3028   21.1304 C.ar    1  UNL1        0.1828
@<TRIPOS>BOND
     1     1     2    2
     2     2    17    1
     3    17    18    1
     4    18    19    1
     5    19    20   ar
     6    20    21   ar
     7    21    22   ar
     8    22    25    1
     9    25    26   ar
    10    26    27   ar
    11    27    28   ar
    12    28    29   ar
    13    22    23   ar
    14    23    24   ar
    15     2     3   am
    16     3     5    1
    17     5     6   ar
    18     6     7   ar
    19     7     8   ar
    20     8    11    1
    21    11    12   ar
    22    12    13   ar
    23    13    14   ar
    24    14    15   ar
    25    15    16   ar
    26     8     9   ar
    27     9    10   ar
    28    24    19   ar
    29    10     5   ar
    30    29    25   ar
    31    16    11   ar
    32     3     4    1
@<TRIPOS>MOLECULE
*****
 29 32 0 0 0
SMALL
GASTEIGER

@<TRIPOS>ATOM
      1 O           0.4217    3.5557   21.7250 O.2     1  UNL1       -0.2707
      2 C          -0.9195    3.0243   21.3141 C.2     1  UNL1        0.2707
      3 N          -1.0098    1.7861   20.4722 N.am    1  UNL1       -0.2809
      4 H          -1.8901    1.4374   20.2026 H       1  UNL1        0.1550
      5 C           0.2410    1.0794   20.0412 C.ar    1  UNL1        0.0504
      6 C           0.9534    1.5095   18.7931 C.ar    1  UNL1        0.0147
      7 C           2.2042    0.8028   18.3621 C.ar    1  UNL1        0.0013
      8 C           2.7429   -0.3340   19.1791 C.ar    1  UNL1        0.0001
      9 C           2.0306   -0.7641   20.4272 C.ar    1  UNL1        0.0013
     10 C           0.7797   -0.0574   20.8583 C.ar    1  UNL1        0.0147
     11 C           3.9937   -1.0408   18.7481 C.ar    1  UNL1        0.0000
     12 C           5.1636   -0.2517   18.2393 C.ar    1  UNL1        0.0000
     13 C           6.4145   -0.9584   17.8083 C.ar    1  UNL1        0.0000
     14 C           6.4955   -2.4542   17.8860 C.ar    1  UNL1        0.0000
     15 C           5.3257   -3.2433   18.3948 C.ar    1  UNL1        0.0000
     16 C           4.0748   -2.5365   18.8258 C.ar    1  UNL1        0.0000
     17 C          -2.1704    3.7311   21.7452 C.3     1  UNL1        0.2897
     18 O          -3.4949    3.0325   21.6570 O.3     1  UNL1       -0.4656
     19 C          -4.7264    3.6872   22.2093 C.ar    1  UNL1        0.1394
     20 C          -4.9711    3.6969   23.6891 C.ar    1  UNL1        0.0384
     21 C          -6.2025    4.3516   24.2413 C.ar    1  UNL1        0.0207
     22 C          -7.1892    4.9965   23.3136 C.ar    1  UNL1        0.0657
     23 C          -6.9445    4.9868   21.8338 C.ar    1  UNL1        0.0207
     24 C          -5.7130    4.3321   21.2816 C.ar    1  UNL1        0.0384
     25 N          -8.4207    5.6512   23.8659 N.ar    1  UNL1       -0.2864
     26 C          -8.8104    7.0887   23.6876 C.ar    1  UNL1        0.1022
     27 C         -10.1092    7.3093   24.4048 C.ar    1  UNL1        0.1196
     28 N         -10.5222    6.0080   25.0264 N.ar    1  UNL1       -0.2220
     29 C          -9.4787    4.9833   24.6933 C.ar    1  UNL1        0.1828
@<TRIPOS>BOND
     1     1     2    2
     2     2    17    1
     3    17    18    1
     4    18    19    1
     5    19    20   ar
     6    20    21   ar
     7    21    22   ar
     8    22    25    1
     9    25    26   ar
    10    26    27   ar
    11    27    28   ar
    12    28    29   ar
    13    22    23   ar
    14    23    24   ar
    15     2     3   am
    16     3     5    1
    17     5     6   ar
    18     6     7   ar
    19     7     8   ar
    20     8    11    1
    21    11    12   ar
    22    12    13   ar
    23    13    14   ar
    24    14    15   ar
    25    15    16   ar
    26     8     9   ar
    27     9    10   ar
    28    24    19   ar
    29    10     5   ar
    30    29    25   ar
    31    16    11   ar
    32     3     4    1
@<TRIPOS>MOLECULE
*****
 29 32 0 0 0
SMALL
GASTEIGER

@<TRIPOS>ATOM
      1 O           7.9671   -2.3736   24.2701 O.2     1  UNL1       -0.2707
      2 C           7.2597   -3.3706   25.1394 C.2     1  UNL1        0.2707
      3 N           5.8043   -3.6587   24.9187 N.am    1  UNL1       -0.2809
      4 H           5.3400   -4.3131   25.4893 H       1  UNL1        0.1550
      5 C           5.0562   -2.9499   23.8288 C.ar    1  UNL1        0.0504
      6 C           4.3185   -1.6789   24.1296 C.ar    1  UNL1        0.0147
      7 C           3.5705   -0.9700   23.0397 C.ar    1  UNL1        0.0013
      8 C           3.5601   -1.5320   21.6491 C.ar    1  UNL1        0.0001
      9 C           4.2978   -2.8030   21.3483 C.ar    1  UNL1        0.0013
     10 C           5.0459   -3.5119   22.4382 C.ar    1  UNL1        0.0147
     11 C           2.8121   -0.8231   20.5592 C.ar    1  UNL1        0.0000
     12 C           1.4113   -0.3437   20.8002 C.ar    1  UNL1        0.0000
     13 C           0.6633    0.3651   19.7103 C.ar    1  UNL1        0.0000
     14 C           1.3160    0.5947   18.3794 C.ar    1  UNL1        0.0000
     15 C           2.7167    0.1153   18.1384 C.ar    1  UNL1        0.0000
     16 C           3.4648   -0.5936   19.2283 C.ar    1  UNL1        0.0000
     17 C           8.0078   -4.0795   26.2293 C.3     1  UNL1        0.2897
     18 O           7.2567   -4.8274   27.2906 O.3     1  UNL1       -0.4656
     19 C           6.8885   -4.1418   28.5731 C.ar    1  UNL1        0.1394
     20 C           7.0616   -4.8550   29.8813 C.ar    1  UNL1        0.0384
     21 C           6.6934   -4.1695   31.1636 C.ar    1  UNL1        0.0207
     22 C           6.1521   -2.7708   31.1377 C.ar    1  UNL1        0.0657
     23 C           5.9789   -2.0577   29.8296 C.ar    1  UNL1        0.0207
     24 C           6.3471   -2.7432   28.5472 C.ar    1  UNL1        0.0384
     25 N           5.7838   -2.0853   32.4202 N.ar    1  UNL1       -0.2864
     26 C           6.6137   -1.0682   33.1460 C.ar    1  UNL1        0.1022
     27 C           5.8639   -0.6508   34.3763 C.ar    1  UNL1        0.1196
     28 N           4.5707   -1.4100   34.4108 N.ar    1  UNL1       -0.2220
     29 C           4.5212   -2.2965   33.2019 C.ar    1  UNL1        0.1828
@<TRIPOS>BOND
     1     1     2    2
     2     2    17    1
     3    17    18    1
     4    18    19    1
     5    19    20   ar
     6    20    21   ar
     7    21    22   ar
     8    22    25    1
     9    25    26   ar
    10    26    27   ar
    11    27    28   ar
    12    28    29   ar
    13    22    23   ar
    14    23    24   ar
    15     2     3   am
    16     3     5    1
    17     5     6   ar
    18     6     7   ar
    19     7     8   ar
    20     8    11    1
    21    11    12   ar
    22    12    13   ar
    23    13    14   ar
    24    14    15   ar
    25    15    16   ar
    26     8     9   ar
    27     9    10   ar
    28    24    19   ar
    29    10     5   ar
    30    29    25   ar
    31    16    11   ar
    32     3     4    1
@<TRIPOS>MOLECULE
*****
 29 32 0 0 0
SMALL
GASTEIGER

@<TRIPOS>ATOM
      1 O           0.4681    2.9053   19.3264 O.2     1  UNL1       -0.2707
      2 C          -0.6635    2.6214   20.2691 C.2     1  UNL1        0.2707
      3 N          -0.5663    1.4777   21.2347 N.am    1  UNL1       -0.2809
      4 H          -1.3091    1.2914   21.8534 H       1  UNL1        0.1550
      5 C           0.6625    0.6179   21.2575 C.ar    1  UNL1        0.0504
      6 C           0.8860   -0.3998   20.1784 C.ar    1  UNL1        0.0147
      7 C           2.1149   -1.2596   20.2012 C.ar    1  UNL1        0.0013
      8 C           3.1202   -1.1019   21.3032 C.ar    1  UNL1        0.0001
      9 C           2.8968   -0.0843   22.3823 C.ar    1  UNL1        0.0013
     10 C           1.6679    0.7756   22.3595 C.ar    1  UNL1        0.0147
     11 C           4.3491   -1.9617   21.3260 C.ar    1  UNL1        0.0000
     12 C           5.4166   -1.7721   20.2894 C.ar    1  UNL1        0.0000
     13 C           6.6454   -2.6319   20.3122 C.ar    1  UNL1        0.0000
     14 C           6.8069   -3.6814   21.3717 C.ar    1  UNL1        0.0000
     15 C           5.7395   -3.8711   22.4083 C.ar    1  UNL1        0.0000
     16 C           4.5105   -3.0112   22.3855 C.ar    1  UNL1        0.0000
     17 C          -1.8924    3.4813   20.2462 C.3     1  UNL1        0.2897
     18 O          -3.2367    2.8760   20.5226 O.3     1  UNL1       -0.4656
     19 C          -4.1398    3.4918   21.5499 C.ar    1  UNL1        0.1394
     20 C          -5.5526    3.8455   21.1910 C.ar    1  UNL1        0.0384
     21 C          -6.4555    4.4614   22.2183 C.ar    1  UNL1        0.0207
     22 C          -5.9457    4.7235   23.6044 C.ar    1  UNL1        0.0657
     23 C          -4.5329    4.3698   23.9633 C.ar    1  UNL1        0.0207
     24 C          -3.6299    3.7540   22.9360 C.ar    1  UNL1        0.0384
     25 N          -6.8488    5.3394   24.6317 N.ar    1  UNL1       -0.2864
     26 C          -6.4402    5.8101   25.9961 C.ar    1  UNL1        0.1022
     27 C          -7.6578    6.3543   26.6826 C.ar    1  UNL1        0.1196
     28 N          -8.8189    6.2199   25.7425 N.ar    1  UNL1       -0.2220
     29 C          -8.3189    5.5927   24.4750 C.ar    1  UNL1        0.1828
@<TRIPOS>BOND
     1     1     2    2
     2     2    17    1
     3    17    18    1
     4    18    19    1
     5    19    20   ar
     6    20    21   ar
     7    21    22   ar
     8    22    25    1
     9    25    26   ar
    10    26    27   ar
    11    27    28   ar
    12    28    29   ar
    13    22    23   ar
    14    23    24   ar
    15     2     3   am
    16     3     5    1
    17     5     6   ar
    18     6     7   ar
    19     7     8   ar
    20     8    11    1
    21    11    12   ar
    22    12    13   ar
    23    13    14   ar
    24    14    15   ar
    25    15    16   ar
    26     8     9   ar
    27     9    10   ar
    28    24    19   ar
    29    10     5   ar
    30    29    25   ar
    31    16    11   ar
    32     3     4    1
@<TRIPOS>MOLECULE
*****
 29 32 0 0 0
SMALL
GASTEIGER

@<TRIPOS>ATOM
      1 O           0.9242    4.1974   19.5353 O.2     1  UNL1       -0.2707
      2 C           0.1456    3.7926   18.3188 C.2     1  UNL1        0.2707
      3 N           0.1623    2.3652   17.8583 N.am    1  UNL1       -0.2809
      4 H          -0.3487    2.0995   17.0599 H       1  UNL1        0.1550
      5 C           0.9576    1.3426   18.6144 C.ar    1  UNL1        0.0504
      6 C           0.3590    0.6594   19.8081 C.ar    1  UNL1        0.0147
      7 C           1.1543   -0.3633   20.5642 C.ar    1  UNL1        0.0013
      8 C           2.5483   -0.7027   20.1266 C.ar    1  UNL1        0.0001
      9 C           3.1470   -0.0196   18.9329 C.ar    1  UNL1        0.0013
     10 C           2.3517    1.0031   18.1768 C.ar    1  UNL1        0.0147
     11 C           3.3436   -1.7254   20.8826 C.ar    1  UNL1        0.0000
     12 C           3.9432   -2.8944   20.1587 C.ar    1  UNL1        0.0000
     13 C           4.7386   -3.9170   20.9148 C.ar    1  UNL1        0.0000
     14 C           4.9343   -3.7707   22.3947 C.ar    1  UNL1        0.0000
     15 C           4.3348   -2.6017   23.1186 C.ar    1  UNL1        0.0000
     16 C           3.5394   -1.5790   22.3626 C.ar    1  UNL1        0.0000
     17 C          -0.6497    4.8153   17.5627 C.3     1  UNL1        0.2897
     18 O          -2.0907    4.5546   17.2379 O.3     1  UNL1       -0.4656
     19 C          -3.1320    4.6550   18.3129 C.ar    1  UNL1        0.1394
     20 C          -2.9396    5.6058   19.4570 C.ar    1  UNL1        0.0384
     21 C          -3.9808    5.7062   20.5320 C.ar    1  UNL1        0.0207
     22 C          -5.2145    4.8558   20.4629 C.ar    1  UNL1        0.0657
     23 C          -5.4070    3.9050   19.3189 C.ar    1  UNL1        0.0207
     24 C          -4.3657    3.8046   18.2439 C.ar    1  UNL1        0.0384
     25 N          -6.2558    4.9563   21.5380 N.ar    1  UNL1       -0.2864
     26 C          -6.4885    3.9609   22.6358 C.ar    1  UNL1        0.1022
     27 C          -7.6237    4.4591   23.4803 C.ar    1  UNL1        0.1196
     28 N          -8.0925    5.7624   22.9044 N.ar    1  UNL1       -0.2220
     29 C          -7.2472    6.0696   21.7040 C.ar    1  UNL1        0.1828
@<TRIPOS>BOND
     1     1     2    2
     2     2    17    1
     3    17    18    1
     4    18    19    1
     5    19    20   ar
     6    20    21   ar
     7    21    22   ar
     8    22    25    1
     9    25    26   ar
    10    26    27   ar
    11    27    28   ar
    12    28    29   ar
    13    22    23   ar
    14    23    24   ar
    15     2     3   am
    16     3     5    1
    17     5     6   ar
    18     6     7   ar
    19     7     8   ar
    20     8    11    1
    21    11    12   ar
    22    12    13   ar
    23    13    14   ar
    24    14    15   ar
    25    15    16   ar
    26     8     9   ar
    27     9    10   ar
    28    24    19   ar
    29    10     5   ar
    30    29    25   ar
    31    16    11   ar
    32     3     4    1
@<TRIPOS>MOLECULE
*****
 29 32 0 0 0
SMALL
GASTEIGER

@<TRIPOS>ATOM
      1 O           0.8459    4.2588   19.6273 O.2     1  UNL1       -0.2707
      2 C           0.0869    3.8681   18.3939 C.2     1  UNL1        0.2707
      3 N           0.1220    2.4488   17.9099 N.am    1  UNL1       -0.2809
      4 H          -0.3762    2.1923   17.1003 H       1  UNL1        0.1550
      5 C           0.9160    1.4203   18.6592 C.ar    1  UNL1        0.0504
      6 C           0.2990    0.6941   19.8177 C.ar    1  UNL1        0.0147
      7 C           1.0931   -0.3344   20.5671 C.ar    1  UNL1        0.0013
      8 C           2.5041   -0.6369   20.1580 C.ar    1  UNL1        0.0001
      9 C           3.1212    0.0892   18.9995 C.ar    1  UNL1        0.0013
     10 C           2.3271    1.1178   18.2501 C.ar    1  UNL1        0.0147
     11 C           3.2982   -1.6654   20.9073 C.ar    1  UNL1        0.0000
     12 C           3.5763   -1.4792   22.3695 C.ar    1  UNL1        0.0000
     13 C           4.3704   -2.5077   23.1189 C.ar    1  UNL1        0.0000
     14 C           4.8863   -3.7225   22.4061 C.ar    1  UNL1        0.0000
     15 C           4.6082   -3.9088   20.9440 C.ar    1  UNL1        0.0000
     16 C           3.8141   -2.8802   20.1945 C.ar    1  UNL1        0.0000
     17 C          -0.7071    4.8967   17.6445 C.3     1  UNL1        0.2897
     18 O          -2.1945    4.9722   17.8230 O.3     1  UNL1       -0.4656
     19 C          -2.7938    4.8334   19.1911 C.ar    1  UNL1        0.1394
     20 C          -3.5443    3.5877   19.5584 C.ar    1  UNL1        0.0384
     21 C          -4.1436    3.4491   20.9264 C.ar    1  UNL1        0.0207
     22 C          -3.9923    4.5561   21.9272 C.ar    1  UNL1        0.0657
     23 C          -3.2418    5.8018   21.5599 C.ar    1  UNL1        0.0207
     24 C          -2.6426    5.9405   20.1919 C.ar    1  UNL1        0.0384
     25 N          -4.5916    4.4174   23.2953 N.ar    1  UNL1       -0.2864
     26 C          -5.6783    5.2749   23.8729 C.ar    1  UNL1        0.1022
     27 C          -5.9678    4.7844   25.2606 C.ar    1  UNL1        0.1196
     28 N          -5.0599    3.6236   25.5406 N.ar    1  UNL1       -0.2220
     29 C          -4.2094    3.3968   24.3260 C.ar    1  UNL1        0.1828
@<TRIPOS>BOND
     1     1     2    2
     2     2    17    1
     3    17    18    1
     4    18    19    1
     5    19    20   ar
     6    20    21   ar
     7    21    22   ar
     8    22    25    1
     9    25    26   ar
    10    26    27   ar
    11    27    28   ar
    12    28    29   ar
    13    22    23   ar
    14    23    24   ar
    15     2     3   am
    16     3     5    1
    17     5     6   ar
    18     6     7   ar
    19     7     8   ar
    20     8    11    1
    21    11    12   ar
    22    12    13   ar
    23    13    14   ar
    24    14    15   ar
    25    15    16   ar
    26     8     9   ar
    27     9    10   ar
    28    24    19   ar
    29    10     5   ar
    30    29    25   ar
    31    16    11   ar
    32     3     4    1
@<TRIPOS>MOLECULE
*****
 29 32 0 0 0
SMALL
GASTEIGER

@<TRIPOS>ATOM
      1 O           4.2865    1.0611   19.2421 O.2     1  UNL1       -0.2707
      2 C           3.4595   -0.0323   18.6334 C.2     1  UNL1        0.2707
      3 N           2.3695   -0.6820   19.4332 N.am    1  UNL1       -0.2809
      4 H           1.8268   -1.3997   19.0338 H       1  UNL1        0.1550
      5 C           2.1065   -0.2383   20.8417 C.ar    1  UNL1        0.0504
      6 C           1.0159    0.7519   21.1249 C.ar    1  UNL1        0.0147
      7 C           0.7529    1.1957   22.5333 C.ar    1  UNL1        0.0013
      8 C           1.5805    0.6493   23.6587 C.ar    1  UNL1        0.0001
      9 C           2.6710   -0.3409   23.3757 C.ar    1  UNL1        0.0013
     10 C           2.9341   -0.7847   21.9671 C.ar    1  UNL1        0.0147
     11 C           1.3174    1.0931   25.0672 C.ar    1  UNL1        0.0000
     12 C           2.4637    1.3298   26.0054 C.ar    1  UNL1        0.0000
     13 C           2.2007    1.7735   27.4139 C.ar    1  UNL1        0.0000
     14 C           0.7915    1.9806   27.8843 C.ar    1  UNL1        0.0000
     15 C          -0.3547    1.7439   26.9462 C.ar    1  UNL1        0.0000
     16 C          -0.0918    1.3001   25.5376 C.ar    1  UNL1        0.0000
     17 C           3.7226   -0.4761   17.2249 C.3     1  UNL1        0.2897
     18 O           4.5914   -1.6709   16.9648 O.3     1  UNL1       -0.4656
     19 C           5.3195   -2.3298   18.0987 C.ar    1  UNL1        0.1394
     20 C           4.6500   -3.4131   18.8913 C.ar    1  UNL1        0.0384
     21 C           5.3782   -4.0720   20.0251 C.ar    1  UNL1        0.0207
     22 C           6.7758   -3.6476   20.3664 C.ar    1  UNL1        0.0657
     23 C           7.4453   -2.5643   19.5738 C.ar    1  UNL1        0.0207
     24 C           6.7172   -1.9055   18.4400 C.ar    1  UNL1        0.0384
     25 N           7.5040   -4.3066   21.5002 N.ar    1  UNL1       -0.2864
     26 C           8.7446   -5.1417   21.3846 C.ar    1  UNL1        0.1022
     27 C           9.1268   -5.5974   22.7616 C.ar    1  UNL1        0.1196
     28 N           8.1222   -5.0438   23.7284 N.ar    1  UNL1       -0.2220
     29 C           7.1193   -4.2461   22.9488 C.ar    1  UNL1        0.1828
@<TRIPOS>BOND
     1     1     2    2
     2     2    17    1
     3    17    18    1
     4    18    19    1
     5    19    20   ar
     6    20    21   ar
     7    21    22   ar
     8    22    25    1
     9    25    26   ar
    10    26    27   ar
    11    27    28   ar
    12    28    29   ar
    13    22    23   ar
    14    23    24   ar
    15     2     3   am
    16     3     5    1
    17     5     6   ar
    18     6     7   ar
    19     7     8   ar
    20     8    11    1
    21    11    12   ar
    22    12    13   ar
    23    13    14   ar
    24    14    15   ar
    25    15    16   ar
    26     8     9   ar
    27     9    10   ar
    28    24    19   ar
    29    10     5   ar
    30    29    25   ar
    31    16    11   ar
    32     3     4    1
