@<TRIPOS>MOLECULE
*****
 18 19 0 0 0
SMALL
GASTEIGER

@<TRIPOS>ATOM
      1 C          -7.5151  -15.2229   24.1600 C.3     1  UNL1        0.0941
      2 C          -7.4957  -15.3348   22.6643 C.3     1  UNL1        0.1096
      3 N          -8.7875  -16.0962   22.7045 N.pl3   1  UNL1       -0.2903
      4 C          -8.8068  -15.9844   24.2002 C.3     1  UNL1        0.1096
      5 C          -9.6872  -16.7137   21.6753 C.ar    1  UNL1        0.1362
      6 C          -9.6656  -18.1969   21.4532 C.ar    1  UNL1        0.0551
      7 C         -10.5653  -18.8144   20.4240 C.ar    1  UNL1        0.1047
      8 N         -11.4868  -17.9485   19.6170 N.ar    1  UNL1       -0.2124
      9 C         -11.5084  -16.4652   19.8391 C.ar    1  UNL1        0.2149
     10 N         -12.4298  -15.5994   19.0321 N.pl3   1  UNL1       -0.3274
     11 N         -10.6087  -15.8478   20.8683 N.ar    1  UNL1       -0.1990
     12 H         -13.0204  -16.0046   18.3566 H       1  UNL1        0.1452
     13 H         -12.4440  -14.6258   19.1779 H       1  UNL1        0.1452
     14 N          -6.6154  -14.6055   25.1892 N.3     1  UNL1       -0.2958
     15 H          -5.8043  -14.2402   24.6901 H       1  UNL1        0.1233
     16 C          -6.0889  -15.4372   26.3211 C.3     1  UNL1        0.0686
     17 C          -8.3048  -15.1719   27.6510 C.3     1  UNL1        0.0015
     18 C          -7.0150  -15.8977   27.4074 C.3     1  UNL1        0.0171
@<TRIPOS>BOND
     1    17    18    1
     2    18    16    1
     3    16    14    1
     4    14     1    1
     5     1     2    1
     6     2     3    1
     7     3     5    1
     8     5     6   ar
     9     6     7   ar
    10     7     8   ar
    11     8     9   ar
    12     9    10    1
    13     9    11   ar
    14     3     4    1
    15     4     1    1
    16    11     5   ar
    17    14    15    1
    18    10    12    1
    19    10    13    1
@<TRIPOS>MOLECULE
*****
 18 19 0 0 0
SMALL
GASTEIGER

@<TRIPOS>ATOM
      1 C          -3.6788  -19.5248   21.4403 C.3     1  UNL1        0.0941
      2 C          -4.9330  -19.6363   20.6252 C.3     1  UNL1        0.1096
      3 N          -5.7217  -19.0501   21.7585 N.pl3   1  UNL1       -0.2903
      4 C          -4.4675  -18.9387   22.5737 C.3     1  UNL1        0.1096
      5 C          -7.1663  -18.7144   21.9835 C.ar    1  UNL1        0.1362
      6 C          -8.0862  -19.7303   22.5932 C.ar    1  UNL1        0.0551
      7 C          -9.5307  -19.3946   22.8182 C.ar    1  UNL1        0.1047
      8 N         -10.0553  -18.0430   22.4336 N.ar    1  UNL1       -0.2124
      9 C          -9.1354  -17.0271   21.8239 C.ar    1  UNL1        0.2149
     10 N          -9.6600  -15.6755   21.4393 N.pl3   1  UNL1       -0.3274
     11 N          -7.6909  -17.3628   21.5989 N.ar    1  UNL1       -0.1990
     12 H         -10.6081  -15.4551   21.5870 H       1  UNL1        0.1452
     13 H          -9.0562  -15.0087   21.0392 H       1  UNL1        0.1452
     14 N          -2.2343  -19.8605   21.2153 N.3     1  UNL1       -0.2958
     15 H          -1.8371  -20.0792   22.1290 H       1  UNL1        0.1233
     16 C          -1.3218  -18.8564   20.5755 C.3     1  UNL1        0.0686
     17 C          -1.7967  -16.4239   21.3546 C.3     1  UNL1        0.0015
     18 C          -1.8184  -17.4719   20.2817 C.3     1  UNL1        0.0171
@<TRIPOS>BOND
     1    17    18    1
     2    18    16    1
     3    16    14    1
     4    14     1    1
     5     1     2    1
     6     2     3    1
     7     3     5    1
     8     5     6   ar
     9     6     7   ar
    10     7     8   ar
    11     8     9   ar
    12     9    10    1
    13     9    11   ar
    14     3     4    1
    15     4     1    1
    16    11     5   ar
    17    14    15    1
    18    10    12    1
    19    10    13    1
@<TRIPOS>MOLECULE
*****
 18 19 0 0 0
SMALL
GASTEIGER

@<TRIPOS>ATOM
      1 C          -6.4483  -17.9752   22.3246 C.3     1  UNL1        0.0941
      2 C          -7.5043  -17.0062   22.7672 C.3     1  UNL1        0.1096
      3 N          -8.5157  -17.7226   21.9224 N.pl3   1  UNL1       -0.2903
      4 C          -7.4597  -18.6916   21.4798 C.3     1  UNL1        0.1096
      5 C          -9.9777  -17.5440   21.6379 C.ar    1  UNL1        0.1362
      6 C         -10.9983  -18.2268   22.4994 C.ar    1  UNL1        0.0551
      7 C         -12.4601  -18.0482   22.2149 C.ar    1  UNL1        0.1047
      8 N         -12.9015  -17.1869   21.0689 N.ar    1  UNL1       -0.2124
      9 C         -11.8809  -16.5041   20.2074 C.ar    1  UNL1        0.2149
     10 N         -12.3222  -15.6427   19.0615 N.pl3   1  UNL1       -0.3274
     11 N         -10.4190  -16.6827   20.4919 N.ar    1  UNL1       -0.1990
     12 H         -13.2817  -15.5255   18.8747 H       1  UNL1        0.1452
     13 H         -11.6523  -15.1945   18.4960 H       1  UNL1        0.1452
     14 N          -4.9864  -18.1538   22.6091 N.3     1  UNL1       -0.2958
     15 H          -4.4871  -17.4992   22.0068 H       1  UNL1        0.1233
     16 C          -4.3434  -19.4954   22.4173 C.3     1  UNL1        0.0686
     17 C          -3.9052  -19.9921   19.9051 C.3     1  UNL1        0.0015
     18 C          -3.3851  -19.7127   21.2840 C.3     1  UNL1        0.0171
@<TRIPOS>BOND
     1    17    18    1
     2    18    16    1
     3    16    14    1
     4    14     1    1
     5     1     2    1
     6     2     3    1
     7     3     5    1
     8     5     6   ar
     9     6     7   ar
    10     7     8   ar
    11     8     9   ar
    12     9    10    1
    13     9    11   ar
    14     3     4    1
    15     4     1    1
    16    11     5   ar
    17    14    15    1
    18    10    12    1
    19    10    13    1
@<TRIPOS>MOLECULE
*****
 18 19 0 0 0
SMALL
GASTEIGER

@<TRIPOS>ATOM
      1 C          -7.6126  -15.2705   24.4074 C.3     1  UNL1        0.0941
      2 C          -9.0101  -15.6648   24.7836 C.3     1  UNL1        0.1096
      3 N          -9.3086  -15.9771   23.3472 N.pl3   1  UNL1       -0.2903
      4 C          -7.9111  -15.5828   22.9710 C.3     1  UNL1        0.1096
      5 C         -10.5079  -16.4768   22.5974 C.ar    1  UNL1        0.1362
      6 C         -11.3394  -17.5876   23.1672 C.ar    1  UNL1        0.0551
      7 C         -12.5387  -18.0872   22.4175 C.ar    1  UNL1        0.1047
      8 N         -12.9063  -17.4761   21.0979 N.ar    1  UNL1       -0.2124
      9 C         -12.0748  -16.3653   20.5281 C.ar    1  UNL1        0.2149
     10 N         -12.4425  -15.7542   19.2085 N.pl3   1  UNL1       -0.3274
     11 N         -10.8756  -15.8657   21.2778 N.ar    1  UNL1       -0.1990
     12 H         -13.2296  -16.0821   18.7164 H       1  UNL1        0.1452
     13 H         -11.8968  -15.0251   18.8345 H       1  UNL1        0.1452
     14 N          -6.4133  -14.7708   25.1571 N.3     1  UNL1       -0.2958
     15 H          -6.2339  -13.8225   24.8271 H       1  UNL1        0.1233
     16 C          -5.1123  -15.5126   25.0711 C.3     1  UNL1        0.0686
     17 C          -4.1626  -17.3866   23.5427 C.3     1  UNL1        0.0015
     18 C          -4.5924  -15.9629   23.7381 C.3     1  UNL1        0.0171
@<TRIPOS>BOND
     1    17    18    1
     2    18    16    1
     3    16    14    1
     4    14     1    1
     5     1     2    1
     6     2     3    1
     7     3     5    1
     8     5     6   ar
     9     6     7   ar
    10     7     8   ar
    11     8     9   ar
    12     9    10    1
    13     9    11   ar
    14     3     4    1
    15     4     1    1
    16    11     5   ar
    17    14    15    1
    18    10    12    1
    19    10    13    1
@<TRIPOS>MOLECULE
*****
 18 19 0 0 0
SMALL
GASTEIGER

@<TRIPOS>ATOM
      1 C          -9.1338  -17.8862   22.9136 C.3     1  UNL1        0.0941
      2 C          -7.9078  -17.1753   22.4219 C.3     1  UNL1        0.1096
      3 N          -7.2075  -18.4924   22.2641 N.pl3   1  UNL1       -0.2903
      4 C          -8.4334  -19.2032   22.7558 C.3     1  UNL1        0.1096
      5 C          -5.8453  -18.9211   21.8049 C.ar    1  UNL1        0.1362
      6 C          -5.7080  -19.9687   20.7402 C.ar    1  UNL1        0.0551
      7 C          -4.3460  -20.3974   20.2811 C.ar    1  UNL1        0.1047
      8 N          -3.1211  -19.7785   20.8866 N.ar    1  UNL1       -0.2124
      9 C          -3.2584  -18.7308   21.9512 C.ar    1  UNL1        0.2149
     10 N          -2.0335  -18.1119   22.5567 N.pl3   1  UNL1       -0.3274
     11 N          -4.6204  -18.3022   22.4104 N.ar    1  UNL1       -0.1990
     12 H          -1.1395  -18.3932   22.2554 H       1  UNL1        0.1452
     13 H          -2.1236  -17.4243   23.2555 H       1  UNL1        0.1452
     14 N         -10.4959  -17.4575   23.3728 N.3     1  UNL1       -0.2958
     15 H         -10.4289  -17.2898   24.3767 H       1  UNL1        0.1233
     16 C         -11.6765  -18.3586   23.1620 C.3     1  UNL1        0.0686
     17 C         -14.0071  -18.1242   24.2857 C.3     1  UNL1        0.0015
     18 C         -13.0645  -17.7900   23.1678 C.3     1  UNL1        0.0171
@<TRIPOS>BOND
     1    17    18    1
     2    18    16    1
     3    16    14    1
     4    14     1    1
     5     1     2    1
     6     2     3    1
     7     3     5    1
     8     5     6   ar
     9     6     7   ar
    10     7     8   ar
    11     8     9   ar
    12     9    10    1
    13     9    11   ar
    14     3     4    1
    15     4     1    1
    16    11     5   ar
    17    14    15    1
    18    10    12    1
    19    10    13    1
@<TRIPOS>MOLECULE
*****
 18 19 0 0 0
SMALL
GASTEIGER

@<TRIPOS>ATOM
      1 C          -6.5302  -15.6080   24.2996 C.3     1  UNL1        0.0941
      2 C          -6.5066  -16.6279   23.1999 C.3     1  UNL1        0.1096
      3 N          -5.0157  -16.7317   23.3282 N.pl3   1  UNL1       -0.2903
      4 C          -5.0393  -15.7118   24.4279 C.3     1  UNL1        0.1096
      5 C          -3.9447  -17.5263   22.6414 C.ar    1  UNL1        0.1362
      6 C          -4.0094  -19.0249   22.6363 C.ar    1  UNL1        0.0551
      7 C          -2.9385  -19.8194   21.9494 C.ar    1  UNL1        0.1047
      8 N          -1.8028  -19.1154   21.2678 N.ar    1  UNL1       -0.2124
      9 C          -1.7381  -17.6168   21.2729 C.ar    1  UNL1        0.2149
     10 N          -0.6025  -16.9128   20.5913 N.pl3   1  UNL1       -0.3274
     11 N          -2.8091  -16.8223   21.9598 N.ar    1  UNL1       -0.1990
     12 H           0.1004  -17.4343   20.1405 H       1  UNL1        0.1452
     13 H          -0.5600  -15.9292   20.5947 H       1  UNL1        0.1452
     14 N          -7.6011  -14.8134   24.9864 N.3     1  UNL1       -0.2958
     15 H          -7.1277  -14.1449   25.5942 H       1  UNL1        0.1233
     16 C          -8.6295  -15.5103   25.8272 C.3     1  UNL1        0.0686
     17 C          -6.8688  -15.8917   27.6991 C.3     1  UNL1        0.0015
     18 C          -8.2908  -15.9391   27.2241 C.3     1  UNL1        0.0171
@<TRIPOS>BOND
     1    17    18    1
     2    18    16    1
     3    16    14    1
     4    14     1    1
     5     1     2    1
     6     2     3    1
     7     3     5    1
     8     5     6   ar
     9     6     7   ar
    10     7     8   ar
    11     8     9   ar
    12     9    10    1
    13     9    11   ar
    14     3     4    1
    15     4     1    1
    16    11     5   ar
    17    14    15    1
    18    10    12    1
    19    10    13    1
@<TRIPOS>MOLECULE
*****
 18 19 0 0 0
SMALL
GASTEIGER

@<TRIPOS>ATOM
      1 C          -7.2007  -15.2643   23.9381 C.3     1  UNL1        0.0941
      2 C          -8.3002  -16.2338   24.2562 C.3     1  UNL1        0.1096
      3 N          -8.7709  -16.1667   22.8336 N.pl3   1  UNL1       -0.2903
      4 C          -7.6714  -15.1972   22.5155 C.3     1  UNL1        0.1096
      5 C          -9.8813  -16.8048   22.0525 C.ar    1  UNL1        0.1362
      6 C         -11.3014  -16.3820   22.2856 C.ar    1  UNL1        0.0551
      7 C         -12.4117  -17.0201   21.5045 C.ar    1  UNL1        0.1047
      8 N         -12.1018  -18.0809   20.4903 N.ar    1  UNL1       -0.2124
      9 C         -10.6817  -18.5037   20.2572 C.ar    1  UNL1        0.2149
     10 N         -10.3718  -19.5646   19.2431 N.pl3   1  UNL1       -0.3274
     11 N          -9.5714  -17.8657   21.0383 N.ar    1  UNL1       -0.1990
     12 H         -11.1005  -19.9834   18.7304 H       1  UNL1        0.1452
     13 H          -9.4396  -19.8421   19.0901 H       1  UNL1        0.1452
     14 N          -6.0904  -14.6262   24.7191 N.3     1  UNL1       -0.2958
     15 H          -5.2650  -14.6367   24.1199 H       1  UNL1        0.1233
     16 C          -5.6741  -15.2037   26.0395 C.3     1  UNL1        0.0686
     17 C          -7.2088  -16.2173   27.8744 C.3     1  UNL1        0.0015
     18 C          -6.5490  -15.0264   27.2449 C.3     1  UNL1        0.0171
@<TRIPOS>BOND
     1    17    18    1
     2    18    16    1
     3    16    14    1
     4    14     1    1
     5     1     2    1
     6     2     3    1
     7     3     5    1
     8     5     6   ar
     9     6     7   ar
    10     7     8   ar
    11     8     9   ar
    12     9    10    1
    13     9    11   ar
    14     3     4    1
    15     4     1    1
    16    11     5   ar
    17    14    15    1
    18    10    12    1
    19    10    13    1
@<TRIPOS>MOLECULE
*****
 18 19 0 0 0
SMALL
GASTEIGER

@<TRIPOS>ATOM
      1 C          -5.2203  -19.5713   20.5999 C.3     1  UNL1        0.0941
      2 C          -5.4438  -18.9764   21.9586 C.3     1  UNL1        0.1096
      3 N          -6.9239  -18.9768   21.7153 N.pl3   1  UNL1       -0.2903
      4 C          -6.7004  -19.5717   20.3566 C.3     1  UNL1        0.1096
      5 C          -8.1287  -18.5564   22.5040 C.ar    1  UNL1        0.1362
      6 C          -8.6520  -17.1557   22.3845 C.ar    1  UNL1        0.0551
      7 C          -9.8566  -16.7354   23.1732 C.ar    1  UNL1        0.1047
      8 N         -10.5380  -17.7157   24.0814 N.ar    1  UNL1       -0.2124
      9 C         -10.0147  -19.1163   24.2008 C.ar    1  UNL1        0.2149
     10 N         -10.6960  -20.0967   25.1090 N.pl3   1  UNL1       -0.3274
     11 N          -8.8100  -19.5367   23.4122 N.ar    1  UNL1       -0.1990
     12 H         -11.4867  -19.8208   25.6266 H       1  UNL1        0.1452
     13 H         -10.3526  -21.0160   25.1874 H       1  UNL1        0.1452
     14 N          -4.0157  -19.9917   19.8111 N.3     1  UNL1       -0.2958
     15 H          -3.5238  -20.6866   20.3728 H       1  UNL1        0.1233
     16 C          -2.9976  -18.9713   19.3958 C.3     1  UNL1        0.0686
     17 C          -0.6124  -17.9865   19.6968 C.3     1  UNL1        0.0015
     18 C          -1.7972  -18.7155   20.2580 C.3     1  UNL1        0.0171
@<TRIPOS>BOND
     1    17    18    1
     2    18    16    1
     3    16    14    1
     4    14     1    1
     5     1     2    1
     6     2     3    1
     7     3     5    1
     8     5     6   ar
     9     6     7   ar
    10     7     8   ar
    11     8     9   ar
    12     9    10    1
    13     9    11   ar
    14     3     4    1
    15     4     1    1
    16    11     5   ar
    17    14    15    1
    18    10    12    1
    19    10    13    1
@<TRIPOS>MOLECULE
*****
 18 19 0 0 0
SMALL
GASTEIGER

@<TRIPOS>ATOM
      1 C          -5.6207  -19.8945   20.7371 C.3     1  UNL1        0.0941
      2 C          -5.9579  -19.4296   22.1229 C.3     1  UNL1        0.1096
      3 N          -7.4084  -19.3608   21.7468 N.pl3   1  UNL1       -0.2903
      4 C          -7.0712  -19.8256   20.3611 C.3     1  UNL1        0.1096
      5 C          -8.6725  -18.9834   22.4607 C.ar    1  UNL1        0.1362
      6 C          -9.3527  -19.9757   23.3568 C.ar    1  UNL1        0.0551
      7 C         -10.6167  -19.5983   24.0706 C.ar    1  UNL1        0.1047
      8 N         -11.2007  -18.2287   23.8885 N.ar    1  UNL1       -0.2124
      9 C         -10.5206  -17.2364   22.9925 C.ar    1  UNL1        0.2149
     10 N         -11.1045  -15.8668   22.8103 N.pl3   1  UNL1       -0.3274
     11 N          -9.2565  -17.6138   22.2786 N.ar    1  UNL1       -0.1990
     12 H         -11.9342  -15.6191   23.2789 H       1  UNL1        0.1452
     13 H         -10.6581  -15.2156   22.2222 H       1  UNL1        0.1452
     14 N          -4.3567  -20.2718   20.0232 N.3     1  UNL1       -0.2958
     15 H          -4.0643  -21.1738   20.3991 H       1  UNL1        0.1233
     16 C          -3.1611  -19.3681   20.0866 C.3     1  UNL1        0.0686
     17 C          -2.3477  -18.2971   22.3094 C.3     1  UNL1        0.0015
     18 C          -2.2648  -19.3934   21.2890 C.3     1  UNL1        0.0171
@<TRIPOS>BOND
     1    17    18    1
     2    18    16    1
     3    16    14    1
     4    14     1    1
     5     1     2    1
     6     2     3    1
     7     3     5    1
     8     5     6   ar
     9     6     7   ar
    10     7     8   ar
    11     8     9   ar
    12     9    10    1
    13     9    11   ar
    14     3     4    1
    15     4     1    1
    16    11     5   ar
    17    14    15    1
    18    10    12    1
    19    10    13    1
