@<TRIPOS>MOLECULE
*****
 30 34 0 0 0
SMALL
GASTEIGER

@<TRIPOS>ATOM
      1 C           7.0221   -4.2120   23.9951 C.2     1  UNL1        0.2651
      2 O           8.4879   -3.9048   23.9121 O.2     1  UNL1       -0.2684
      3 N           6.4844   -4.9948   25.1562 N.am    1  UNL1       -0.2996
      4 H           5.5223   -5.1965   25.2107 H       1  UNL1        0.1498
      5 C           4.9686   -3.4966   20.7800 C.ar    1  UNL1        0.1239
      6 N           6.0388   -4.2529   21.5098 N.ar    1  UNL1       -0.2260
      7 C           6.0938   -3.7364   22.9170 C.ar    1  UNL1        0.1517
      8 C           5.0577   -2.6608   23.0569 C.ar    1  UNL1        0.0872
      9 C           4.6577   -1.7972   24.2162 C.ar    1  UNL1        0.0193
     10 C           3.5622   -0.7854   24.0549 C.ar    1  UNL1        0.0031
     11 C           2.8668   -0.6372   22.7341 C.ar    1  UNL1        0.0191
     12 C           3.2668   -1.5007   21.5748 C.ar    1  UNL1        0.0811
     13 N           4.3623   -2.5126   21.7361 N.ar    1  UNL1       -0.2921
     14 C           3.3851   -4.5382   19.0030 C.3     1  UNL1        0.0079
     15 C           4.5740   -3.6902   19.3459 C.3     1  UNL1        0.0573
     16 C           5.3681   -3.0358   18.2546 C.3     1  UNL1        0.0079
     17 C           7.4127   -5.4704   26.2343 C.3     1  UNL1        0.0898
     18 C           7.1772   -5.0651   27.6592 C.3     1  UNL1        0.0224
     19 C           6.8608   -4.0060   28.6731 C.3     1  UNL1        0.0191
     20 C           6.5673   -3.1829   29.8923 C.3     1  UNL1        0.0721
     21 N           6.6110   -4.0904   31.0858 N.3     1  UNL1       -0.2727
     22 C           6.9316   -5.4744   30.6043 C.3     1  UNL1        0.0721
     23 C           7.0859   -5.4222   29.1132 C.3     1  UNL1        0.0191
     24 C           6.3756   -3.6851   32.5107 C.3     1  UNL1        0.0722
     25 C           5.9004   -2.2980   32.8271 C.3     1  UNL1        0.0210
     26 C           6.8949   -1.1990   33.0585 C.3     1  UNL1        0.0335
     27 C           6.4197    0.1881   33.3749 C.3     1  UNL1        0.1422
     28 O           4.9502    0.4764   33.4599 O.3     1  UNL1       -0.3538
     29 C           3.9557   -0.6226   33.2286 C.3     1  UNL1        0.1422
     30 C           4.4309   -2.0097   32.9122 C.3     1  UNL1        0.0335
@<TRIPOS>BOND
     1    14    15    1
     2    15    16    1
     3    15     5    1
     4     5     6   ar
     5     6     7   ar
     6     7     1    1
     7     1     2    2
     8     1     3   am
     9     3    17    1
    10    18    17    1
    11    18    19    1
    12    19    20    1
    13    20    21    1
    14    21    24    1
    15    24    25    1
    16    25    26    1
    17    26    27    1
    18    27    28    1
    19    28    29    1
    20    29    30    1
    21    21    22    1
    22    23    22    1
    23     7     8   ar
    24     8     9   ar
    25     9    10   ar
    26    10    11   ar
    27    11    12   ar
    28    12    13   ar
    29    13     5   ar
    30    23    18    1
    31    13     8   ar
    32    23    19    1
    33    30    25    1
    34     3     4    1
@<TRIPOS>MOLECULE
*****
 30 34 0 0 0
SMALL
GASTEIGER

@<TRIPOS>ATOM
      1 C           6.2542   -3.9847   23.1459 C.2     1  UNL1        0.2651
      2 O           7.1651   -5.0207   22.5570 O.2     1  UNL1       -0.2684
      3 N           6.1024   -3.8785   24.6345 N.am    1  UNL1       -0.2996
      4 H           5.5045   -3.1985   25.0210 H       1  UNL1        0.1498
      5 C           3.7837   -1.5702   21.3762 C.ar    1  UNL1        0.1239
      6 N           4.1698   -2.4212   22.5495 N.ar    1  UNL1       -0.2260
      7 C           5.4951   -3.0548   22.2463 C.ar    1  UNL1        0.1517
      8 C           5.9282   -2.5954   20.8857 C.ar    1  UNL1        0.0872
      9 C           7.1490   -2.8940   20.0670 C.ar    1  UNL1        0.0193
     10 C           7.3121   -2.2750   18.7104 C.ar    1  UNL1        0.0031
     11 C           6.2544   -1.3574   18.1727 C.ar    1  UNL1        0.0191
     12 C           5.0336   -1.0588   18.9914 C.ar    1  UNL1        0.0811
     13 N           4.8705   -1.6778   20.3479 N.ar    1  UNL1       -0.2921
     14 C           2.1936    0.2652   22.3000 C.3     1  UNL1        0.0079
     15 C           2.5309   -0.7546   21.2528 C.3     1  UNL1        0.0573
     16 C           1.6153   -0.9587   20.0824 C.3     1  UNL1        0.0079
     17 C           6.8614   -4.8084   25.5340 C.3     1  UNL1        0.0898
     18 C           6.7953   -4.6324   27.0222 C.3     1  UNL1        0.0224
     19 C           6.6311   -3.7433   28.2191 C.3     1  UNL1        0.0191
     20 C           6.5022   -3.1207   29.5777 C.3     1  UNL1        0.0721
     21 N           6.6363   -4.2091   30.6011 N.3     1  UNL1       -0.2727
     22 C           6.8480   -5.5045   29.8750 C.3     1  UNL1        0.0721
     23 C           6.8449   -5.2166   28.4029 C.3     1  UNL1        0.0191
     24 C           6.5701   -4.0331   32.0892 C.3     1  UNL1        0.0722
     25 C           6.1368   -2.7200   32.6706 C.3     1  UNL1        0.0210
     26 C           7.1375   -1.6201   32.8672 C.3     1  UNL1        0.0335
     27 C           6.7042   -0.3069   33.4486 C.3     1  UNL1        0.1422
     28 O           5.2702   -0.0937   33.8333 O.3     1  UNL1       -0.3538
     29 C           4.2694   -1.1936   33.6366 C.3     1  UNL1        0.1422
     30 C           4.7028   -2.5067   33.0553 C.3     1  UNL1        0.0335
@<TRIPOS>BOND
     1    14    15    1
     2    15    16    1
     3    15     5    1
     4     5     6   ar
     5     6     7   ar
     6     7     1    1
     7     1     2    2
     8     1     3   am
     9     3    17    1
    10    18    17    1
    11    18    19    1
    12    19    20    1
    13    20    21    1
    14    21    24    1
    15    24    25    1
    16    25    26    1
    17    26    27    1
    18    27    28    1
    19    28    29    1
    20    29    30    1
    21    21    22    1
    22    23    22    1
    23     7     8   ar
    24     8     9   ar
    25     9    10   ar
    26    10    11   ar
    27    11    12   ar
    28    12    13   ar
    29    13     5   ar
    30    23    18    1
    31    13     8   ar
    32    23    19    1
    33    30    25    1
    34     3     4    1
@<TRIPOS>MOLECULE
*****
 30 34 0 0 0
SMALL
GASTEIGER

@<TRIPOS>ATOM
      1 C         -14.0188   -3.4517   19.6504 C.2     1  UNL1        0.2651
      2 O         -14.0091   -3.1986   21.1288 O.2     1  UNL1       -0.2684
      3 N         -15.2093   -3.0535   18.8291 N.am    1  UNL1       -0.2996
      4 H         -15.2157   -3.2197   17.8587 H       1  UNL1        0.1498
      5 C         -11.1969   -5.7557   18.3112 C.ar    1  UNL1        0.1239
      6 N         -12.4281   -5.5384   19.1399 N.ar    1  UNL1       -0.2260
      7 C         -12.8382   -4.1030   18.9932 C.ar    1  UNL1        0.1517
      8 C         -11.8603   -3.4332   18.0738 C.ar    1  UNL1        0.0872
      9 C         -11.7626   -2.0252   17.5660 C.ar    1  UNL1        0.0193
     10 C         -10.6504   -1.6387   16.6367 C.ar    1  UNL1        0.0031
     11 C          -9.6360   -2.6601   16.2153 C.ar    1  UNL1        0.0191
     12 C          -9.7337   -4.0681   16.7231 C.ar    1  UNL1        0.0811
     13 N         -10.8459   -4.4547   17.6523 N.ar    1  UNL1       -0.2921
     14 C          -9.2941   -7.3511   19.0760 C.3     1  UNL1        0.0079
     15 C         -10.4480   -7.0473   18.1668 C.3     1  UNL1        0.0573
     16 C         -10.8527   -8.0353   17.1132 C.3     1  UNL1        0.0079
     17 C         -16.3899   -2.4022   19.4863 C.3     1  UNL1        0.0898
     18 C         -16.3618   -0.9343   19.7936 C.3     1  UNL1        0.0224
     19 C         -15.8533    0.4454   19.4972 C.3     1  UNL1        0.0191
     20 C         -15.5273    1.9085   19.4419 C.3     1  UNL1        0.0721
     21 N         -16.2942    2.5959   20.5325 N.3     1  UNL1       -0.2727
     22 C         -17.0941    1.5576   21.2619 C.3     1  UNL1        0.0721
     23 C         -16.8216    0.2285   20.6221 C.3     1  UNL1        0.0191
     24 C         -16.2661    4.0638   20.8397 C.3     1  UNL1        0.0722
     25 C         -15.7988    4.5400   22.1832 C.3     1  UNL1        0.0210
     26 C         -16.7705    4.6461   23.3209 C.3     1  UNL1        0.0335
     27 C         -16.3033    5.1223   24.6644 C.3     1  UNL1        0.1422
     28 O         -14.8643    5.4925   24.8701 O.3     1  UNL1       -0.3538
     29 C         -13.8926    5.3865   23.7323 C.3     1  UNL1        0.1422
     30 C         -14.3599    4.9102   22.3889 C.3     1  UNL1        0.0335
@<TRIPOS>BOND
     1    14    15    1
     2    15    16    1
     3    15     5    1
     4     5     6   ar
     5     6     7   ar
     6     7     1    1
     7     1     2    2
     8     1     3   am
     9     3    17    1
    10    18    17    1
    11    18    19    1
    12    19    20    1
    13    20    21    1
    14    21    24    1
    15    24    25    1
    16    25    26    1
    17    26    27    1
    18    27    28    1
    19    28    29    1
    20    29    30    1
    21    21    22    1
    22    23    22    1
    23     7     8   ar
    24     8     9   ar
    25     9    10   ar
    26    10    11   ar
    27    11    12   ar
    28    12    13   ar
    29    13     5   ar
    30    23    18    1
    31    13     8   ar
    32    23    19    1
    33    30    25    1
    34     3     4    1
@<TRIPOS>MOLECULE
*****
 30 34 0 0 0
SMALL
GASTEIGER

@<TRIPOS>ATOM
      1 C           1.8258    1.4363   20.0517 C.2     1  UNL1        0.2651
      2 O           2.5894    2.7272   20.0694 O.2     1  UNL1       -0.2684
      3 N           0.3385    1.4473   19.8561 N.am    1  UNL1       -0.2996
      4 H          -0.1627    0.6001   19.8445 H       1  UNL1        0.1498
      5 C           3.6401   -1.9827   19.7623 C.ar    1  UNL1        0.1239
      6 N           2.9383   -0.8147   19.1351 N.ar    1  UNL1       -0.2260
      7 C           2.5492    0.1344   20.2295 C.ar    1  UNL1        0.1517
      8 C           3.0105   -0.4470   21.5331 C.ar    1  UNL1        0.0872
      9 C           2.9037    0.0460   22.9457 C.ar    1  UNL1        0.0193
     10 C           3.4712   -0.7694   24.0695 C.ar    1  UNL1        0.0031
     11 C           4.1454   -2.0779   23.7807 C.ar    1  UNL1        0.0191
     12 C           4.2522   -2.5709   22.3681 C.ar    1  UNL1        0.0811
     13 N           3.6848   -1.7554   21.2443 N.ar    1  UNL1       -0.2921
     14 C           3.5249   -4.5047   19.1487 C.3     1  UNL1        0.0079
     15 C           4.1992   -3.1695   19.0351 C.3     1  UNL1        0.0573
     16 C           5.4325   -3.0214   18.1944 C.3     1  UNL1        0.0079
     17 C          -0.3849    2.7493   19.6783 C.3     1  UNL1        0.0898
     18 C          -1.6053    3.0471   20.4979 C.3     1  UNL1        0.0224
     19 C          -3.0975    3.0532   20.6511 C.3     1  UNL1        0.0191
     20 C          -4.5272    3.1808   21.0867 C.3     1  UNL1        0.0721
     21 N          -4.5405    3.7632   22.4689 N.3     1  UNL1       -0.2727
     22 C          -3.1190    3.9956   22.8876 C.3     1  UNL1        0.0721
     23 C          -2.2272    3.5568   21.7642 C.3     1  UNL1        0.0191
     24 C          -5.7610    4.0610   23.2884 C.3     1  UNL1        0.0722
     25 C          -5.6181    4.4806   24.7214 C.3     1  UNL1        0.0210
     26 C          -6.5356    5.5202   25.2936 C.3     1  UNL1        0.0335
     27 C          -6.3927    5.9398   26.7266 C.3     1  UNL1        0.1422
     28 O          -5.3323    5.3199   27.5875 O.3     1  UNL1       -0.3538
     29 C          -4.4148    4.2802   27.0153 C.3     1  UNL1        0.1422
     30 C          -4.5577    3.8607   25.5823 C.3     1  UNL1        0.0335
@<TRIPOS>BOND
     1    14    15    1
     2    15    16    1
     3    15     5    1
     4     5     6   ar
     5     6     7   ar
     6     7     1    1
     7     1     2    2
     8     1     3   am
     9     3    17    1
    10    18    17    1
    11    18    19    1
    12    19    20    1
    13    20    21    1
    14    21    24    1
    15    24    25    1
    16    25    26    1
    17    26    27    1
    18    27    28    1
    19    28    29    1
    20    29    30    1
    21    21    22    1
    22    23    22    1
    23     7     8   ar
    24     8     9   ar
    25     9    10   ar
    26    10    11   ar
    27    11    12   ar
    28    12    13   ar
    29    13     5   ar
    30    23    18    1
    31    13     8   ar
    32    23    19    1
    33    30    25    1
    34     3     4    1
@<TRIPOS>MOLECULE
*****
 30 34 0 0 0
SMALL
GASTEIGER

@<TRIPOS>ATOM
      1 C         -13.4861   -0.2934   18.2018 C.2     1  UNL1        0.2651
      2 O         -12.6906    0.9445   18.4924 O.2     1  UNL1       -0.2684
      3 N         -14.9120   -0.1797   17.7499 N.am    1  UNL1       -0.2996
      4 H         -15.4342   -0.9922   17.5591 H       1  UNL1        0.1498
      5 C         -11.2515   -3.4652   18.3076 C.ar    1  UNL1        0.1239
      6 N         -11.4584   -2.0192   17.9669 N.ar    1  UNL1       -0.2260
      7 C         -12.8560   -1.6451   18.3629 C.ar    1  UNL1        0.1517
      8 C         -13.5128   -2.8599   18.9485 C.ar    1  UNL1        0.0872
      9 C         -14.8857   -3.0871   19.5083 C.ar    1  UNL1        0.0193
     10 C         -15.2669   -4.4392   20.0340 C.ar    1  UNL1        0.0031
     11 C         -14.2753   -5.5641   19.9999 C.ar    1  UNL1        0.0191
     12 C         -12.9024   -5.3369   19.4400 C.ar    1  UNL1        0.0811
     13 N         -12.5212   -3.9848   18.9143 N.ar    1  UNL1       -0.2921
     14 C          -9.5006   -5.1956   19.1386 C.3     1  UNL1        0.0079
     15 C          -9.9954   -4.2534   18.0815 C.3     1  UNL1        0.0573
     16 C          -9.2342   -4.0994   16.7983 C.3     1  UNL1        0.0079
     17 C         -15.5422    1.1719   17.5887 C.3     1  UNL1        0.0898
     18 C         -15.7516    2.0494   18.7871 C.3     1  UNL1        0.0224
     19 C         -16.3485    2.2730   20.1449 C.3     1  UNL1        0.0191
     20 C         -16.8045    2.7761   21.4825 C.3     1  UNL1        0.0721
     21 N         -16.2555    4.1595   21.6692 N.3     1  UNL1       -0.2727
     22 C         -15.4601    4.5114   20.4470 C.3     1  UNL1        0.0721
     23 C         -15.5176    3.3455   19.5050 C.3     1  UNL1        0.0191
     24 C         -16.4650    5.0369   22.8676 C.3     1  UNL1        0.0722
     25 C         -15.4033    5.1309   23.9231 C.3     1  UNL1        0.0210
     26 C         -13.9583    4.9837   23.5486 C.3     1  UNL1        0.0335
     27 C         -12.8966    5.0777   24.6041 C.3     1  UNL1        0.1422
     28 O         -13.2799    5.3189   26.0340 O.3     1  UNL1       -0.3538
     29 C         -14.7250    5.4660   26.4085 C.3     1  UNL1        0.1422
     30 C         -15.7866    5.3720   25.3530 C.3     1  UNL1        0.0335
@<TRIPOS>BOND
     1    14    15    1
     2    15    16    1
     3    15     5    1
     4     5     6   ar
     5     6     7   ar
     6     7     1    1
     7     1     2    2
     8     1     3   am
     9     3    17    1
    10    18    17    1
    11    18    19    1
    12    19    20    1
    13    20    21    1
    14    21    24    1
    15    24    25    1
    16    25    26    1
    17    26    27    1
    18    27    28    1
    19    28    29    1
    20    29    30    1
    21    21    22    1
    22    23    22    1
    23     7     8   ar
    24     8     9   ar
    25     9    10   ar
    26    10    11   ar
    27    11    12   ar
    28    12    13   ar
    29    13     5   ar
    30    23    18    1
    31    13     8   ar
    32    23    19    1
    33    30    25    1
    34     3     4    1
@<TRIPOS>MOLECULE
*****
 30 34 0 0 0
SMALL
GASTEIGER

@<TRIPOS>ATOM
      1 C           4.4404   -0.9146   24.1617 C.2     1  UNL1        0.2651
      2 O           5.3938    0.2243   24.3704 O.2     1  UNL1       -0.2684
      3 N           3.9410   -1.6999   25.3382 N.am    1  UNL1       -0.2996
      4 H           3.3153   -2.4475   25.2013 H       1  UNL1        0.1498
      5 C           3.8406   -2.3164   20.5923 C.ar    1  UNL1        0.1239
      6 N           4.6145   -2.2912   21.8770 N.ar    1  UNL1       -0.2260
      7 C           3.9862   -1.2684   22.7765 C.ar    1  UNL1        0.1517
      8 C           2.8241   -0.6615   22.0478 C.ar    1  UNL1        0.0872
      9 C           1.8362    0.3972   22.4390 C.ar    1  UNL1        0.0193
     10 C           0.7583    0.8082   21.4803 C.ar    1  UNL1        0.0031
     11 C           0.6683    0.1605   20.1304 C.ar    1  UNL1        0.0191
     12 C           1.6562   -0.8982   19.7391 C.ar    1  UNL1        0.0811
     13 N           2.7341   -1.3092   20.6978 N.ar    1  UNL1       -0.2921
     14 C           5.0104   -2.7020   18.3046 C.3     1  UNL1        0.0079
     15 C           4.1235   -3.1947   19.4097 C.3     1  UNL1        0.0573
     16 C           3.5198   -4.5655   19.3319 C.3     1  UNL1        0.0079
     17 C           4.3952   -1.3461   26.7233 C.3     1  UNL1        0.0898
     18 C           3.4889   -0.5735   27.6352 C.3     1  UNL1        0.0224
     19 C           2.5110   -0.5406   28.7721 C.3     1  UNL1        0.0191
     20 C           1.5297   -0.1989   29.8540 C.3     1  UNL1        0.0721
     21 N           1.3093    1.2846   29.8283 N.3     1  UNL1       -0.2727
     22 C           2.1543    1.8598   28.7306 C.3     1  UNL1        0.0721
     23 C           2.8970    0.7318   28.0778 C.3     1  UNL1        0.0191
     24 C           0.4029    2.0571   30.7403 C.3     1  UNL1        0.0722
     25 C           0.9346    2.6209   32.0246 C.3     1  UNL1        0.0210
     26 C           0.4779    3.9691   32.4978 C.3     1  UNL1        0.0335
     27 C           1.0095    4.5329   33.7821 C.3     1  UNL1        0.1422
     28 O           1.9978    3.7486   34.5933 O.3     1  UNL1       -0.3538
     29 C           2.4545    2.4004   34.1201 C.3     1  UNL1        0.1422
     30 C           1.9229    1.8366   32.8358 C.3     1  UNL1        0.0335
@<TRIPOS>BOND
     1    14    15    1
     2    15    16    1
     3    15     5    1
     4     5     6   ar
     5     6     7   ar
     6     7     1    1
     7     1     2    2
     8     1     3   am
     9     3    17    1
    10    18    17    1
    11    18    19    1
    12    19    20    1
    13    20    21    1
    14    21    24    1
    15    24    25    1
    16    25    26    1
    17    26    27    1
    18    27    28    1
    19    28    29    1
    20    29    30    1
    21    21    22    1
    22    23    22    1
    23     7     8   ar
    24     8     9   ar
    25     9    10   ar
    26    10    11   ar
    27    11    12   ar
    28    12    13   ar
    29    13     5   ar
    30    23    18    1
    31    13     8   ar
    32    23    19    1
    33    30    25    1
    34     3     4    1
@<TRIPOS>MOLECULE
*****
 30 34 0 0 0
SMALL
GASTEIGER

@<TRIPOS>ATOM
      1 C           5.9514   -2.5499   27.0816 C.2     1  UNL1        0.2651
      2 O           6.7857   -1.5366   26.3557 O.2     1  UNL1       -0.2684
      3 N           4.4697   -2.3512   27.2055 N.am    1  UNL1       -0.2996
      4 H           3.9220   -3.0163   27.6819 H       1  UNL1        0.1498
      5 C           7.5122   -5.3310   29.2938 C.ar    1  UNL1        0.1239
      6 N           6.8460   -3.9955   29.1443 N.ar    1  UNL1       -0.2260
      7 C           6.5985   -3.7619   27.6835 C.ar    1  UNL1        0.1517
      8 C           7.1118   -4.9531   26.9301 C.ar    1  UNL1        0.0872
      9 C           7.1378   -5.2801   25.4664 C.ar    1  UNL1        0.0193
     10 C           7.7286   -6.5768   24.9980 C.ar    1  UNL1        0.0031
     11 C           8.2934   -7.5466   25.9933 C.ar    1  UNL1        0.0191
     12 C           8.2673   -7.2196   27.4570 C.ar    1  UNL1        0.0811
     13 N           7.6765   -5.9229   27.9253 N.ar    1  UNL1       -0.2921
     14 C           9.2805   -6.6277   30.6875 C.3     1  UNL1        0.0079
     15 C           7.9393   -5.9637   30.5851 C.3     1  UNL1        0.0573
     16 C           7.0253   -5.9325   31.7739 C.3     1  UNL1        0.0079
     17 C           3.8225   -1.1392   26.6037 C.3     1  UNL1        0.0898
     18 C           3.6666   -1.0334   25.1156 C.3     1  UNL1        0.0224
     19 C           2.9807   -0.4413   23.9202 C.3     1  UNL1        0.0191
     20 C           2.4919   -0.0314   22.5626 C.3     1  UNL1        0.0721
     21 N           3.2915   -0.7787   21.5369 N.3     1  UNL1       -0.2727
     22 C           4.2746   -1.6504   22.2605 C.3     1  UNL1        0.0721
     23 C           4.0824   -1.4419   23.7335 C.3     1  UNL1        0.0191
     24 C           3.1355   -0.6727   20.0488 C.3     1  UNL1        0.0722
     25 C           4.2513   -1.1065   19.1449 C.3     1  UNL1        0.0210
     26 C           5.1171   -0.0801   18.4765 C.3     1  UNL1        0.0335
     27 C           6.2329   -0.5139   17.5727 C.3     1  UNL1        0.1422
     28 O           6.4829   -1.9740   17.3373 O.3     1  UNL1       -0.3538
     29 C           5.6171   -3.0004   18.0057 C.3     1  UNL1        0.1422
     30 C           4.5013   -2.5666   18.9096 C.3     1  UNL1        0.0335
@<TRIPOS>BOND
     1    14    15    1
     2    15    16    1
     3    15     5    1
     4     5     6   ar
     5     6     7   ar
     6     7     1    1
     7     1     2    2
     8     1     3   am
     9     3    17    1
    10    18    17    1
    11    18    19    1
    12    19    20    1
    13    20    21    1
    14    21    24    1
    15    24    25    1
    16    25    26    1
    17    26    27    1
    18    27    28    1
    19    28    29    1
    20    29    30    1
    21    21    22    1
    22    23    22    1
    23     7     8   ar
    24     8     9   ar
    25     9    10   ar
    26    10    11   ar
    27    11    12   ar
    28    12    13   ar
    29    13     5   ar
    30    23    18    1
    31    13     8   ar
    32    23    19    1
    33    30    25    1
    34     3     4    1
@<TRIPOS>MOLECULE
*****
 30 34 0 0 0
SMALL
GASTEIGER

@<TRIPOS>ATOM
      1 C           5.2900   -3.3384   21.6082 C.2     1  UNL1        0.2651
      2 O           5.5779   -4.5682   20.7991 O.2     1  UNL1       -0.2684
      3 N           5.9337   -3.1563   22.9508 N.am    1  UNL1       -0.2996
      4 H           5.7447   -2.3492   23.4819 H       1  UNL1        0.1498
      5 C           2.5932   -0.6318   20.9249 C.ar    1  UNL1        0.1239
      6 N           3.2741   -1.5994   21.8470 N.ar    1  UNL1       -0.2260
      7 C           4.3584   -2.2908   21.0747 C.ar    1  UNL1        0.1517
      8 C           4.3476   -1.7505   19.6754 C.ar    1  UNL1        0.0872
      9 C           5.1902   -2.0598   18.4736 C.ar    1  UNL1        0.0193
     10 C           4.9418   -1.3437   17.1792 C.ar    1  UNL1        0.0031
     11 C           3.8509   -0.3184   17.0866 C.ar    1  UNL1        0.0191
     12 C           3.0083   -0.0092   18.2884 C.ar    1  UNL1        0.0811
     13 N           3.2566   -0.7253   19.5828 N.ar    1  UNL1       -0.2921
     14 C           1.5570    1.1843   22.4670 C.3     1  UNL1        0.0079
     15 C           1.4496    0.2707   21.2821 C.3     1  UNL1        0.0573
     16 C           0.1986    0.2597   20.4547 C.3     1  UNL1        0.0079
     17 C           6.8652   -4.2040   23.4842 C.3     1  UNL1        0.0898
     18 C           6.9001   -4.4980   24.9547 C.3     1  UNL1        0.0224
     19 C           6.9950   -4.0196   26.3732 C.3     1  UNL1        0.0191
     20 C           7.0682   -3.8462   27.8614 C.3     1  UNL1        0.0721
     21 N           6.9839   -5.2050   28.4911 N.3     1  UNL1       -0.2727
     22 C           6.8587   -6.2182   27.3921 C.3     1  UNL1        0.0721
     23 C           6.8655   -5.4856   26.0832 C.3     1  UNL1        0.0191
     24 C           7.0187   -5.4989   29.9616 C.3     1  UNL1        0.0722
     25 C           7.4534   -4.4376   30.9284 C.3     1  UNL1        0.0210
     26 C           6.4374   -3.5202   31.5417 C.3     1  UNL1        0.0335
     27 C           6.8721   -2.4589   32.5085 C.3     1  UNL1        0.1422
     28 O           8.3227   -2.3151   32.8621 O.3     1  UNL1       -0.3538
     29 C           9.3386   -3.2325   32.2488 C.3     1  UNL1        0.1422
     30 C           8.9040   -4.2938   31.2820 C.3     1  UNL1        0.0335
@<TRIPOS>BOND
     1    14    15    1
     2    15    16    1
     3    15     5    1
     4     5     6   ar
     5     6     7   ar
     6     7     1    1
     7     1     2    2
     8     1     3   am
     9     3    17    1
    10    18    17    1
    11    18    19    1
    12    19    20    1
    13    20    21    1
    14    21    24    1
    15    24    25    1
    16    25    26    1
    17    26    27    1
    18    27    28    1
    19    28    29    1
    20    29    30    1
    21    21    22    1
    22    23    22    1
    23     7     8   ar
    24     8     9   ar
    25     9    10   ar
    26    10    11   ar
    27    11    12   ar
    28    12    13   ar
    29    13     5   ar
    30    23    18    1
    31    13     8   ar
    32    23    19    1
    33    30    25    1
    34     3     4    1
@<TRIPOS>MOLECULE
*****
 30 34 0 0 0
SMALL
GASTEIGER

@<TRIPOS>ATOM
      1 C           5.1397   -0.8536   28.0261 C.2     1  UNL1        0.2651
      2 O           6.1579   -0.0753   27.2469 O.2     1  UNL1       -0.2684
      3 N           3.7162   -0.9073   27.5560 N.am    1  UNL1       -0.2996
      4 H           3.0478   -1.4181   28.0674 H       1  UNL1        0.1498
      5 C           6.6475   -3.1110   30.8002 C.ar    1  UNL1        0.1239
      6 N           6.5587   -2.6799   29.3662 N.ar    1  UNL1       -0.2260
      7 C           5.5447   -1.5783   29.2754 C.ar    1  UNL1        0.1517
      8 C           5.0069   -1.3285   30.6532 C.ar    1  UNL1        0.0872
      9 C           3.9846   -0.3609   31.1715 C.ar    1  UNL1        0.0193
     10 C           3.6439   -0.3405   32.6321 C.ar    1  UNL1        0.0031
     11 C           4.3255   -1.2878   33.5745 C.ar    1  UNL1        0.0191
     12 C           5.3478   -2.2555   33.0562 C.ar    1  UNL1        0.0811
     13 N           5.6885   -2.2758   31.5956 N.ar    1  UNL1       -0.2921
     14 C           8.9145   -3.8466   31.8345 C.3     1  UNL1        0.0079
     15 C           7.5389   -4.1882   31.3434 C.3     1  UNL1        0.0573
     16 C           7.0548   -5.6069   31.3957 C.3     1  UNL1        0.0079
     17 C           3.3111   -0.1826   26.3067 C.3     1  UNL1        0.0898
     18 C           3.5274   -0.8202   24.9663 C.3     1  UNL1        0.0224
     19 C           3.2685   -0.8591   23.4894 C.3     1  UNL1        0.0191
     20 C           3.1984   -1.1483   22.0191 C.3     1  UNL1        0.0721
     21 N           4.0476   -2.3534   21.7427 N.3     1  UNL1       -0.2727
     22 C           4.6426   -2.8091   23.0421 C.3     1  UNL1        0.0721
     23 C           4.1611   -1.8855   24.1216 C.3     1  UNL1        0.0191
     24 C           4.2639   -2.9910   20.4023 C.3     1  UNL1        0.0722
     25 C           4.7331   -2.1612   19.2441 C.3     1  UNL1        0.0210
     26 C           3.7342   -1.5373   18.3151 C.3     1  UNL1        0.0335
     27 C           4.2034   -0.7076   17.1569 C.3     1  UNL1        0.1422
     28 O           5.6714   -0.5017   16.9277 O.3     1  UNL1       -0.3538
     29 C           6.6702   -1.1256   17.8567 C.3     1  UNL1        0.1422
     30 C           6.2011   -1.9553   19.0149 C.3     1  UNL1        0.0335
@<TRIPOS>BOND
     1    14    15    1
     2    15    16    1
     3    15     5    1
     4     5     6   ar
     5     6     7   ar
     6     7     1    1
     7     1     2    2
     8     1     3   am
     9     3    17    1
    10    18    17    1
    11    18    19    1
    12    19    20    1
    13    20    21    1
    14    21    24    1
    15    24    25    1
    16    25    26    1
    17    26    27    1
    18    27    28    1
    19    28    29    1
    20    29    30    1
    21    21    22    1
    22    23    22    1
    23     7     8   ar
    24     8     9   ar
    25     9    10   ar
    26    10    11   ar
    27    11    12   ar
    28    12    13   ar
    29    13     5   ar
    30    23    18    1
    31    13     8   ar
    32    23    19    1
    33    30    25    1
    34     3     4    1
