@<TRIPOS>MOLECULE
*****
 27 29 0 0 0
SMALL
GASTEIGER

@<TRIPOS>ATOM
      1 C          -6.2823  -17.1222   22.9257 C.ar    1  UNL1        0.0288
      2 C          -7.5410  -17.7056   22.3552 C.ar    1  UNL1        0.0147
      3 C          -7.5311  -19.0894   21.7764 C.ar    1  UNL1        0.0482
      4 C          -6.2624  -19.8898   21.7681 C.ar    1  UNL1        0.0177
      5 C          -5.0038  -19.3064   22.3386 C.ar    1  UNL1        0.0376
      6 C          -5.0138  -17.9225   22.9174 C.ar    1  UNL1        0.1310
      7 O          -3.7551  -17.3391   23.4878 O.3     1  UNL1       -0.5058
      8 H          -2.9627  -17.8391   23.4826 H       1  UNL1        0.2922
      9 N          -8.7897  -19.6728   21.2060 N.pl3   1  UNL1       -0.3125
     10 H          -8.8140  -20.6181   20.9321 H       1  UNL1        0.1522
     11 C         -10.0113  -18.8158   21.0527 C.ar    1  UNL1        0.0513
     12 C         -10.2442  -18.0632   19.7763 C.ar    1  UNL1        0.0353
     13 C         -11.4657  -17.2063   19.6232 C.ar    1  UNL1        0.1001
     14 N         -12.4544  -17.1020   20.7464 N.ar    1  UNL1       -0.2437
     15 C         -12.2215  -17.8547   22.0228 C.ar    1  UNL1        0.0833
     16 C         -13.2102  -17.7504   23.1461 C.ar    1  UNL1        0.0305
     17 C         -12.9773  -18.5030   24.4225 C.ar    1  UNL1        0.0592
     18 CL        -13.9659  -18.3987   25.5457 Cl      1  UNL1       -0.0822
     19 C         -11.7557  -19.3600   24.5757 C.ar    1  UNL1        0.0115
     20 C         -10.7670  -19.4643   23.4524 C.ar    1  UNL1        0.0036
     21 C         -11.0000  -18.7116   22.1760 C.ar    1  UNL1        0.0312
     22 C          -6.2923  -15.7383   23.5045 C.3     1  UNL1        0.1022
     23 N          -6.9239  -15.4893   24.8420 N.3     1  UNL1       -0.2689
     24 C          -6.7084  -15.6667   27.4251 C.3     1  UNL1        0.0188
     25 C          -6.0762  -15.4680   26.0793 C.3     1  UNL1        0.0724
     26 C          -8.4031  -15.2617   24.9422 C.3     1  UNL1        0.0724
     27 C          -9.3445  -16.4294   24.9257 C.3     1  UNL1        0.0188
@<TRIPOS>BOND
     1    24    25    1
     2    25    23    1
     3    23    26    1
     4    26    27    1
     5    23    22    1
     6    22     1    1
     7     1     2   ar
     8     2     3   ar
     9     3     9    1
    10     9    11    1
    11    11    12   ar
    12    12    13   ar
    13    13    14   ar
    14    14    15   ar
    15    15    16   ar
    16    16    17   ar
    17    17    18    1
    18    17    19   ar
    19    19    20   ar
    20    20    21   ar
    21     3     4   ar
    22     4     5   ar
    23     5     6   ar
    24     6     7    1
    25     6     1   ar
    26    21    11   ar
    27    21    15   ar
    28     9    10    1
    29     7     8    1
@<TRIPOS>MOLECULE
*****
 27 29 0 0 0
SMALL
GASTEIGER

@<TRIPOS>ATOM
      1 C          -4.1510  -19.0184   22.0420 C.ar    1  UNL1        0.0288
      2 C          -5.5600  -19.1363   22.5430 C.ar    1  UNL1        0.0147
      3 C          -6.5343  -20.0322   21.8374 C.ar    1  UNL1        0.0482
      4 C          -6.0998  -20.8103   20.6308 C.ar    1  UNL1        0.0177
      5 C          -4.6909  -20.6923   20.1297 C.ar    1  UNL1        0.0376
      6 C          -3.7165  -19.7963   20.8354 C.ar    1  UNL1        0.1310
      7 O          -2.3076  -19.6784   20.3343 O.3     1  UNL1       -0.5058
      8 H          -2.0362  -20.1643   19.5806 H       1  UNL1        0.2922
      9 N          -7.9433  -20.1502   22.3385 N.pl3   1  UNL1       -0.3125
     10 H          -8.1300  -20.6400   23.1718 H       1  UNL1        0.1522
     11 C          -9.0677  -19.5218   21.5698 C.ar    1  UNL1        0.0513
     12 C          -8.9412  -19.3159   20.0894 C.ar    1  UNL1        0.0353
     13 C         -10.0656  -18.6875   19.3208 C.ar    1  UNL1        0.1001
     14 N         -11.3165  -18.2650   20.0326 N.ar    1  UNL1       -0.2437
     15 C         -11.4431  -18.4708   21.5130 C.ar    1  UNL1        0.0833
     16 C         -12.6940  -18.0483   22.2248 C.ar    1  UNL1        0.0305
     17 C         -12.8205  -18.2541   23.7052 C.ar    1  UNL1        0.0592
     18 CL        -14.0714  -17.8316   24.4170 Cl      1  UNL1       -0.0822
     19 C         -11.6960  -18.8825   24.4739 C.ar    1  UNL1        0.0115
     20 C         -10.4451  -19.3051   23.7621 C.ar    1  UNL1        0.0036
     21 C         -10.3186  -19.0992   22.2816 C.ar    1  UNL1        0.0312
     22 C          -3.1766  -18.1224   22.7476 C.3     1  UNL1        0.1022
     23 N          -3.2801  -16.6338   22.5947 N.3     1  UNL1       -0.2689
     24 C          -1.3131  -16.5851   20.8979 C.3     1  UNL1        0.0188
     25 C          -2.2022  -15.8770   21.8768 C.3     1  UNL1        0.0724
     26 C          -4.4614  -15.9021   23.1595 C.3     1  UNL1        0.0724
     27 C          -4.8503  -16.1003   24.5946 C.3     1  UNL1        0.0188
@<TRIPOS>BOND
     1    24    25    1
     2    25    23    1
     3    23    26    1
     4    26    27    1
     5    23    22    1
     6    22     1    1
     7     1     2   ar
     8     2     3   ar
     9     3     9    1
    10     9    11    1
    11    11    12   ar
    12    12    13   ar
    13    13    14   ar
    14    14    15   ar
    15    15    16   ar
    16    16    17   ar
    17    17    18    1
    18    17    19   ar
    19    19    20   ar
    20    20    21   ar
    21     3     4   ar
    22     4     5   ar
    23     5     6   ar
    24     6     7    1
    25     6     1   ar
    26    21    11   ar
    27    21    15   ar
    28     9    10    1
    29     7     8    1
@<TRIPOS>MOLECULE
*****
 27 29 0 0 0
SMALL
GASTEIGER

@<TRIPOS>ATOM
      1 C          -4.7723  -16.9612   23.1085 C.ar    1  UNL1        0.0288
      2 C          -5.9895  -17.8320   23.0086 C.ar    1  UNL1        0.0147
      3 C          -5.8890  -19.1931   22.3864 C.ar    1  UNL1        0.0482
      4 C          -4.5711  -19.6836   21.8641 C.ar    1  UNL1        0.0177
      5 C          -3.3538  -18.8128   21.9640 C.ar    1  UNL1        0.0376
      6 C          -3.4544  -17.4516   22.5862 C.ar    1  UNL1        0.1310
      7 O          -2.2372  -16.5808   22.6861 O.3     1  UNL1       -0.5058
      8 H          -1.4139  -16.8871   22.3599 H       1  UNL1        0.2922
      9 N          -7.1062  -20.0639   22.2865 N.pl3   1  UNL1       -0.3125
     10 H          -7.1648  -20.8909   22.8175 H       1  UNL1        0.1522
     11 C          -8.2343  -19.6747   21.3777 C.ar    1  UNL1        0.0513
     12 C          -8.0495  -19.7225   19.8899 C.ar    1  UNL1        0.0353
     13 C          -9.1775  -19.3332   18.9811 C.ar    1  UNL1        0.1001
     14 N         -10.4904  -18.8962   19.5601 N.ar    1  UNL1       -0.2437
     15 C         -10.6753  -18.8483   21.0479 C.ar    1  UNL1        0.0833
     16 C         -11.9882  -18.4113   21.6268 C.ar    1  UNL1        0.0305
     17 C         -12.1731  -18.3635   23.1146 C.ar    1  UNL1        0.0592
     18 CL        -13.4860  -17.9264   23.6936 Cl      1  UNL1       -0.0822
     19 C         -11.0450  -18.7528   24.0235 C.ar    1  UNL1        0.0115
     20 C          -9.7321  -19.1898   23.4445 C.ar    1  UNL1        0.0036
     21 C          -9.5472  -19.2376   21.9566 C.ar    1  UNL1        0.0312
     22 C          -4.8729  -15.6000   23.7307 C.3     1  UNL1        0.1022
     23 N          -5.9317  -15.3203   24.7556 N.3     1  UNL1       -0.2689
     24 C          -8.4569  -15.7655   24.3372 C.3     1  UNL1        0.0188
     25 C          -7.2828  -14.8320   24.3242 C.3     1  UNL1        0.0724
     26 C          -5.6394  -15.5288   26.2120 C.3     1  UNL1        0.0724
     27 C          -6.7578  -15.5117   27.2114 C.3     1  UNL1        0.0188
@<TRIPOS>BOND
     1    24    25    1
     2    25    23    1
     3    23    26    1
     4    26    27    1
     5    23    22    1
     6    22     1    1
     7     1     2   ar
     8     2     3   ar
     9     3     9    1
    10     9    11    1
    11    11    12   ar
    12    12    13   ar
    13    13    14   ar
    14    14    15   ar
    15    15    16   ar
    16    16    17   ar
    17    17    18    1
    18    17    19   ar
    19    19    20   ar
    20    20    21   ar
    21     3     4   ar
    22     4     5   ar
    23     5     6   ar
    24     6     7    1
    25     6     1   ar
    26    21    11   ar
    27    21    15   ar
    28     9    10    1
    29     7     8    1
@<TRIPOS>MOLECULE
*****
 27 29 0 0 0
SMALL
GASTEIGER

@<TRIPOS>ATOM
      1 C          -4.7049  -19.5104   21.6818 C.ar    1  UNL1        0.0288
      2 C          -5.6469  -18.7379   22.5570 C.ar    1  UNL1        0.0147
      3 C          -7.1102  -18.6956   22.2302 C.ar    1  UNL1        0.0482
      4 C          -7.6316  -19.4259   21.0280 C.ar    1  UNL1        0.0177
      5 C          -6.6897  -20.1983   20.1528 C.ar    1  UNL1        0.0376
      6 C          -5.2263  -20.2406   20.4798 C.ar    1  UNL1        0.1310
      7 O          -4.2843  -21.0131   19.6046 O.3     1  UNL1       -0.5058
      8 H          -4.6100  -21.4692   18.8537 H       1  UNL1        0.2922
      9 N          -8.0522  -17.9232   23.1054 N.pl3   1  UNL1       -0.3125
     10 H          -7.8811  -17.8543   24.0724 H       1  UNL1        0.1522
     11 C          -9.2549  -17.2556   22.5071 C.ar    1  UNL1        0.0513
     12 C          -9.0876  -16.2749   21.3844 C.ar    1  UNL1        0.0353
     13 C         -10.2902  -15.6074   20.7862 C.ar    1  UNL1        0.1001
     14 N         -11.6603  -15.9205   21.3106 N.ar    1  UNL1       -0.2437
     15 C         -11.8276  -16.9011   22.4332 C.ar    1  UNL1        0.0833
     16 C         -13.1976  -17.2142   22.9576 C.ar    1  UNL1        0.0305
     17 C         -13.3650  -18.1948   24.0802 C.ar    1  UNL1        0.0592
     18 CL        -14.7350  -18.5079   24.6046 Cl      1  UNL1       -0.0822
     19 C         -12.1623  -18.8624   24.6785 C.ar    1  UNL1        0.0115
     20 C         -10.7923  -18.5493   24.1541 C.ar    1  UNL1        0.0036
     21 C         -10.6249  -17.5687   23.0315 C.ar    1  UNL1        0.0312
     22 C          -3.2416  -19.5527   22.0087 C.3     1  UNL1        0.1022
     23 N          -2.3375  -18.4488   21.5460 N.3     1  UNL1       -0.2689
     24 C          -1.8776  -15.8938   21.6486 C.3     1  UNL1        0.0188
     25 C          -2.2428  -17.1766   22.3350 C.3     1  UNL1        0.0724
     26 C          -1.5282  -18.6171   20.2944 C.3     1  UNL1        0.0724
     27 C          -2.0846  -18.1687   18.9755 C.3     1  UNL1        0.0188
@<TRIPOS>BOND
     1    24    25    1
     2    25    23    1
     3    23    26    1
     4    26    27    1
     5    23    22    1
     6    22     1    1
     7     1     2   ar
     8     2     3   ar
     9     3     9    1
    10     9    11    1
    11    11    12   ar
    12    12    13   ar
    13    13    14   ar
    14    14    15   ar
    15    15    16   ar
    16    16    17   ar
    17    17    18    1
    18    17    19   ar
    19    19    20   ar
    20    20    21   ar
    21     3     4   ar
    22     4     5   ar
    23     5     6   ar
    24     6     7    1
    25     6     1   ar
    26    21    11   ar
    27    21    15   ar
    28     9    10    1
    29     7     8    1
@<TRIPOS>MOLECULE
*****
 27 29 0 0 0
SMALL
GASTEIGER

@<TRIPOS>ATOM
      1 C          -3.9068  -19.0091   19.8948 C.ar    1  UNL1        0.0288
      2 C          -5.3124  -18.6405   19.5226 C.ar    1  UNL1        0.0147
      3 C          -6.4685  -19.2775   20.2350 C.ar    1  UNL1        0.0482
      4 C          -6.2191  -20.2831   21.3197 C.ar    1  UNL1        0.0177
      5 C          -4.8136  -20.6517   21.6920 C.ar    1  UNL1        0.0376
      6 C          -3.6574  -20.0147   20.9795 C.ar    1  UNL1        0.1310
      7 O          -2.2518  -20.3832   21.3518 O.3     1  UNL1       -0.5058
      8 H          -2.0960  -21.0114   22.0294 H       1  UNL1        0.2922
      9 N          -7.8740  -18.9089   19.8627 N.pl3   1  UNL1       -0.3125
     10 H          -8.0852  -18.6445   18.9382 H       1  UNL1        0.1522
     11 C          -8.9579  -18.9433   20.8991 C.ar    1  UNL1        0.0513
     12 C         -10.1367  -19.8537   20.7216 C.ar    1  UNL1        0.0353
     13 C         -11.2206  -19.8880   21.7580 C.ar    1  UNL1        0.1001
     14 N         -11.1256  -19.0119   22.9718 N.ar    1  UNL1       -0.2437
     15 C          -9.9468  -18.1015   23.1493 C.ar    1  UNL1        0.0833
     16 C          -9.8518  -17.2254   24.3631 C.ar    1  UNL1        0.0305
     17 C          -8.6730  -16.3149   24.5406 C.ar    1  UNL1        0.0592
     18 CL         -8.5781  -15.4388   25.7545 Cl      1  UNL1       -0.0822
     19 C          -7.5891  -16.2806   23.5042 C.ar    1  UNL1        0.0115
     20 C          -7.6841  -17.1567   22.2904 C.ar    1  UNL1        0.0036
     21 C          -8.8630  -18.0672   22.1129 C.ar    1  UNL1        0.0312
     22 C          -2.7507  -18.3720   19.1824 C.3     1  UNL1        0.1022
     23 N          -1.6485  -17.7267   19.9689 N.3     1  UNL1       -0.2689
     24 C           0.9077  -17.3090   20.1725 C.3     1  UNL1        0.0188
     25 C          -0.2370  -18.2117   19.8191 C.3     1  UNL1        0.0724
     26 C          -1.9578  -16.5964   20.9052 C.3     1  UNL1        0.0724
     27 C          -2.3703  -16.8845   22.3183 C.3     1  UNL1        0.0188
@<TRIPOS>BOND
     1    24    25    1
     2    25    23    1
     3    23    26    1
     4    26    27    1
     5    23    22    1
     6    22     1    1
     7     1     2   ar
     8     2     3   ar
     9     3     9    1
    10     9    11    1
    11    11    12   ar
    12    12    13   ar
    13    13    14   ar
    14    14    15   ar
    15    15    16   ar
    16    16    17   ar
    17    17    18    1
    18    17    19   ar
    19    19    20   ar
    20    20    21   ar
    21     3     4   ar
    22     4     5   ar
    23     5     6   ar
    24     6     7    1
    25     6     1   ar
    26    21    11   ar
    27    21    15   ar
    28     9    10    1
    29     7     8    1
@<TRIPOS>MOLECULE
*****
 27 29 0 0 0
SMALL
GASTEIGER

@<TRIPOS>ATOM
      1 C         -11.3441   -6.0262   17.1228 C.ar    1  UNL1        0.0288
      2 C         -11.2748   -4.5776   17.5058 C.ar    1  UNL1        0.0147
      3 C         -10.3643   -4.1375   18.6136 C.ar    1  UNL1        0.0482
      4 C          -9.5231   -5.1460   19.3384 C.ar    1  UNL1        0.0177
      5 C          -9.5924   -6.5946   18.9554 C.ar    1  UNL1        0.0376
      6 C         -10.5030   -7.0347   17.8475 C.ar    1  UNL1        0.1310
      7 O         -10.5723   -8.4833   17.4645 O.3     1  UNL1       -0.5058
      8 H         -10.0469   -9.1133   17.9173 H       1  UNL1        0.2922
      9 N         -10.2950   -2.6889   18.9966 N.pl3   1  UNL1       -0.3125
     10 H          -9.6505   -2.3902   19.6782 H       1  UNL1        0.1522
     11 C         -11.2078   -1.6952   18.3410 C.ar    1  UNL1        0.0513
     12 C         -10.6785   -0.7771   17.2795 C.ar    1  UNL1        0.0353
     13 C         -11.5913    0.2164   16.6240 C.ar    1  UNL1        0.1001
     14 N         -13.0333    0.2918   17.0300 N.ar    1  UNL1       -0.2437
     15 C         -13.5626   -0.6263   18.0915 C.ar    1  UNL1        0.0833
     16 C         -15.0046   -0.5509   18.4975 C.ar    1  UNL1        0.0305
     17 C         -15.5339   -1.4691   19.5590 C.ar    1  UNL1        0.0592
     18 CL        -16.9759   -1.3937   19.9651 Cl      1  UNL1       -0.0822
     19 C         -14.6211   -2.4627   20.2146 C.ar    1  UNL1        0.0115
     20 C         -13.1791   -2.5381   19.8086 C.ar    1  UNL1        0.0036
     21 C         -12.6498   -1.6199   18.7470 C.ar    1  UNL1        0.0312
     22 C         -12.2547   -6.4663   16.0149 C.3     1  UNL1        0.1022
     23 N         -13.7124   -6.6921   16.2871 N.3     1  UNL1       -0.2689
     24 C         -15.0176   -4.6143   17.1412 C.3     1  UNL1        0.0188
     25 C         -14.6999   -5.5891   16.0461 C.3     1  UNL1        0.0724
     26 C         -14.1825   -8.0208   16.8003 C.3     1  UNL1        0.0724
     27 C         -14.1583   -8.3074   18.2725 C.3     1  UNL1        0.0188
@<TRIPOS>BOND
     1    24    25    1
     2    25    23    1
     3    23    26    1
     4    26    27    1
     5    23    22    1
     6    22     1    1
     7     1     2   ar
     8     2     3   ar
     9     3     9    1
    10     9    11    1
    11    11    12   ar
    12    12    13   ar
    13    13    14   ar
    14    14    15   ar
    15    15    16   ar
    16    16    17   ar
    17    17    18    1
    18    17    19   ar
    19    19    20   ar
    20    20    21   ar
    21     3     4   ar
    22     4     5   ar
    23     5     6   ar
    24     6     7    1
    25     6     1   ar
    26    21    11   ar
    27    21    15   ar
    28     9    10    1
    29     7     8    1
@<TRIPOS>MOLECULE
*****
 27 29 0 0 0
SMALL
GASTEIGER

@<TRIPOS>ATOM
      1 C         -11.4895   -6.6521   17.8467 C.ar    1  UNL1        0.0288
      2 C         -11.6762   -5.1900   18.1249 C.ar    1  UNL1        0.0147
      3 C         -10.6086   -4.4214   18.8457 C.ar    1  UNL1        0.0482
      4 C          -9.3544   -5.1150   19.2884 C.ar    1  UNL1        0.0177
      5 C          -9.1677   -6.5771   19.0102 C.ar    1  UNL1        0.0376
      6 C         -10.2354   -7.3456   18.2893 C.ar    1  UNL1        0.1310
      7 O         -10.0487   -8.8078   18.0112 O.3     1  UNL1       -0.5058
      8 H          -9.2653   -9.2410   18.2877 H       1  UNL1        0.2922
      9 N         -10.7953   -2.9593   19.1239 N.pl3   1  UNL1       -0.3125
     10 H         -10.0105   -2.3754   19.2355 H       1  UNL1        0.1522
     11 C         -12.1776   -2.3869   19.2320 C.ar    1  UNL1        0.0513
     12 C         -13.2097   -3.0735   20.0764 C.ar    1  UNL1        0.0353
     13 C         -14.5920   -2.5011   20.1845 C.ar    1  UNL1        0.1001
     14 N         -14.9420   -1.2420   19.4482 N.ar    1  UNL1       -0.2437
     15 C         -13.9099   -0.5554   18.6038 C.ar    1  UNL1        0.0833
     16 C         -14.2599    0.7037   17.8674 C.ar    1  UNL1        0.0305
     17 C         -13.2277    1.3904   17.0230 C.ar    1  UNL1        0.0592
     18 CL        -13.5778    2.6494   16.2867 Cl      1  UNL1       -0.0822
     19 C         -11.8454    0.8179   16.9149 C.ar    1  UNL1        0.0115
     20 C         -11.4954   -0.4411   17.6512 C.ar    1  UNL1        0.0036
     21 C         -12.5276   -1.1278   18.4957 C.ar    1  UNL1        0.0312
     22 C         -12.5572   -7.4206   17.1259 C.3     1  UNL1        0.1022
     23 N         -13.8851   -7.6558   17.7826 N.3     1  UNL1       -0.2689
     24 C         -15.3179   -9.8149   17.9710 C.3     1  UNL1        0.0188
     25 C         -14.8581   -8.6257   17.1807 C.3     1  UNL1        0.0724
     26 C         -14.2399   -6.9210   19.0412 C.3     1  UNL1        0.0724
     27 C         -15.5254   -6.1525   19.1240 C.3     1  UNL1        0.0188
@<TRIPOS>BOND
     1    24    25    1
     2    25    23    1
     3    23    26    1
     4    26    27    1
     5    23    22    1
     6    22     1    1
     7     1     2   ar
     8     2     3   ar
     9     3     9    1
    10     9    11    1
    11    11    12   ar
    12    12    13   ar
    13    13    14   ar
    14    14    15   ar
    15    15    16   ar
    16    16    17   ar
    17    17    18    1
    18    17    19   ar
    19    19    20   ar
    20    20    21   ar
    21     3     4   ar
    22     4     5   ar
    23     5     6   ar
    24     6     7    1
    25     6     1   ar
    26    21    11   ar
    27    21    15   ar
    28     9    10    1
    29     7     8    1
@<TRIPOS>MOLECULE
*****
 27 29 0 0 0
SMALL
GASTEIGER

@<TRIPOS>ATOM
      1 C         -11.5950   -4.5401   18.0150 C.ar    1  UNL1        0.0288
      2 C         -12.7910   -5.0768   18.7441 C.ar    1  UNL1        0.0147
      3 C         -13.5534   -4.1936   19.6866 C.ar    1  UNL1        0.0482
      4 C         -13.1200   -2.7735   19.9002 C.ar    1  UNL1        0.0177
      5 C         -11.9240   -2.2367   19.1711 C.ar    1  UNL1        0.0376
      6 C         -11.1615   -3.1201   18.2285 C.ar    1  UNL1        0.1310
      7 O          -9.9656   -2.5833   17.4994 O.3     1  UNL1       -0.5058
      8 H          -9.6948   -1.6962   17.6328 H       1  UNL1        0.2922
      9 N         -14.7494   -4.7304   20.4157 N.pl3   1  UNL1       -0.3125
     10 H         -14.6768   -4.9771   21.3660 H       1  UNL1        0.1522
     11 C         -16.0561   -4.8912   19.6968 C.ar    1  UNL1        0.0513
     12 C         -16.9048   -3.6893   19.4056 C.ar    1  UNL1        0.0353
     13 C         -18.2114   -3.8502   18.6867 C.ar    1  UNL1        0.1001
     14 N         -18.6694   -5.2131   18.2591 N.ar    1  UNL1       -0.2437
     15 C         -17.8206   -6.4151   18.5504 C.ar    1  UNL1        0.0833
     16 C         -18.2785   -7.7780   18.1228 C.ar    1  UNL1        0.0305
     17 C         -17.4298   -8.9799   18.4140 C.ar    1  UNL1        0.0592
     18 CL        -17.8877  -10.3428   17.9864 Cl      1  UNL1       -0.0822
     19 C         -16.1231   -8.8191   19.1329 C.ar    1  UNL1        0.0115
     20 C         -15.6652   -7.4562   19.5605 C.ar    1  UNL1        0.0036
     21 C         -16.5140   -6.2541   19.2692 C.ar    1  UNL1        0.0312
     22 C         -10.8325   -5.4234   17.0724 C.3     1  UNL1        0.1022
     23 N         -11.1834   -6.8772   16.9574 N.3     1  UNL1       -0.2689
     24 C          -9.5474   -7.4479   18.8932 C.3     1  UNL1        0.0188
     25 C         -10.4478   -7.8936   17.7793 C.3     1  UNL1        0.0724
     26 C         -12.2701   -7.3146   16.0204 C.3     1  UNL1        0.0724
     27 C         -13.5179   -7.9467   16.5619 C.3     1  UNL1        0.0188
@<TRIPOS>BOND
     1    24    25    1
     2    25    23    1
     3    23    26    1
     4    26    27    1
     5    23    22    1
     6    22     1    1
     7     1     2   ar
     8     2     3   ar
     9     3     9    1
    10     9    11    1
    11    11    12   ar
    12    12    13   ar
    13    13    14   ar
    14    14    15   ar
    15    15    16   ar
    16    16    17   ar
    17    17    18    1
    18    17    19   ar
    19    19    20   ar
    20    20    21   ar
    21     3     4   ar
    22     4     5   ar
    23     5     6   ar
    24     6     7    1
    25     6     1   ar
    26    21    11   ar
    27    21    15   ar
    28     9    10    1
    29     7     8    1
@<TRIPOS>MOLECULE
*****
 27 29 0 0 0
SMALL
GASTEIGER

@<TRIPOS>ATOM
      1 C         -16.8793   -6.6811   18.4398 C.ar    1  UNL1        0.0288
      2 C         -15.4540   -6.6906   18.9071 C.ar    1  UNL1        0.0147
      3 C         -14.9271   -5.5530   19.7306 C.ar    1  UNL1        0.0482
      4 C         -15.8256   -4.4058   20.0869 C.ar    1  UNL1        0.0177
      5 C         -17.2509   -4.3963   19.6196 C.ar    1  UNL1        0.0376
      6 C         -17.7778   -5.5340   18.7960 C.ar    1  UNL1        0.1310
      7 O         -19.2031   -5.5246   18.3287 O.3     1  UNL1       -0.5058
      8 H         -19.7643   -4.8080   18.5512 H       1  UNL1        0.2922
      9 N         -13.5018   -5.5624   20.1979 N.pl3   1  UNL1       -0.3125
     10 H         -13.2997   -5.5955   21.1609 H       1  UNL1        0.1522
     11 C         -12.3844   -5.5215   19.1980 C.ar    1  UNL1        0.0513
     12 C         -11.7599   -6.7982   18.7185 C.ar    1  UNL1        0.0353
     13 C         -10.6425   -6.7572   17.7187 C.ar    1  UNL1        0.1001
     14 N         -10.1497   -5.4396   17.1982 N.ar    1  UNL1       -0.2437
     15 C         -10.7743   -4.1629   17.6776 C.ar    1  UNL1        0.0833
     16 C         -10.2815   -2.8452   17.1572 C.ar    1  UNL1        0.0305
     17 C         -10.9061   -1.5685   17.6366 C.ar    1  UNL1        0.0592
     18 CL        -10.4133   -0.2508   17.1161 Cl      1  UNL1       -0.0822
     19 C         -12.0235   -1.6094   18.6365 C.ar    1  UNL1        0.0115
     20 C         -12.5162   -2.9271   19.1570 C.ar    1  UNL1        0.0036
     21 C         -11.8916   -4.2038   18.6775 C.ar    1  UNL1        0.0312
     22 C         -17.4062   -7.8188   17.6163 C.3     1  UNL1        0.1022
     23 N         -17.7114   -9.1362   18.2653 N.3     1  UNL1       -0.2689
     24 C         -16.9670  -11.5248   18.9656 C.3     1  UNL1        0.0188
     25 C         -16.6780  -10.2233   18.2780 C.3     1  UNL1        0.0724
     26 C         -19.0501   -9.3664   18.9017 C.3     1  UNL1        0.0724
     27 C         -19.4168   -8.6390   20.1612 C.3     1  UNL1        0.0188
@<TRIPOS>BOND
     1    24    25    1
     2    25    23    1
     3    23    26    1
     4    26    27    1
     5    23    22    1
     6    22     1    1
     7     1     2   ar
     8     2     3   ar
     9     3     9    1
    10     9    11    1
    11    11    12   ar
    12    12    13   ar
    13    13    14   ar
    14    14    15   ar
    15    15    16   ar
    16    16    17   ar
    17    17    18    1
    18    17    19   ar
    19    19    20   ar
    20    20    21   ar
    21     3     4   ar
    22     4     5   ar
    23     5     6   ar
    24     6     7    1
    25     6     1   ar
    26    21    11   ar
    27    21    15   ar
    28     9    10    1
    29     7     8    1
