@<TRIPOS>MOLECULE
*****
 19 21 0 0 0
SMALL
GASTEIGER

@<TRIPOS>ATOM
      1 C          -9.2322  -18.3409   21.5212 C.3     1  UNL1        0.1160
      2 C          -8.4446  -19.5318   21.9812 C.3     1  UNL1        0.0205
      3 S          -8.2460  -17.5677   22.3455 S.3     1  UNL1       -0.0756
      4 C          -8.5958  -16.1127   22.2427 C.2     1  UNL1        0.1479
      5 N          -9.7983  -15.9867   21.3549 N.am    1  UNL1       -0.1581
      6 C         -10.1916  -17.3639   20.9090 C.2     1  UNL1        0.2558
      7 O         -11.3422  -17.7041   20.0088 O.2     1  UNL1       -0.2721
      8 C          -9.7373  -19.7018   19.3665 C.3     1  UNL1        0.0013
      9 C         -10.0538  -19.3631   20.7931 C.3     1  UNL1        0.0179
     10 C         -11.1918  -20.0466   21.4915 C.3     1  UNL1        0.0013
     11 N          -7.8705  -14.9822   22.9105 N.pl3   1  UNL1       -0.3167
     12 H          -7.7325  -14.1340   22.4303 H       1  UNL1        0.1484
     13 C          -7.3556  -15.1442   24.3101 C.3     1  UNL1        0.0706
     14 C          -5.9140  -15.1434   24.7248 C.3     1  UNL1        0.0195
     15 C          -5.8594  -15.3341   26.2116 C.3     1  UNL1        0.0017
     16 C          -6.6956  -15.5253   27.4422 C.3     1  UNL1        0.0001
     17 C          -8.1371  -15.5260   27.0274 C.3     1  UNL1        0.0016
     18 C          -8.1918  -15.3353   25.5406 C.3     1  UNL1        0.0180
     19 C          -6.7841  -15.2167   25.0364 C.3     1  UNL1        0.0017
@<TRIPOS>BOND
     1     8     9    1
     2     9    10    1
     3     9     1    1
     4     1     2    1
     5     1     3    1
     6     3     4    1
     7     4    11    1
     8    13    11    1
     9    13    14    1
    10    15    14    1
    11    15    16    1
    12    16    17    1
    13    18    17    1
    14    18    19    1
    15     4     5    2
    16     5     6    1
    17     6     7    2
    18     6     1    1
    19    18    13    1
    20    19    15    1
    21    11    12    1
@<TRIPOS>MOLECULE
*****
 19 21 0 0 0
SMALL
GASTEIGER

@<TRIPOS>ATOM
      1 C         -10.6338  -17.8734   21.7918 C.3     1  UNL1        0.1160
      2 C         -11.9285  -18.5942   22.0248 C.3     1  UNL1        0.0205
      3 S         -10.0158  -19.1798   22.1935 S.3     1  UNL1       -0.0756
      4 C          -8.5250  -19.0247   22.1350 C.2     1  UNL1        0.1479
      5 N          -8.2217  -17.6225   21.6971 N.am    1  UNL1       -0.1581
      6 C          -9.5250  -16.9110   21.4850 C.2     1  UNL1        0.2558
      7 O          -9.6904  -15.4869   21.0436 O.2     1  UNL1       -0.2721
      8 C         -12.1260  -15.8768   22.5244 C.3     1  UNL1        0.0013
      9 C         -11.5225  -16.7177   21.4388 C.3     1  UNL1        0.0179
     10 C         -11.8076  -16.4030   20.0001 C.3     1  UNL1        0.0013
     11 N          -7.5149  -20.0857   22.4577 N.pl3   1  UNL1       -0.3167
     12 H          -7.7169  -20.7666   23.1396 H       1  UNL1        0.1484
     13 C          -6.1971  -20.1093   21.7416 C.3     1  UNL1        0.0706
     14 C          -5.9175  -20.7845   20.4316 C.3     1  UNL1        0.0195
     15 C          -4.4752  -20.5543   20.0901 C.3     1  UNL1        0.0017
     16 C          -3.2056  -19.9068   20.5581 C.3     1  UNL1        0.0001
     17 C          -3.4852  -19.2317   21.8680 C.3     1  UNL1        0.0016
     18 C          -4.9276  -19.4618   22.2096 C.3     1  UNL1        0.0180
     19 C          -5.5394  -20.2793   21.1107 C.3     1  UNL1        0.0017
@<TRIPOS>BOND
     1     8     9    1
     2     9    10    1
     3     9     1    1
     4     1     2    1
     5     1     3    1
     6     3     4    1
     7     4    11    1
     8    13    11    1
     9    13    14    1
    10    15    14    1
    11    15    16    1
    12    16    17    1
    13    18    17    1
    14    18    19    1
    15     4     5    2
    16     5     6    1
    17     6     7    2
    18     6     1    1
    19    18    13    1
    20    19    15    1
    21    11    12    1
@<TRIPOS>MOLECULE
*****
 19 21 0 0 0
SMALL
GASTEIGER

@<TRIPOS>ATOM
      1 C          -8.4763  -19.0020   22.5182 C.3     1  UNL1        0.1160
      2 C          -9.0376  -20.0067   23.4803 C.3     1  UNL1        0.0205
      3 S          -7.4461  -20.0607   22.2580 S.3     1  UNL1       -0.0756
      4 C          -6.4880  -19.5329   21.2317 C.2     1  UNL1        0.1479
      5 N          -6.9262  -18.1480   20.8575 N.am    1  UNL1       -0.1581
      6 C          -8.1550  -17.8199   21.6527 C.2     1  UNL1        0.2558
      7 O          -8.9270  -16.5351   21.5927 O.2     1  UNL1       -0.2721
      8 C         -10.9489  -18.2402   22.2818 C.3     1  UNL1        0.0013
      9 C          -9.6239  -18.1533   22.9795 C.3     1  UNL1        0.0179
     10 C          -9.4465  -17.2178   24.1386 C.3     1  UNL1        0.0013
     11 N          -5.3003  -20.2621   20.6769 N.pl3   1  UNL1       -0.3167
     12 H          -5.3920  -21.1949   20.3757 H       1  UNL1        0.1484
     13 C          -3.9730  -19.5699   20.5810 C.3     1  UNL1        0.0706
     14 C          -2.8570  -19.6610   21.5792 C.3     1  UNL1        0.0195
     15 C          -1.7229  -18.8126   21.0851 C.3     1  UNL1        0.0017
     16 C          -1.2786  -17.9078   19.9743 C.3     1  UNL1        0.0001
     17 C          -2.3946  -17.8167   18.9762 C.3     1  UNL1        0.0016
     18 C          -3.5287  -18.6652   19.4701 C.3     1  UNL1        0.0180
     19 C          -3.1135  -19.2806   20.7736 C.3     1  UNL1        0.0017
@<TRIPOS>BOND
     1     8     9    1
     2     9    10    1
     3     9     1    1
     4     1     2    1
     5     1     3    1
     6     3     4    1
     7     4    11    1
     8    13    11    1
     9    13    14    1
    10    15    14    1
    11    15    16    1
    12    16    17    1
    13    18    17    1
    14    18    19    1
    15     4     5    2
    16     5     6    1
    17     6     7    2
    18     6     1    1
    19    18    13    1
    20    19    15    1
    21    11    12    1
@<TRIPOS>MOLECULE
*****
 19 21 0 0 0
SMALL
GASTEIGER

@<TRIPOS>ATOM
      1 C          -9.6613  -18.4286   22.5361 C.3     1  UNL1        0.1160
      2 C         -10.3044  -19.0350   23.7480 C.3     1  UNL1        0.0205
      3 S          -8.4847  -18.2424   23.4476 S.3     1  UNL1       -0.0756
      4 C          -7.3886  -17.5864   22.6616 C.2     1  UNL1        0.1479
      5 N          -7.8877  -17.3671   21.2642 N.am    1  UNL1       -0.1581
      6 C          -9.2924  -17.8876   21.1866 C.2     1  UNL1        0.2558
      7 O         -10.1733  -17.8701   19.9727 O.2     1  UNL1       -0.2721
      8 C         -12.1241  -17.7896   22.0102 C.3     1  UNL1        0.0013
      9 C         -10.9724  -18.7415   21.8779 C.3     1  UNL1        0.0179
     10 C         -11.1317  -20.0063   21.0873 C.3     1  UNL1        0.0013
     11 N          -6.0315  -17.2149   23.1816 N.pl3   1  UNL1       -0.3167
     12 H          -5.9404  -16.5015   23.8539 H       1  UNL1        0.1484
     13 C          -4.8134  -17.9303   22.6773 C.3     1  UNL1        0.0706
     14 C          -3.3976  -17.6624   23.0945 C.3     1  UNL1        0.0195
     15 C          -2.5064  -18.6058   22.3422 C.3     1  UNL1        0.0017
     16 C          -2.4901  -19.7147   21.3322 C.3     1  UNL1        0.0001
     17 C          -3.9059  -19.9825   20.9150 C.3     1  UNL1        0.0016
     18 C          -4.7971  -19.0391   21.6672 C.3     1  UNL1        0.0180
     19 C          -3.9322  -18.1883   22.5493 C.3     1  UNL1        0.0017
@<TRIPOS>BOND
     1     8     9    1
     2     9    10    1
     3     9     1    1
     4     1     2    1
     5     1     3    1
     6     3     4    1
     7     4    11    1
     8    13    11    1
     9    13    14    1
    10    15    14    1
    11    15    16    1
    12    16    17    1
    13    18    17    1
    14    18    19    1
    15     4     5    2
    16     5     6    1
    17     6     7    2
    18     6     1    1
    19    18    13    1
    20    19    15    1
    21    11    12    1
@<TRIPOS>MOLECULE
*****
 19 21 0 0 0
SMALL
GASTEIGER

@<TRIPOS>ATOM
      1 C         -10.1928  -17.6422   22.5279 C.3     1  UNL1        0.1160
      2 C         -10.7254  -16.2412   22.4686 C.3     1  UNL1        0.0205
      3 S          -8.8548  -16.9646   22.5555 S.3     1  UNL1       -0.0756
      4 C          -7.7984  -18.0272   22.6235 C.2     1  UNL1        0.1479
      5 N          -8.4833  -19.3616   22.6379 N.am    1  UNL1       -0.1581
      6 C          -9.9632  -19.1237   22.5788 C.2     1  UNL1        0.2558
      7 O         -11.0267  -20.1815   22.5718 O.2     1  UNL1       -0.2721
      8 C         -12.3793  -18.3063   23.7639 C.3     1  UNL1        0.0013
      9 C         -11.6420  -18.0270   22.4879 C.3     1  UNL1        0.0179
     10 C         -12.3539  -18.1325   21.1718 C.3     1  UNL1        0.0013
     11 N          -6.3170  -17.7960   22.6691 N.pl3   1  UNL1       -0.3167
     12 H          -5.9461  -17.0934   23.2506 H       1  UNL1        0.1484
     13 C          -5.4007  -18.6353   21.8289 C.3     1  UNL1        0.0706
     14 C          -5.7480  -19.2790   20.5192 C.3     1  UNL1        0.0195
     15 C          -4.5382  -20.0198   20.0317 C.3     1  UNL1        0.0017
     16 C          -3.1138  -20.3627   20.3534 C.3     1  UNL1        0.0001
     17 C          -2.7666  -19.7189   21.6630 C.3     1  UNL1        0.0016
     18 C          -3.9763  -18.9782   22.1506 C.3     1  UNL1        0.0180
     19 C          -5.0713  -19.1641   21.1424 C.3     1  UNL1        0.0017
@<TRIPOS>BOND
     1     8     9    1
     2     9    10    1
     3     9     1    1
     4     1     2    1
     5     1     3    1
     6     3     4    1
     7     4    11    1
     8    13    11    1
     9    13    14    1
    10    15    14    1
    11    15    16    1
    12    16    17    1
    13    18    17    1
    14    18    19    1
    15     4     5    2
    16     5     6    1
    17     6     7    2
    18     6     1    1
    19    18    13    1
    20    19    15    1
    21    11    12    1
@<TRIPOS>MOLECULE
*****
 19 21 0 0 0
SMALL
GASTEIGER

@<TRIPOS>ATOM
      1 C         -10.4306  -17.2845   21.0057 C.3     1  UNL1        0.1160
      2 C         -11.4270  -16.4964   20.2082 C.3     1  UNL1        0.0205
      3 S          -9.9281  -15.9329   21.4187 S.3     1  UNL1       -0.0756
      4 C          -8.7698  -16.1338   22.3502 C.2     1  UNL1        0.1479
      5 N          -8.5564  -17.6095   22.5130 N.am    1  UNL1       -0.1581
      6 C          -9.5829  -18.3207   21.6821 C.2     1  UNL1        0.2558
      7 O          -9.7349  -19.8072   21.5506 O.2     1  UNL1       -0.2721
      8 C         -10.6267  -19.1154   19.1730 C.3     1  UNL1        0.0013
      9 C         -11.1415  -18.4713   20.4260 C.3     1  UNL1        0.0179
     10 C         -12.3670  -19.0141   21.0994 C.3     1  UNL1        0.0013
     11 N          -7.9659  -15.0492   23.0042 N.pl3   1  UNL1       -0.3167
     12 H          -7.6777  -14.2665   22.4811 H       1  UNL1        0.1484
     13 C          -7.6011  -15.1572   24.4552 C.3     1  UNL1        0.0706
     14 C          -8.5627  -15.2983   25.5979 C.3     1  UNL1        0.0195
     15 C          -7.7666  -15.3714   26.8671 C.3     1  UNL1        0.0017
     16 C          -6.3763  -15.3572   27.4302 C.3     1  UNL1        0.0001
     17 C          -5.4149  -15.2161   26.2875 C.3     1  UNL1        0.0016
     18 C          -6.2109  -15.1430   25.0183 C.3     1  UNL1        0.0180
     19 C          -7.6644  -15.2390   25.3765 C.3     1  UNL1        0.0017
@<TRIPOS>BOND
     1     8     9    1
     2     9    10    1
     3     9     1    1
     4     1     2    1
     5     1     3    1
     6     3     4    1
     7     4    11    1
     8    13    11    1
     9    13    14    1
    10    15    14    1
    11    15    16    1
    12    16    17    1
    13    18    17    1
    14    18    19    1
    15     4     5    2
    16     5     6    1
    17     6     7    2
    18     6     1    1
    19    18    13    1
    20    19    15    1
    21    11    12    1
@<TRIPOS>MOLECULE
*****
 19 21 0 0 0
SMALL
GASTEIGER

@<TRIPOS>ATOM
      1 C         -16.5142   -8.5512   17.7612 C.3     1  UNL1        0.1160
      2 C         -17.5253   -7.9929   16.8041 C.3     1  UNL1        0.0205
      3 S         -15.5179   -8.0000   16.7846 S.3     1  UNL1       -0.0756
      4 C         -14.1437   -8.3084   17.3004 C.2     1  UNL1        0.1479
      5 N         -14.2905   -9.0503   18.5958 N.am    1  UNL1       -0.1581
      6 C         -15.7556   -9.2003   18.8805 C.2     1  UNL1        0.2558
      7 O         -16.3565   -9.8802   20.0750 O.2     1  UNL1       -0.2721
      8 C         -18.2591   -8.1175   19.6364 C.3     1  UNL1        0.0013
      9 C         -17.7217   -8.9857   18.5376 C.3     1  UNL1        0.0179
     10 C         -18.3919  -10.2884   18.2154 C.3     1  UNL1        0.0013
     11 N         -12.8497   -7.9397   16.6372 N.pl3   1  UNL1       -0.3167
     12 H         -12.7342   -8.0821   15.6699 H       1  UNL1        0.1484
     13 C         -11.7317   -7.3542   17.4479 C.3     1  UNL1        0.0706
     14 C         -10.4117   -8.0081   17.7313 C.3     1  UNL1        0.0195
     15 C          -9.6016   -7.0699   18.5760 C.3     1  UNL1        0.0017
     16 C          -9.6072   -5.7277   19.2456 C.3     1  UNL1        0.0001
     17 C         -10.9271   -5.0738   18.9622 C.3     1  UNL1        0.0016
     18 C         -11.7372   -6.0119   18.1174 C.3     1  UNL1        0.0180
     19 C         -10.9180   -7.2456   17.8788 C.3     1  UNL1        0.0017
@<TRIPOS>BOND
     1     8     9    1
     2     9    10    1
     3     9     1    1
     4     1     2    1
     5     1     3    1
     6     3     4    1
     7     4    11    1
     8    13    11    1
     9    13    14    1
    10    15    14    1
    11    15    16    1
    12    16    17    1
    13    18    17    1
    14    18    19    1
    15     4     5    2
    16     5     6    1
    17     6     7    2
    18     6     1    1
    19    18    13    1
    20    19    15    1
    21    11    12    1
@<TRIPOS>MOLECULE
*****
 19 21 0 0 0
SMALL
GASTEIGER

@<TRIPOS>ATOM
      1 C         -11.6922   -6.0075   18.7264 C.3     1  UNL1        0.1160
      2 C         -11.2106   -4.7142   19.3141 C.3     1  UNL1        0.0205
      3 S         -13.0157   -5.5924   19.2973 S.3     1  UNL1       -0.0756
      4 C         -14.0174   -6.6593   18.9688 C.2     1  UNL1        0.1479
      5 N         -13.3131   -7.7339   18.1947 N.am    1  UNL1       -0.1581
      6 C         -11.8760   -7.3311   18.0449 C.2     1  UNL1        0.2558
      7 O         -10.8099   -8.1143   17.3378 O.2     1  UNL1       -0.2721
      8 C          -9.3344   -7.0564   19.0273 C.3     1  UNL1        0.0013
      9 C         -10.2680   -6.1523   18.2783 C.3     1  UNL1        0.0179
     10 C          -9.7775   -5.3931   17.0812 C.3     1  UNL1        0.0013
     11 N         -15.4688   -6.6527   19.3477 N.pl3   1  UNL1       -0.3167
     12 H         -15.8720   -5.8439   19.7383 H       1  UNL1        0.1484
     13 C         -16.3059   -7.8786   19.1317 C.3     1  UNL1        0.0706
     14 C         -16.4618   -9.0203   20.0921 C.3     1  UNL1        0.0195
     15 C         -17.3862  -10.0252   19.4712 C.3     1  UNL1        0.0017
     16 C         -18.2143  -10.3247   18.2569 C.3     1  UNL1        0.0001
     17 C         -18.0584   -9.1830   17.2966 C.3     1  UNL1        0.0016
     18 C         -17.1340   -8.1780   17.9174 C.3     1  UNL1        0.0180
     19 C         -16.7185   -8.6985   19.2614 C.3     1  UNL1        0.0017
@<TRIPOS>BOND
     1     8     9    1
     2     9    10    1
     3     9     1    1
     4     1     2    1
     5     1     3    1
     6     3     4    1
     7     4    11    1
     8    13    11    1
     9    13    14    1
    10    15    14    1
    11    15    16    1
    12    16    17    1
    13    18    17    1
    14    18    19    1
    15     4     5    2
    16     5     6    1
    17     6     7    2
    18     6     1    1
    19    18    13    1
    20    19    15    1
    21    11    12    1
@<TRIPOS>MOLECULE
*****
 19 21 0 0 0
SMALL
GASTEIGER

@<TRIPOS>ATOM
      1 C         -12.0302   -6.7833   18.0944 C.3     1  UNL1        0.1160
      2 C         -11.8889   -7.8184   17.0179 C.3     1  UNL1        0.0205
      3 S         -13.4604   -7.2347   18.1222 S.3     1  UNL1       -0.0756
      4 C         -14.1805   -6.4296   19.1629 C.2     1  UNL1        0.1479
      5 N         -13.1953   -5.4805   19.7783 N.am    1  UNL1       -0.1581
      6 C         -11.8664   -5.6992   19.1179 C.2     1  UNL1        0.2558
      7 O         -10.5965   -4.9629   19.4269 O.2     1  UNL1       -0.2721
      8 C         -10.1375   -5.4638   16.9001 C.3     1  UNL1        0.0013
      9 C         -10.5705   -6.5483   17.8415 C.3     1  UNL1        0.0179
     10 C          -9.5438   -7.3978   18.5302 C.3     1  UNL1        0.0013
     11 N         -15.6311   -6.5519   19.5246 N.pl3   1  UNL1       -0.3167
     12 H         -16.0980   -5.7963   19.9491 H       1  UNL1        0.1484
     13 C         -16.3702   -7.8257   19.2397 C.3     1  UNL1        0.0706
     14 C         -16.4351   -9.0269   20.1359 C.3     1  UNL1        0.0195
     15 C         -17.2793  -10.0655   19.4585 C.3     1  UNL1        0.0017
     16 C         -18.0833  -10.3618   18.2273 C.3     1  UNL1        0.0001
     17 C         -18.0183   -9.1607   17.3312 C.3     1  UNL1        0.0016
     18 C         -17.1742   -8.1220   18.0085 C.3     1  UNL1        0.0180
     19 C         -16.7174   -8.6812   19.3233 C.3     1  UNL1        0.0017
@<TRIPOS>BOND
     1     8     9    1
     2     9    10    1
     3     9     1    1
     4     1     2    1
     5     1     3    1
     6     3     4    1
     7     4    11    1
     8    13    11    1
     9    13    14    1
    10    15    14    1
    11    15    16    1
    12    16    17    1
    13    18    17    1
    14    18    19    1
    15     4     5    2
    16     5     6    1
    17     6     7    2
    18     6     1    1
    19    18    13    1
    20    19    15    1
    21    11    12    1
