@<TRIPOS>MOLECULE
*****
 31 33 0 0 0
SMALL
GASTEIGER

@<TRIPOS>ATOM
      1 C         -10.0590  -15.8652   23.4121 C.ar    1  UNL1        0.0271
      2 C          -9.4653  -15.7947   24.7878 C.ar    1  UNL1        0.0045
      3 C          -8.0669  -16.3327   24.7172 C.ar    1  UNL1        0.0113
      4 C          -7.7963  -16.7357   23.2979 C.ar    1  UNL1        0.0829
      5 S          -9.0276  -16.4467   22.4913 S.2     1  UNL1       -0.0851
      6 C          -6.5188  -17.3242   22.7767 C.2     1  UNL1        0.2569
      7 O          -5.2013  -16.8592   23.3224 O.2     1  UNL1       -0.2692
      8 N          -6.5590  -18.3779   21.7098 N.am    1  UNL1       -0.2602
      9 H          -7.4237  -18.6831   21.3517 H       1  UNL1        0.1571
     10 C          -5.2815  -18.9665   21.1886 C.ar    1  UNL1        0.1654
     11 N          -3.9168  -18.3552   21.3059 N.ar    1  UNL1       -0.2279
     12 C          -2.9363  -19.2806   20.6484 C.ar    1  UNL1        0.0730
     13 C          -3.6951  -20.4638   20.1247 C.ar    1  UNL1        0.0532
     14 S          -5.1445  -20.2697   20.4586 S.2     1  UNL1       -0.0512
     15 C          -1.4567  -19.0612   20.5345 C.3     1  UNL1        0.0880
     16 C          -0.9220  -18.0351   19.5800 C.2     1  UNL1        0.0563
     17 O          -1.3778  -18.0306   18.1509 O.co2   1  UNL1       -0.5488
     18 O           0.0686  -17.0136   20.0545 O.co2   1  UNL1       -0.5488
     19 C         -11.4416  -15.4305   23.0252 C.3     1  UNL1        0.1208
     20 N         -12.3615  -16.3885   22.3281 N.pl3   1  UNL1       -0.3289
     21 H         -13.3366  -16.2689   22.3913 H       1  UNL1        0.1471
     22 C         -11.6117  -18.8715   22.1778 C.ar    1  UNL1       -0.0091
     23 C         -11.0458  -20.0118   21.3844 C.ar    1  UNL1       -0.0031
     24 C         -10.6639  -19.8095   19.9480 C.ar    1  UNL1       -0.0002
     25 C         -10.8479  -18.4669   19.3050 C.ar    1  UNL1        0.0012
     26 C         -11.4137  -17.3266   20.0984 C.ar    1  UNL1        0.0140
     27 C         -11.7956  -17.5289   21.5347 C.ar    1  UNL1        0.0408
     28 C         -11.9935  -19.0738   23.6142 C.3     1  UNL1        0.0276
     29 C         -10.9349  -19.0888   24.6767 C.3     1  UNL1        0.0047
     30 C          -8.9282  -20.5150   23.8466 C.3     1  UNL1        0.0000
     31 C         -10.0397  -20.2830   24.8268 C.3     1  UNL1        0.0003
@<TRIPOS>UNITY_ATOM_ATTR
17 1
charge -1
@<TRIPOS>BOND
     1    30    31    1
     2    31    29    1
     3    29    28    1
     4    28    22    1
     5    22    23   ar
     6    23    24   ar
     7    24    25   ar
     8    25    26   ar
     9    26    27   ar
    10    27    20    1
    11    20    19    1
    12    19     1    1
    13     1     2   ar
    14     2     3   ar
    15     3     4   ar
    16     4     6    1
    17     6     7    2
    18     6     8   am
    19     8    10    1
    20    10    11   ar
    21    11    12   ar
    22    12    15    1
    23    15    16    1
    24    16    17   ar
    25    16    18   ar
    26    12    13   ar
    27    13    14   ar
    28     4     5   ar
    29    27    22   ar
    30     5     1   ar
    31    14    10   ar
    32    20    21    1
    33     8     9    1
@<TRIPOS>MOLECULE
*****
 31 33 0 0 0
SMALL
GASTEIGER

@<TRIPOS>ATOM
      1 C          -9.9346  -17.8610   24.0864 C.ar    1  UNL1        0.0271
      2 C          -9.8592  -16.4283   24.5242 C.ar    1  UNL1        0.0045
      3 C          -8.4802  -15.9225   24.2196 C.ar    1  UNL1        0.0113
      4 C          -7.7034  -17.0426   23.5935 C.ar    1  UNL1        0.0829
      5 S          -8.6023  -18.2407   23.5112 S.2     1  UNL1       -0.0851
      6 C          -6.2781  -16.9763   23.1310 C.2     1  UNL1        0.2569
      7 O          -5.5568  -15.6613   23.1099 O.2     1  UNL1       -0.2692
      8 N          -5.5740  -18.2251   22.6896 N.am    1  UNL1       -0.2602
      9 H          -6.0474  -19.0882   22.7035 H       1  UNL1        0.1571
     10 C          -4.1486  -18.1588   22.2271 C.ar    1  UNL1        0.1654
     11 N          -3.6850  -18.1268   20.8009 N.ar    1  UNL1       -0.2279
     12 C          -2.1865  -18.0611   20.8020 C.ar    1  UNL1        0.0730
     13 C          -1.7239  -18.0525   22.2288 C.ar    1  UNL1        0.0532
     14 S          -2.9365  -18.1129   23.1096 S.2     1  UNL1       -0.0512
     15 C          -1.3052  -18.0125   19.5890 C.3     1  UNL1        0.0880
     16 C          -1.8639  -17.5563   18.2739 C.2     1  UNL1        0.0563
     17 O          -3.1395  -16.7679   18.2338 O.co2   1  UNL1       -0.5488
     18 O          -1.1472  -17.8884   16.9988 O.co2   1  UNL1       -0.5488
     19 C         -11.1321  -18.7568   24.2032 C.3     1  UNL1        0.1208
     20 N         -12.0365  -18.9576   23.0235 N.pl3   1  UNL1       -0.3289
     21 H         -12.6592  -19.7198   23.0048 H       1  UNL1        0.1471
     22 C         -11.2341  -18.3525   20.6276 C.ar    1  UNL1       -0.0091
     23 C         -11.1897  -17.3919   19.4765 C.ar    1  UNL1       -0.0031
     24 C         -11.9031  -16.0757   19.5699 C.ar    1  UNL1       -0.0002
     25 C         -12.6610  -15.7202   20.8146 C.ar    1  UNL1        0.0012
     26 C         -12.7054  -16.6808   21.9657 C.ar    1  UNL1        0.0140
     27 C         -11.9920  -17.9969   21.8722 C.ar    1  UNL1        0.0408
     28 C         -10.5207  -19.6686   20.5341 C.3     1  UNL1        0.0276
     29 C          -9.8514  -20.0696   19.2531 C.3     1  UNL1        0.0047
     30 C          -7.4062  -19.6964   20.0479 C.3     1  UNL1        0.0000
     31 C          -8.4468  -19.6259   18.9698 C.3     1  UNL1        0.0003
@<TRIPOS>UNITY_ATOM_ATTR
17 1
charge -1
@<TRIPOS>BOND
     1    30    31    1
     2    31    29    1
     3    29    28    1
     4    28    22    1
     5    22    23   ar
     6    23    24   ar
     7    24    25   ar
     8    25    26   ar
     9    26    27   ar
    10    27    20    1
    11    20    19    1
    12    19     1    1
    13     1     2   ar
    14     2     3   ar
    15     3     4   ar
    16     4     6    1
    17     6     7    2
    18     6     8   am
    19     8    10    1
    20    10    11   ar
    21    11    12   ar
    22    12    15    1
    23    15    16    1
    24    16    17   ar
    25    16    18   ar
    26    12    13   ar
    27    13    14   ar
    28     4     5   ar
    29    27    22   ar
    30     5     1   ar
    31    14    10   ar
    32    20    21    1
    33     8     9    1
@<TRIPOS>MOLECULE
*****
 31 33 0 0 0
SMALL
GASTEIGER

@<TRIPOS>ATOM
      1 C          -4.3466  -17.0978   23.6043 C.ar    1  UNL1        0.0271
      2 C          -4.3737  -15.6138   23.8207 C.ar    1  UNL1        0.0045
      3 C          -5.8031  -15.1628   23.7623 C.ar    1  UNL1        0.0113
      4 C          -6.6595  -16.3682   23.5098 C.ar    1  UNL1        0.0829
      5 S          -5.7593  -17.5642   23.4121 S.2     1  UNL1       -0.0851
      6 C          -8.1536  -16.3763   23.3781 C.2     1  UNL1        0.2569
      7 O          -9.0064  -15.8135   24.4763 O.2     1  UNL1       -0.2692
      8 N          -8.7950  -16.9471   22.1481 N.am    1  UNL1       -0.2602
      9 H          -8.2353  -17.3164   21.4273 H       1  UNL1        0.1571
     10 C         -10.2892  -16.9551   22.0164 C.ar    1  UNL1        0.1654
     11 N         -11.2606  -17.4868   23.0281 N.ar    1  UNL1       -0.2279
     12 C         -12.6461  -17.2932   22.4868 C.ar    1  UNL1        0.0730
     13 C         -12.5310  -16.6418   21.1406 C.ar    1  UNL1        0.0532
     14 S         -11.0743  -16.4328   20.8498 S.2     1  UNL1       -0.0512
     15 C         -13.9227  -17.6826   23.1716 C.3     1  UNL1        0.0880
     16 C         -13.8787  -18.4171   24.4787 C.2     1  UNL1        0.0563
     17 O         -12.5588  -18.8000   25.0798 O.co2   1  UNL1       -0.5488
     18 O         -15.1546  -18.7688   25.1847 O.co2   1  UNL1       -0.5488
     19 C          -3.1218  -17.9637   23.5836 C.3     1  UNL1        0.1208
     20 N          -2.9741  -19.0291   22.5381 N.pl3   1  UNL1       -0.3289
     21 H          -3.1570  -19.9696   22.7645 H       1  UNL1        0.1471
     22 C          -3.4208  -19.0091   19.9788 C.ar    1  UNL1       -0.0091
     23 C          -2.9943  -18.6416   18.5885 C.ar    1  UNL1       -0.0031
     24 C          -1.6945  -17.9263   18.3672 C.ar    1  UNL1       -0.0002
     25 C          -0.8212  -17.5787   19.5362 C.ar    1  UNL1        0.0012
     26 C          -1.2478  -17.9463   20.9264 C.ar    1  UNL1        0.0140
     27 C          -2.5476  -18.6615   21.1478 C.ar    1  UNL1        0.0408
     28 C          -4.7206  -19.7244   20.2001 C.3     1  UNL1        0.0276
     29 C          -6.0182  -19.0250   19.9225 C.3     1  UNL1        0.0047
     30 C          -8.4957  -19.6426   19.4417 C.3     1  UNL1        0.0000
     31 C          -7.3122  -19.6424   20.3635 C.3     1  UNL1        0.0003
@<TRIPOS>UNITY_ATOM_ATTR
17 1
charge -1
@<TRIPOS>BOND
     1    30    31    1
     2    31    29    1
     3    29    28    1
     4    28    22    1
     5    22    23   ar
     6    23    24   ar
     7    24    25   ar
     8    25    26   ar
     9    26    27   ar
    10    27    20    1
    11    20    19    1
    12    19     1    1
    13     1     2   ar
    14     2     3   ar
    15     3     4   ar
    16     4     6    1
    17     6     7    2
    18     6     8   am
    19     8    10    1
    20    10    11   ar
    21    11    12   ar
    22    12    15    1
    23    15    16    1
    24    16    17   ar
    25    16    18   ar
    26    12    13   ar
    27    13    14   ar
    28     4     5   ar
    29    27    22   ar
    30     5     1   ar
    31    14    10   ar
    32    20    21    1
    33     8     9    1
@<TRIPOS>MOLECULE
*****
 31 33 0 0 0
SMALL
GASTEIGER

@<TRIPOS>ATOM
      1 C          -7.4750  -15.5453   25.1602 C.ar    1  UNL1        0.0271
      2 C          -6.3512  -15.3293   26.1299 C.ar    1  UNL1        0.0045
      3 C          -5.0675  -15.6786   25.4371 C.ar    1  UNL1        0.0113
      4 C          -5.3978  -16.1106   24.0391 C.ar    1  UNL1        0.0829
      5 S          -6.8858  -16.0283   23.8680 S.2     1  UNL1       -0.0851
      6 C          -4.4132  -16.5482   22.9956 C.2     1  UNL1        0.2569
      7 O          -3.3113  -15.6238   22.5697 O.2     1  UNL1       -0.2692
      8 N          -4.5304  -17.9101   22.3780 N.am    1  UNL1       -0.2602
      9 H          -5.2537  -18.5168   22.6575 H       1  UNL1        0.1571
     10 C          -3.5458  -18.3476   21.3345 C.ar    1  UNL1        0.1654
     11 N          -2.0621  -18.1312   21.3763 N.ar    1  UNL1       -0.2279
     12 C          -1.4713  -18.7282   20.1335 C.ar    1  UNL1        0.0730
     13 C          -2.5898  -19.3137   19.3236 C.ar    1  UNL1        0.0532
     14 S          -3.8719  -19.0785   20.0657 S.2     1  UNL1       -0.0512
     15 C          -0.0171  -18.7381   19.7654 C.3     1  UNL1        0.0880
     16 C           0.8792  -17.6246   20.2202 C.2     1  UNL1        0.0563
     17 O           0.5190  -16.2004   19.9168 O.co2   1  UNL1       -0.5488
     18 O           2.1356  -17.9353   20.9782 O.co2   1  UNL1       -0.5488
     19 C          -8.9322  -15.3184   25.4344 C.3     1  UNL1        0.1208
     20 N          -9.9656  -15.8531   24.4879 N.pl3   1  UNL1       -0.3289
     21 H         -10.6328  -15.2461   24.0933 H       1  UNL1        0.1471
     22 C          -9.9588  -17.7438   22.7059 C.ar    1  UNL1       -0.0091
     23 C          -9.9757  -19.2034   22.3605 C.ar    1  UNL1       -0.0031
     24 C         -10.0164  -20.2319   23.4516 C.ar    1  UNL1       -0.0002
     25 C         -10.0402  -19.8008   24.8881 C.ar    1  UNL1        0.0012
     26 C         -10.0232  -18.3413   25.2335 C.ar    1  UNL1        0.0140
     27 C          -9.9825  -17.3128   24.1424 C.ar    1  UNL1        0.0408
     28 C          -9.9181  -16.7153   21.6148 C.3     1  UNL1        0.0276
     29 C         -11.0231  -16.6516   20.6025 C.3     1  UNL1        0.0047
     30 C         -13.1487  -17.6776   21.6887 C.3     1  UNL1        0.0000
     31 C         -12.4469  -16.5136   21.0541 C.3     1  UNL1        0.0003
@<TRIPOS>UNITY_ATOM_ATTR
17 1
charge -1
@<TRIPOS>BOND
     1    30    31    1
     2    31    29    1
     3    29    28    1
     4    28    22    1
     5    22    23   ar
     6    23    24   ar
     7    24    25   ar
     8    25    26   ar
     9    26    27   ar
    10    27    20    1
    11    20    19    1
    12    19     1    1
    13     1     2   ar
    14     2     3   ar
    15     3     4   ar
    16     4     6    1
    17     6     7    2
    18     6     8   am
    19     8    10    1
    20    10    11   ar
    21    11    12   ar
    22    12    15    1
    23    15    16    1
    24    16    17   ar
    25    16    18   ar
    26    12    13   ar
    27    13    14   ar
    28     4     5   ar
    29    27    22   ar
    30     5     1   ar
    31    14    10   ar
    32    20    21    1
    33     8     9    1
@<TRIPOS>MOLECULE
*****
 31 33 0 0 0
SMALL
GASTEIGER

@<TRIPOS>ATOM
      1 C           3.9128   -3.1243   20.7307 C.ar    1  UNL1        0.0271
      2 C           3.4684   -1.7597   21.1671 C.ar    1  UNL1        0.0045
      3 C           3.9684   -1.5339   22.5632 C.ar    1  UNL1        0.0113
      4 C           4.7218   -2.7590   22.9896 C.ar    1  UNL1        0.0829
      5 S           4.6874   -3.7419   21.8570 S.2     1  UNL1       -0.0851
      6 C           5.3919   -2.9649   24.3157 C.2     1  UNL1        0.2569
      7 O           5.1834   -1.9749   25.4232 O.2     1  UNL1       -0.2692
      8 N           6.2704   -4.1609   24.5343 N.am    1  UNL1       -0.2602
      9 H           6.4073   -4.8106   23.8075 H       1  UNL1        0.1571
     10 C           6.9405   -4.3668   25.8604 C.ar    1  UNL1        0.1654
     11 N           6.5368   -5.3625   26.9071 N.ar    1  UNL1       -0.2279
     12 C           7.4788   -5.2243   28.0663 C.ar    1  UNL1        0.0730
     13 C           8.4646   -4.1432   27.7360 C.ar    1  UNL1        0.0532
     14 S           8.1320   -3.6132   26.3727 S.2     1  UNL1       -0.0512
     15 C           7.4413   -6.0264   29.3333 C.3     1  UNL1        0.0880
     16 C           6.9034   -5.4145   30.5927 C.2     1  UNL1        0.0563
     17 O           6.4814   -3.9751   30.6064 O.co2   1  UNL1       -0.5488
     18 O           6.7876   -6.2419   31.8385 O.co2   1  UNL1       -0.5488
     19 C           3.6319   -3.7598   19.4012 C.3     1  UNL1        0.1208
     20 N           4.0933   -3.0936   18.1390 N.pl3   1  UNL1       -0.3289
     21 H           3.6814   -3.3325   17.2774 H       1  UNL1        0.1471
     22 C           4.8700   -0.6265   17.8926 C.ar    1  UNL1       -0.0091
     23 C           5.9590    0.4037   17.9433 C.ar    1  UNL1       -0.0031
     24 C           7.3604   -0.0028   18.2909 C.ar    1  UNL1       -0.0002
     25 C           7.6728   -1.4395   18.5879 C.ar    1  UNL1        0.0012
     26 C           6.5838   -2.4697   18.5373 C.ar    1  UNL1        0.0140
     27 C           5.1824   -2.0632   18.1897 C.ar    1  UNL1        0.0408
     28 C           3.4686   -0.2201   17.5450 C.3     1  UNL1        0.0276
     29 C           2.7037    0.6914   18.4582 C.3     1  UNL1        0.0047
     30 C           0.6145    0.2708   19.9444 C.3     1  UNL1        0.0000
     31 C           1.2179    0.5392   18.5976 C.3     1  UNL1        0.0003
@<TRIPOS>UNITY_ATOM_ATTR
17 1
charge -1
@<TRIPOS>BOND
     1    30    31    1
     2    31    29    1
     3    29    28    1
     4    28    22    1
     5    22    23   ar
     6    23    24   ar
     7    24    25   ar
     8    25    26   ar
     9    26    27   ar
    10    27    20    1
    11    20    19    1
    12    19     1    1
    13     1     2   ar
    14     2     3   ar
    15     3     4   ar
    16     4     6    1
    17     6     7    2
    18     6     8   am
    19     8    10    1
    20    10    11   ar
    21    11    12   ar
    22    12    15    1
    23    15    16    1
    24    16    17   ar
    25    16    18   ar
    26    12    13   ar
    27    13    14   ar
    28     4     5   ar
    29    27    22   ar
    30     5     1   ar
    31    14    10   ar
    32    20    21    1
    33     8     9    1
@<TRIPOS>MOLECULE
*****
 31 33 0 0 0
SMALL
GASTEIGER

@<TRIPOS>ATOM
      1 C         -16.0175   -5.6977   19.3484 C.ar    1  UNL1        0.0271
      2 C         -17.3866   -6.2690   19.1267 C.ar    1  UNL1        0.0045
      3 C         -18.3924   -5.2221   19.5042 C.ar    1  UNL1        0.0113
      4 C         -17.6449   -4.0038   19.9593 C.ar    1  UNL1        0.0829
      5 S         -16.1771   -4.2978   19.8630 S.2     1  UNL1       -0.0851
      6 C         -18.2576   -2.7175   20.4282 C.2     1  UNL1        0.2569
      7 O         -19.4131   -2.7419   21.3844 O.2     1  UNL1       -0.2692
      8 N         -17.7147   -1.4068   19.9411 N.am    1  UNL1       -0.2602
      9 H         -16.9563   -1.3908   19.3136 H       1  UNL1        0.1571
     10 C         -18.3274   -0.1205   20.4101 C.ar    1  UNL1        0.1654
     11 N         -17.7879    0.7713   21.4888 N.ar    1  UNL1       -0.2279
     12 C         -18.7142    1.9429   21.6281 C.ar    1  UNL1        0.0730
     13 C         -19.8262    1.7752   20.6354 C.ar    1  UNL1        0.0532
     14 S         -19.5871    0.5000   19.8827 S.2     1  UNL1       -0.0512
     15 C         -18.5563    3.0822   22.5910 C.3     1  UNL1        0.0880
     16 C         -18.9420    2.9070   24.0299 C.2     1  UNL1        0.0563
     17 O         -19.2223    1.5357   24.5696 O.co2   1  UNL1       -0.5488
     18 O         -19.0475    4.1029   24.9291 O.co2   1  UNL1       -0.5488
     19 C         -14.7171   -6.4026   19.0993 C.3     1  UNL1        0.1208
     20 N         -13.5116   -6.0670   19.9265 N.pl3   1  UNL1       -0.3289
     21 H         -13.5836   -6.0266   20.9076 H       1  UNL1        0.1471
     22 C         -11.7050   -4.3826   19.1209 C.ar    1  UNL1       -0.0091
     23 C         -10.3900   -4.1087   18.4534 C.ar    1  UNL1       -0.0031
     24 C          -9.5665   -5.2451   17.9240 C.ar    1  UNL1       -0.0002
     25 C         -10.0580   -6.6555   18.0621 C.ar    1  UNL1        0.0012
     26 C         -11.3730   -6.9295   18.7296 C.ar    1  UNL1        0.0140
     27 C         -12.1965   -5.7930   19.2590 C.ar    1  UNL1        0.0408
     28 C         -12.5285   -3.2462   19.6503 C.3     1  UNL1        0.0276
     29 C         -12.9566   -2.1392   18.7332 C.3     1  UNL1        0.0047
     30 C         -12.7213    0.3562   18.0489 C.3     1  UNL1        0.0000
     31 C         -12.1239   -0.8969   18.6172 C.3     1  UNL1        0.0003
@<TRIPOS>UNITY_ATOM_ATTR
17 1
charge -1
@<TRIPOS>BOND
     1    30    31    1
     2    31    29    1
     3    29    28    1
     4    28    22    1
     5    22    23   ar
     6    23    24   ar
     7    24    25   ar
     8    25    26   ar
     9    26    27   ar
    10    27    20    1
    11    20    19    1
    12    19     1    1
    13     1     2   ar
    14     2     3   ar
    15     3     4   ar
    16     4     6    1
    17     6     7    2
    18     6     8   am
    19     8    10    1
    20    10    11   ar
    21    11    12   ar
    22    12    15    1
    23    15    16    1
    24    16    17   ar
    25    16    18   ar
    26    12    13   ar
    27    13    14   ar
    28     4     5   ar
    29    27    22   ar
    30     5     1   ar
    31    14    10   ar
    32    20    21    1
    33     8     9    1
@<TRIPOS>MOLECULE
*****
 31 33 0 0 0
SMALL
GASTEIGER

@<TRIPOS>ATOM
      1 C           5.9855   -3.6721   21.7435 C.ar    1  UNL1        0.0271
      2 C           4.8837   -2.8243   22.3070 C.ar    1  UNL1        0.0045
      3 C           5.0107   -2.8327   23.8016 C.ar    1  UNL1        0.0113
      4 C           6.1909   -3.6856   24.1619 C.ar    1  UNL1        0.0829
      5 S           6.7934   -4.2044   22.8898 S.2     1  UNL1       -0.0851
      6 C           6.6823   -3.9698   25.5503 C.2     1  UNL1        0.2569
      7 O           7.3415   -2.8849   26.3493 O.2     1  UNL1       -0.2692
      8 N           6.5146   -5.3390   26.1396 N.am    1  UNL1       -0.2602
      9 H           6.0820   -6.0510   25.6151 H       1  UNL1        0.1571
     10 C           7.0060   -5.6232   27.5280 C.ar    1  UNL1        0.1654
     11 N           6.3512   -5.1807   28.8029 N.ar    1  UNL1       -0.2279
     12 C           7.1791   -5.6839   29.9481 C.ar    1  UNL1        0.0730
     13 C           8.3456   -6.4373   29.3810 C.ar    1  UNL1        0.0532
     14 S           8.2387   -6.3998   27.8853 S.2     1  UNL1       -0.0512
     15 C           6.8910   -5.4710   31.4048 C.3     1  UNL1        0.0880
     16 C           7.0554   -4.1086   32.0105 C.2     1  UNL1        0.0563
     17 O           8.4044   -3.4527   32.0264 O.co2   1  UNL1       -0.5488
     18 O           5.8709   -3.4021   32.6002 O.co2   1  UNL1       -0.5488
     19 C           6.2355   -3.9404   20.2890 C.3     1  UNL1        0.1208
     20 N           5.2088   -3.5508   19.2672 N.pl3   1  UNL1       -0.3289
     21 H           4.5232   -4.1991   18.9863 H       1  UNL1        0.1471
     22 C           4.0305   -1.2798   18.8152 C.ar    1  UNL1       -0.0091
     23 C           4.0486    0.0974   18.2212 C.ar    1  UNL1       -0.0031
     24 C           5.2629    0.5810   17.4853 C.ar    1  UNL1       -0.0002
     25 C           6.4592   -0.3127   17.3434 C.ar    1  UNL1        0.0012
     26 C           6.4412   -1.6899   17.9373 C.ar    1  UNL1        0.0140
     27 C           5.2268   -2.1735   18.6732 C.ar    1  UNL1        0.0408
     28 C           2.8162   -1.7634   19.5511 C.3     1  UNL1        0.0276
     29 C           2.1466   -0.8760   20.5580 C.3     1  UNL1        0.0047
     30 C           0.5026    0.9988   19.8282 C.3     1  UNL1        0.0000
     31 C           0.7450   -0.3971   20.3212 C.3     1  UNL1        0.0003
@<TRIPOS>UNITY_ATOM_ATTR
17 1
charge -1
@<TRIPOS>BOND
     1    30    31    1
     2    31    29    1
     3    29    28    1
     4    28    22    1
     5    22    23   ar
     6    23    24   ar
     7    24    25   ar
     8    25    26   ar
     9    26    27   ar
    10    27    20    1
    11    20    19    1
    12    19     1    1
    13     1     2   ar
    14     2     3   ar
    15     3     4   ar
    16     4     6    1
    17     6     7    2
    18     6     8   am
    19     8    10    1
    20    10    11   ar
    21    11    12   ar
    22    12    15    1
    23    15    16    1
    24    16    17   ar
    25    16    18   ar
    26    12    13   ar
    27    13    14   ar
    28     4     5   ar
    29    27    22   ar
    30     5     1   ar
    31    14    10   ar
    32    20    21    1
    33     8     9    1
@<TRIPOS>MOLECULE
*****
 31 33 0 0 0
SMALL
GASTEIGER

@<TRIPOS>ATOM
      1 C           7.0771   -4.1741   23.3852 C.ar    1  UNL1        0.0271
      2 C           7.9681   -5.3531   23.6422 C.ar    1  UNL1        0.0045
      3 C           8.2438   -5.4134   25.1154 C.ar    1  UNL1        0.0113
      4 C           7.5232   -4.2716   25.7690 C.ar    1  UNL1        0.0829
      5 S           6.8021   -3.5057   24.6996 S.2     1  UNL1       -0.0851
      6 C           7.5236   -3.9520   27.2345 C.2     1  UNL1        0.2569
      7 O           8.4735   -2.9263   27.7782 O.2     1  UNL1       -0.2692
      8 N           6.5740   -4.6580   28.1563 N.am    1  UNL1       -0.2602
      9 H           5.9505   -5.3312   27.7995 H       1  UNL1        0.1571
     10 C           6.5744   -4.3383   29.6219 C.ar    1  UNL1        0.1654
     11 N           6.0126   -3.0996   30.2542 N.ar    1  UNL1       -0.2279
     12 C           6.2276   -3.1970   31.7356 C.ar    1  UNL1        0.0730
     13 C           6.9223   -4.4959   32.0187 C.ar    1  UNL1        0.0532
     14 S           7.1366   -5.2013   30.7124 S.2     1  UNL1       -0.0512
     15 C           5.8196   -2.1748   32.7548 C.3     1  UNL1        0.0880
     16 C           4.3772   -2.0369   33.1428 C.2     1  UNL1        0.0563
     17 O           3.6333   -0.7730   32.8276 O.co2   1  UNL1       -0.5488
     18 O           3.6788   -3.1627   33.8461 O.co2   1  UNL1       -0.5488
     19 C           6.5531   -3.7397   22.0485 C.3     1  UNL1        0.1208
     20 N           5.1109   -3.9607   21.7004 N.pl3   1  UNL1       -0.3289
     21 H           4.7605   -4.8766   21.6126 H       1  UNL1        0.1471
     22 C           3.6239   -2.5239   20.1274 C.ar    1  UNL1       -0.0091
     23 C           2.7155   -1.3496   19.9132 C.ar    1  UNL1       -0.0031
     24 C           2.3859   -0.4378   21.0577 C.ar    1  UNL1       -0.0002
     25 C           2.9645   -0.7003   22.4164 C.ar    1  UNL1        0.0012
     26 C           3.8728   -1.8746   22.6307 C.ar    1  UNL1        0.0140
     27 C           4.2025   -2.7864   21.4861 C.ar    1  UNL1        0.0408
     28 C           3.9536   -3.4357   18.9829 C.3     1  UNL1        0.0276
     29 C           5.2132   -3.2262   18.1958 C.3     1  UNL1        0.0047
     30 C           5.8995   -0.7722   17.6885 C.3     1  UNL1        0.0000
     31 C           6.0828   -2.0363   18.4750 C.3     1  UNL1        0.0003
@<TRIPOS>UNITY_ATOM_ATTR
17 1
charge -1
@<TRIPOS>BOND
     1    30    31    1
     2    31    29    1
     3    29    28    1
     4    28    22    1
     5    22    23   ar
     6    23    24   ar
     7    24    25   ar
     8    25    26   ar
     9    26    27   ar
    10    27    20    1
    11    20    19    1
    12    19     1    1
    13     1     2   ar
    14     2     3   ar
    15     3     4   ar
    16     4     6    1
    17     6     7    2
    18     6     8   am
    19     8    10    1
    20    10    11   ar
    21    11    12   ar
    22    12    15    1
    23    15    16    1
    24    16    17   ar
    25    16    18   ar
    26    12    13   ar
    27    13    14   ar
    28     4     5   ar
    29    27    22   ar
    30     5     1   ar
    31    14    10   ar
    32    20    21    1
    33     8     9    1
@<TRIPOS>MOLECULE
*****
 31 33 0 0 0
SMALL
GASTEIGER

@<TRIPOS>ATOM
      1 C           6.7653   -3.4208   29.7352 C.ar    1  UNL1        0.0271
      2 C           7.0773   -4.3912   30.8356 C.ar    1  UNL1        0.0045
      3 C           6.5095   -3.8435   32.1114 C.ar    1  UNL1        0.0113
      4 C           5.8465   -2.5346   31.7994 C.ar    1  UNL1        0.0829
      5 S           6.0046   -2.2734   30.3308 S.2     1  UNL1       -0.0851
      6 C           5.1480   -1.6434   32.7833 C.2     1  UNL1        0.2569
      7 O           3.6576   -1.4843   32.7246 O.2     1  UNL1       -0.2692
      8 N           5.9400   -0.9115   33.8259 N.am    1  UNL1       -0.2602
      9 H           6.9182   -1.0160   33.8644 H       1  UNL1        0.1571
     10 C           5.2416   -0.0203   34.8097 C.ar    1  UNL1        0.1654
     11 N           4.8539   -0.3876   36.2114 N.ar    1  UNL1       -0.2279
     12 C           4.1809    0.8003   36.8327 C.ar    1  UNL1        0.0730
     13 C           4.1526    1.9018   35.8149 C.ar    1  UNL1        0.0532
     14 S           4.8081    1.3947   34.5647 S.2     1  UNL1       -0.0512
     15 C           3.6324    0.8738   38.2269 C.3     1  UNL1        0.0880
     16 C           2.3671    1.6332   38.4960 C.2     1  UNL1        0.0563
     17 O           2.4091    3.1224   38.6717 O.co2   1  UNL1       -0.5488
     18 O           1.0599    0.9036   38.5895 O.co2   1  UNL1       -0.5488
     19 C           7.1470   -3.5714   28.2923 C.3     1  UNL1        0.1208
     20 N           6.2651   -4.3484   27.3604 N.pl3   1  UNL1       -0.3289
     21 H           5.2892   -4.2205   27.3850 H       1  UNL1        0.1471
     22 C           7.3168   -4.8503   25.0383 C.ar    1  UNL1       -0.0091
     23 C           7.9217   -5.8221   24.0690 C.ar    1  UNL1       -0.0031
     24 C           8.0798   -7.2636   24.4522 C.ar    1  UNL1       -0.0002
     25 C           7.6330   -7.7335   25.8048 C.ar    1  UNL1        0.0012
     26 C           7.0281   -6.7617   26.7742 C.ar    1  UNL1        0.0140
     27 C           6.8700   -5.3201   26.3909 C.ar    1  UNL1        0.0408
     28 C           7.1587   -3.4087   24.6551 C.3     1  UNL1        0.0276
     29 C           6.4424   -3.0435   23.3888 C.3     1  UNL1        0.0047
     30 C           4.5617   -3.8790   21.8030 C.3     1  UNL1        0.0000
     31 C           5.0253   -3.4860   23.1744 C.3     1  UNL1        0.0003
@<TRIPOS>UNITY_ATOM_ATTR
17 1
charge -1
@<TRIPOS>BOND
     1    30    31    1
     2    31    29    1
     3    29    28    1
     4    28    22    1
     5    22    23   ar
     6    23    24   ar
     7    24    25   ar
     8    25    26   ar
     9    26    27   ar
    10    27    20    1
    11    20    19    1
    12    19     1    1
    13     1     2   ar
    14     2     3   ar
    15     3     4   ar
    16     4     6    1
    17     6     7    2
    18     6     8   am
    19     8    10    1
    20    10    11   ar
    21    11    12   ar
    22    12    15    1
    23    15    16    1
    24    16    17   ar
    25    16    18   ar
    26    12    13   ar
    27    13    14   ar
    28     4     5   ar
    29    27    22   ar
    30     5     1   ar
    31    14    10   ar
    32    20    21    1
    33     8     9    1
