@<TRIPOS>MOLECULE
*****
 56 59 0 0 0
SMALL
GASTEIGER

@<TRIPOS>ATOM
      1 C           0.9090    1.7513   26.4219 C.3     1  UNL1        0.1486
      2 C           0.1472    2.3180   25.2607 C.2     1  UNL1        0.2406
      3 O          -1.2940    1.9537   25.0596 O.2     1  UNL1       -0.2733
      4 N           0.8264    3.2489   24.3005 N.am    1  UNL1       -0.2967
      5 H           1.7723    3.4880   24.4325 H       1  UNL1        0.1499
      6 C           0.0645    3.8156   23.1393 C.3     1  UNL1        0.1530
      7 C          -1.3703    4.2185   23.3085 C.2     1  UNL1        0.2409
      8 O          -1.7153    5.4586   24.0789 O.2     1  UNL1       -0.2733
      9 N          -2.4603    3.3815   22.7075 N.am    1  UNL1       -0.2983
     10 H          -2.2339    2.5676   22.2019 H       1  UNL1        0.1498
     11 C          -3.8953    3.7845   22.8768 C.3     1  UNL1        0.1319
     12 C          -4.5227    4.7470   21.9126 C.2     1  UNL1        0.1948
     13 O          -4.4611    6.2220   22.1782 O.2     1  UNL1       -0.2918
     14 C          -5.2118    4.2346   20.6828 C.3     1  UNL1        0.1723
     15 C          -6.1871    4.7267   20.6341 C.3     1  UNL1        0.0399
     16 C          -5.4529    3.4580   19.4222 C.3     1  UNL1        0.1767
     17 O          -4.1612    3.2961   20.1675 O.3     1  UNL1       -0.3461
     18 C          -4.7027    3.2248   24.0103 C.3     1  UNL1        0.0273
     19 C          -4.9033    4.0321   25.2585 C.3     1  UNL1        0.0021
     20 C          -5.7031    4.7511   25.4558 C.3     1  UNL1        0.0001
     21 C          -3.9447    3.8929   26.4038 C.3     1  UNL1        0.0001
     22 C           0.7376    3.9794   21.8088 C.3     1  UNL1        0.0553
     23 C           0.8218    2.8182   20.8630 C.ar    1  UNL1       -0.0200
     24 C           1.4692    2.9896   19.5208 C.ar    1  UNL1       -0.0042
     25 C           1.5535    1.8285   18.5750 C.ar    1  UNL1       -0.0003
     26 C           0.9904    0.4959   18.9713 C.ar    1  UNL1       -0.0000
     27 C           0.3429    0.3244   20.3135 C.ar    1  UNL1       -0.0003
     28 C           0.2587    1.4856   21.2593 C.ar    1  UNL1       -0.0042
     29 N           1.8529    0.6045   26.2118 N.am    1  UNL1       -0.2970
     30 C           3.1510    0.8237   25.4929 C.2     1  UNL1        0.2406
     31 O           3.5053    2.1895   24.9841 O.2     1  UNL1       -0.2733
     32 H           1.6204   -0.2919   26.5457 H       1  UNL1        0.1499
     33 C           4.0948   -0.3230   25.2828 C.3     1  UNL1        0.1489
     34 N           5.1952   -0.5792   26.2695 N.am    1  UNL1       -0.2972
     35 C           4.8824   -1.2065   27.5957 C.2     1  UNL1        0.2391
     36 O           3.4692   -1.5776   27.9350 O.2     1  UNL1       -0.2736
     37 H           6.1227   -0.3357   26.0468 H       1  UNL1        0.1499
     38 C           5.9827   -1.4627   28.5824 C.3     1  UNL1        0.1585
     39 N           6.2595   -2.8605   29.0509 N.3     1  UNL1       -0.2607
     40 C           6.5691   -3.1198   30.4956 C.3     1  UNL1        0.1050
     41 C           6.8459   -4.5175   30.9641 C.3     1  UNL1        0.1595
     42 O           6.8132   -5.6561   29.9881 O.3     1  UNL1       -0.3508
     43 C           6.5036   -5.3968   28.5434 C.3     1  UNL1        0.1595
     44 C           6.2268   -3.9990   28.0748 C.3     1  UNL1        0.1050
     45 C           3.9384   -1.2137   24.0860 C.3     1  UNL1        0.0337
     46 C           3.0296   -0.8087   22.9634 C.3     1  UNL1        0.0286
     47 C           3.5676   -0.6910   21.5681 C.ar    1  UNL1       -0.0221
     48 C           4.2123    0.5864   21.1181 C.ar    1  UNL1       -0.0043
     49 C           4.7502    0.7040   19.7229 C.ar    1  UNL1       -0.0003
     50 C           4.6434   -0.4558   18.7776 C.ar    1  UNL1       -0.0000
     51 C           3.9987   -1.7331   19.2276 C.ar    1  UNL1       -0.0003
     52 C           3.4608   -1.8508   20.6229 C.ar    1  UNL1       -0.0043
     53 C           0.7270    2.3313   27.7932 C.3     1  UNL1        0.0290
     54 C          -1.0472    0.6434   28.6611 C.3     1  UNL1        0.0001
     55 C           0.1732    1.4826   28.8990 C.3     1  UNL1        0.0021
     56 C           0.8398    1.4730   30.2427 C.3     1  UNL1        0.0001
@<TRIPOS>BOND
     1    54    55    1
     2    55    56    1
     3    55    53    1
     4     1    53    1
     5     1    29    1
     6    29    30   am
     7    30    31    2
     8    30    33    1
     9    33    45    1
    10    45    46    1
    11    46    47    1
    12    47    48   ar
    13    48    49   ar
    14    49    50   ar
    15    50    51   ar
    16    51    52   ar
    17    33    34    1
    18    34    35   am
    19    35    36    2
    20    35    38    1
    21    38    39    1
    22    39    40    1
    23    40    41    1
    24    41    42    1
    25    42    43    1
    26    43    44    1
    27     1     2    1
    28     2     3    2
    29     2     4   am
    30     4     6    1
    31     6    22    1
    32    22    23    1
    33    23    24   ar
    34    24    25   ar
    35    25    26   ar
    36    26    27   ar
    37    27    28   ar
    38     6     7    1
    39     7     8    2
    40     7     9   am
    41     9    11    1
    42    11    18    1
    43    18    19    1
    44    19    20    1
    45    19    21    1
    46    11    12    1
    47    12    13    2
    48    12    14    1
    49    14    15    1
    50    14    16    1
    51    16    17    1
    52    52    47   ar
    53    44    39    1
    54    28    23   ar
    55    17    14    1
    56    29    32    1
    57    34    37    1
    58     4     5    1
    59     9    10    1
@<TRIPOS>MOLECULE
*****
 56 59 0 0 0
SMALL
GASTEIGER

@<TRIPOS>ATOM
      1 C           3.6814   -0.8009   26.0285 C.3     1  UNL1        0.1486
      2 C           4.7843   -1.2647   25.1238 C.2     1  UNL1        0.2406
      3 O           5.8406   -0.2996   24.6732 O.2     1  UNL1       -0.2733
      4 N           4.8309   -2.6935   24.6697 N.am    1  UNL1       -0.2967
      5 H           4.1376   -3.3269   24.9654 H       1  UNL1        0.1499
      6 C           5.9338   -3.1573   23.7649 C.3     1  UNL1        0.1530
      7 C           5.7254   -3.1811   22.2797 C.2     1  UNL1        0.2409
      8 O           6.4712   -4.1700   21.4335 O.2     1  UNL1       -0.2733
      9 N           4.7714   -2.2161   21.6406 N.am    1  UNL1       -0.2983
     10 H           4.2819   -1.5671   22.1960 H       1  UNL1        0.1498
     11 C           4.5631   -2.2399   20.1553 C.3     1  UNL1        0.1319
     12 C           5.3854   -1.3528   19.2683 C.2     1  UNL1        0.1948
     13 O           6.8750   -1.5208   19.2130 O.2     1  UNL1       -0.2918
     14 C           4.7183   -0.2978   18.4366 C.3     1  UNL1        0.1723
     15 C           4.9162   -0.5434   17.3896 C.3     1  UNL1        0.0399
     16 C           3.9244    0.9245   18.0817 C.3     1  UNL1        0.1767
     17 O           4.1218    0.5500   19.5208 O.3     1  UNL1       -0.3461
     18 C           3.5324   -3.1508   19.5570 C.3     1  UNL1        0.0273
     19 C           3.8644   -4.5901   19.2960 C.3     1  UNL1        0.0021
     20 C           4.5803   -4.9785   18.5663 C.3     1  UNL1        0.0001
     21 C           3.1823   -5.6714   20.0805 C.3     1  UNL1        0.0001
     22 C           7.2450   -3.5974   24.3455 C.3     1  UNL1        0.0553
     23 C           7.4160   -5.0071   24.8285 C.ar    1  UNL1       -0.0200
     24 C           6.8818   -5.4099   26.1711 C.ar    1  UNL1       -0.0042
     25 C           7.0528   -6.8196   26.6541 C.ar    1  UNL1       -0.0003
     26 C           7.7580   -7.8266   25.7947 C.ar    1  UNL1       -0.0000
     27 C           8.2922   -7.4239   24.4521 C.ar    1  UNL1       -0.0003
     28 C           8.1212   -6.0141   23.9690 C.ar    1  UNL1       -0.0042
     29 N           2.6811    0.2034   25.5377 N.am    1  UNL1       -0.2970
     30 C           2.2081    0.1573   24.1150 C.2     1  UNL1        0.2406
     31 O           2.7353   -0.8931   23.1831 O.2     1  UNL1       -0.2733
     32 H           2.3350    0.8929   26.1494 H       1  UNL1        0.1499
     33 C           1.2079    1.1616   23.6243 C.3     1  UNL1        0.1489
     34 N           0.6362    1.0376   22.2431 N.am    1  UNL1       -0.2972
     35 C           1.2243    1.8307   21.1139 C.2     1  UNL1        0.2391
     36 O           2.3841    2.7479   21.3661 O.2     1  UNL1       -0.2736
     37 H          -0.1250    0.4355   22.0776 H       1  UNL1        0.1499
     38 C           0.6527    1.7067   19.7327 C.3     1  UNL1        0.1585
     39 N          -0.3308    2.7235   19.2339 N.3     1  UNL1       -0.2607
     40 C          -1.4212    3.2184   20.1373 C.3     1  UNL1        0.1050
     41 C          -2.4046    4.2352   19.6386 C.3     1  UNL1        0.1595
     42 O          -2.2978    4.7572   18.2364 O.3     1  UNL1       -0.3508
     43 C          -1.2074    4.2623   17.3330 C.3     1  UNL1        0.1595
     44 C          -0.2239    3.2454   17.8317 C.3     1  UNL1        0.1050
     45 C           0.7792    2.2901   24.5148 C.3     1  UNL1        0.0337
     46 C          -0.3506    2.0947   25.4819 C.3     1  UNL1        0.0286
     47 C          -0.0614    1.8320   26.9302 C.ar    1  UNL1       -0.0221
     48 C           0.9533    2.6653   27.6555 C.ar    1  UNL1       -0.0043
     49 C           1.2425    2.4026   29.1036 C.ar    1  UNL1       -0.0003
     50 C           0.5171    1.3066   29.8265 C.ar    1  UNL1       -0.0000
     51 C          -0.4976    0.4733   29.1012 C.ar    1  UNL1       -0.0003
     52 C          -0.7868    0.7360   27.6530 C.ar    1  UNL1       -0.0043
     53 C           3.5787   -1.3414   27.4240 C.3     1  UNL1        0.0290
     54 C           4.8756   -0.0076   29.2376 C.3     1  UNL1        0.0001
     55 C           4.7419   -1.2190   28.3630 C.3     1  UNL1        0.0021
     56 C           5.7715   -2.3079   28.4277 C.3     1  UNL1        0.0001
@<TRIPOS>BOND
     1    54    55    1
     2    55    56    1
     3    55    53    1
     4     1    53    1
     5     1    29    1
     6    29    30   am
     7    30    31    2
     8    30    33    1
     9    33    45    1
    10    45    46    1
    11    46    47    1
    12    47    48   ar
    13    48    49   ar
    14    49    50   ar
    15    50    51   ar
    16    51    52   ar
    17    33    34    1
    18    34    35   am
    19    35    36    2
    20    35    38    1
    21    38    39    1
    22    39    40    1
    23    40    41    1
    24    41    42    1
    25    42    43    1
    26    43    44    1
    27     1     2    1
    28     2     3    2
    29     2     4   am
    30     4     6    1
    31     6    22    1
    32    22    23    1
    33    23    24   ar
    34    24    25   ar
    35    25    26   ar
    36    26    27   ar
    37    27    28   ar
    38     6     7    1
    39     7     8    2
    40     7     9   am
    41     9    11    1
    42    11    18    1
    43    18    19    1
    44    19    20    1
    45    19    21    1
    46    11    12    1
    47    12    13    2
    48    12    14    1
    49    14    15    1
    50    14    16    1
    51    16    17    1
    52    52    47   ar
    53    44    39    1
    54    28    23   ar
    55    17    14    1
    56    29    32    1
    57    34    37    1
    58     4     5    1
    59     9    10    1
@<TRIPOS>MOLECULE
*****
 56 59 0 0 0
SMALL
GASTEIGER

@<TRIPOS>ATOM
      1 C           3.5969   -0.6419   24.7434 C.3     1  UNL1        0.1486
      2 C           4.0755   -0.7093   26.1634 C.2     1  UNL1        0.2406
      3 O           3.4423   -1.6725   27.1233 O.2     1  UNL1       -0.2733
      4 N           5.1873    0.1863   26.6234 N.am    1  UNL1       -0.2967
      5 H           5.6029    0.8184   25.9934 H       1  UNL1        0.1499
      6 C           5.6659    0.1188   28.0434 C.3     1  UNL1        0.1530
      7 C           4.7784    0.5897   29.1572 C.2     1  UNL1        0.2409
      8 O           5.0242    1.9228   29.7995 O.2     1  UNL1       -0.2733
      9 N           3.6451   -0.2724   29.6287 N.am    1  UNL1       -0.2983
     10 H           3.4838   -1.1474   29.2072 H       1  UNL1        0.1498
     11 C           2.7576    0.1985   30.7426 C.3     1  UNL1        0.1319
     12 C           1.4323    0.8279   30.4305 C.2     1  UNL1        0.1948
     13 O           0.6818    1.5651   31.4998 O.2     1  UNL1       -0.2918
     14 C           0.8577    0.7202   29.0492 C.3     1  UNL1        0.1723
     15 C           0.0842   -0.0520   29.0839 C.3     1  UNL1        0.0399
     16 C           0.6370    0.9866   27.5895 C.3     1  UNL1        0.1767
     17 O           1.6775    1.7600   28.3442 O.3     1  UNL1       -0.3461
     18 C           3.1955    0.0400   32.1685 C.3     1  UNL1        0.0273
     19 C           4.3582   -0.8470   32.5018 C.3     1  UNL1        0.0021
     20 C           4.3740   -1.9404   32.4984 C.3     1  UNL1        0.0001
     21 C           5.6748   -0.2431   32.8913 C.3     1  UNL1        0.0001
     22 C           7.0321   -0.4195   28.3496 C.3     1  UNL1        0.0553
     23 C           7.1993   -1.5021   29.3744 C.ar    1  UNL1       -0.0200
     24 C           6.4130   -2.7740   29.2569 C.ar    1  UNL1       -0.0042
     25 C           6.5802   -3.8566   30.2816 C.ar    1  UNL1       -0.0003
     26 C           7.5337   -3.6672   31.4239 C.ar    1  UNL1       -0.0000
     27 C           8.3200   -2.3952   31.5415 C.ar    1  UNL1       -0.0003
     28 C           8.1528   -1.3126   30.5168 C.ar    1  UNL1       -0.0042
     29 N           4.3482   -1.3628   23.6636 N.am    1  UNL1       -0.2970
     30 C           5.5608   -0.7329   23.0449 C.2     1  UNL1        0.2406
     31 O           6.0221    0.6179   23.5059 O.2     1  UNL1       -0.2733
     32 H           4.0455   -2.2494   23.3610 H       1  UNL1        0.1499
     33 C           6.3121   -1.4538   21.9652 C.3     1  UNL1        0.1489
     34 N           7.3184   -2.5060   22.3260 N.am    1  UNL1       -0.2972
     35 C           6.8660   -3.9028   22.6328 C.2     1  UNL1        0.2391
     36 O           5.4071   -4.2474   22.5787 O.2     1  UNL1       -0.2736
     37 H           8.2759   -2.2797   22.3615 H       1  UNL1        0.1499
     38 C           7.8723   -4.9549   22.9936 C.3     1  UNL1        0.1585
     39 N           7.7294   -5.7215   24.2750 N.3     1  UNL1       -0.2607
     40 C           7.1047   -5.0699   25.4731 C.3     1  UNL1        0.1050
     41 C           6.9618   -5.8364   26.7544 C.3     1  UNL1        0.1595
     42 O           7.4434   -7.2546   26.8378 O.3     1  UNL1       -0.3508
     43 C           8.0680   -7.9061   25.6398 C.3     1  UNL1        0.1595
     44 C           8.2110   -7.1396   24.3583 C.3     1  UNL1        0.1050
     45 C           6.0570   -1.1226   20.5246 C.3     1  UNL1        0.0337
     46 C           4.9200   -1.7745   19.7950 C.3     1  UNL1        0.0286
     47 C           3.6389   -1.0245   19.5793 C.ar    1  UNL1       -0.0221
     48 C           3.5742    0.0707   18.5564 C.ar    1  UNL1       -0.0043
     49 C           2.2932    0.8206   18.3406 C.ar    1  UNL1       -0.0003
     50 C           1.0769    0.4753   19.1478 C.ar    1  UNL1       -0.0000
     51 C           1.1417   -0.6199   20.1706 C.ar    1  UNL1       -0.0003
     52 C           2.4227   -1.3698   20.3864 C.ar    1  UNL1       -0.0043
     53 C           2.3670    0.1465   24.4031 C.3     1  UNL1        0.0290
     54 C           2.3117    2.7180   24.7696 C.3     1  UNL1        0.0001
     55 C           2.4950    1.5390   23.8605 C.3     1  UNL1        0.0021
     56 C           2.8064    1.7526   22.4088 C.3     1  UNL1        0.0001
@<TRIPOS>BOND
     1    54    55    1
     2    55    56    1
     3    55    53    1
     4     1    53    1
     5     1    29    1
     6    29    30   am
     7    30    31    2
     8    30    33    1
     9    33    45    1
    10    45    46    1
    11    46    47    1
    12    47    48   ar
    13    48    49   ar
    14    49    50   ar
    15    50    51   ar
    16    51    52   ar
    17    33    34    1
    18    34    35   am
    19    35    36    2
    20    35    38    1
    21    38    39    1
    22    39    40    1
    23    40    41    1
    24    41    42    1
    25    42    43    1
    26    43    44    1
    27     1     2    1
    28     2     3    2
    29     2     4   am
    30     4     6    1
    31     6    22    1
    32    22    23    1
    33    23    24   ar
    34    24    25   ar
    35    25    26   ar
    36    26    27   ar
    37    27    28   ar
    38     6     7    1
    39     7     8    2
    40     7     9   am
    41     9    11    1
    42    11    18    1
    43    18    19    1
    44    19    20    1
    45    19    21    1
    46    11    12    1
    47    12    13    2
    48    12    14    1
    49    14    15    1
    50    14    16    1
    51    16    17    1
    52    52    47   ar
    53    44    39    1
    54    28    23   ar
    55    17    14    1
    56    29    32    1
    57    34    37    1
    58     4     5    1
    59     9    10    1
@<TRIPOS>MOLECULE
*****
 56 59 0 0 0
SMALL
GASTEIGER

@<TRIPOS>ATOM
      1 C           2.1386    0.7707   25.8377 C.3     1  UNL1        0.1486
      2 C           1.6646    1.7468   24.8021 C.2     1  UNL1        0.2406
      3 O           2.6059    2.7813   24.2600 O.2     1  UNL1       -0.2733
      4 N           0.2493    1.6885   24.3086 N.am    1  UNL1       -0.2967
      5 H          -0.3685    1.0095   24.6643 H       1  UNL1        0.1499
      6 C          -0.2247    2.6646   23.2729 C.3     1  UNL1        0.1530
      7 C          -0.0284    2.3667   21.8160 C.2     1  UNL1        0.2409
      8 O          -1.2174    2.2262   20.9123 O.2     1  UNL1       -0.2733
      9 N           1.3569    2.2093   21.2627 N.am    1  UNL1       -0.2983
     10 H           2.1373    2.3015   21.8557 H       1  UNL1        0.1498
     11 C           1.5532    1.9114   19.8057 C.3     1  UNL1        0.1319
     12 C           1.2897    2.9743   18.7807 C.2     1  UNL1        0.1948
     13 O           0.1916    2.7911   17.7754 O.2     1  UNL1       -0.2918
     14 C           2.1244    4.2205   18.7610 C.3     1  UNL1        0.1723
     15 C           2.8224    4.1247   17.9247 C.3     1  UNL1        0.0399
     16 C           2.6535    5.5689   19.1507 C.3     1  UNL1        0.1767
     17 O           1.5346    4.9475   19.9330 O.3     1  UNL1       -0.3461
     18 C           2.0130    0.5505   19.3737 C.3     1  UNL1        0.0273
     19 C           3.2492    0.4072   18.5364 C.3     1  UNL1        0.0021
     20 C           3.3407   -0.1201   17.5828 C.3     1  UNL1        0.0001
     21 C           4.5380    1.0263   18.9897 C.3     1  UNL1        0.0001
     22 C          -0.8950    3.9386   23.6942 C.3     1  UNL1        0.0553
     23 C          -2.2338    3.8940   24.3692 C.ar    1  UNL1       -0.0200
     24 C          -2.3229    3.9727   25.8644 C.ar    1  UNL1       -0.0042
     25 C          -3.6617    3.9281   26.5393 C.ar    1  UNL1       -0.0003
     26 C          -4.9115    3.8049   25.7190 C.ar    1  UNL1       -0.0000
     27 C          -4.8224    3.7263   24.2237 C.ar    1  UNL1       -0.0003
     28 C          -3.4836    3.7708   23.5488 C.ar    1  UNL1       -0.0042
     29 N           2.7584   -0.5285   25.4158 N.am    1  UNL1       -0.2970
     30 C           4.2502   -0.6514   25.3194 C.2     1  UNL1        0.2406
     31 O           5.1223    0.5248   25.6449 O.2     1  UNL1       -0.2733
     32 H           2.1860   -1.3005   25.2022 H       1  UNL1        0.1499
     33 C           4.8699   -1.9506   24.8975 C.3     1  UNL1        0.1489
     34 N           5.7249   -2.7211   25.8594 N.am    1  UNL1       -0.2972
     35 C           7.2080   -2.4986   25.8888 C.2     1  UNL1        0.2391
     36 O           7.8361   -1.5056   24.9563 O.2     1  UNL1       -0.2736
     37 H           5.3127   -3.3728   26.4715 H       1  UNL1        0.1499
     38 C           8.0631   -3.2690   26.8507 C.3     1  UNL1        0.1585
     39 N           7.5427   -3.5995   28.2182 N.3     1  UNL1       -0.2607
     40 C           7.1841   -2.4976   29.1707 C.3     1  UNL1        0.1050
     41 C           6.6637   -2.8282   30.5382 C.3     1  UNL1        0.1595
     42 O           6.5019   -4.2605   30.9531 O.3     1  UNL1       -0.3508
     43 C           6.8605   -5.3624   30.0006 C.3     1  UNL1        0.1595
     44 C           7.3809   -5.0319   28.6331 C.3     1  UNL1        0.1050
     45 C           4.6346   -2.4794   23.5136 C.3     1  UNL1        0.0337
     46 C           4.7545   -1.5648   22.3308 C.3     1  UNL1        0.0286
     47 C           4.9207   -2.1369   20.9541 C.ar    1  UNL1       -0.0221
     48 C           6.2139   -1.9534   20.2168 C.ar    1  UNL1       -0.0043
     49 C           6.3800   -2.5255   18.8402 C.ar    1  UNL1       -0.0003
     50 C           5.2529   -3.2811   18.2009 C.ar    1  UNL1       -0.0000
     51 C           3.9596   -3.4646   18.9383 C.ar    1  UNL1       -0.0003
     52 C           3.7935   -2.8925   20.3149 C.ar    1  UNL1       -0.0043
     53 C           1.9928    1.0938   27.2952 C.3     1  UNL1        0.0290
     54 C          -0.5497    0.8861   27.7879 C.3     1  UNL1        0.0001
     55 C           0.7157    1.6915   27.8068 C.3     1  UNL1        0.0021
     56 C           0.7039    3.0944   28.3374 C.3     1  UNL1        0.0001
@<TRIPOS>BOND
     1    54    55    1
     2    55    56    1
     3    55    53    1
     4     1    53    1
     5     1    29    1
     6    29    30   am
     7    30    31    2
     8    30    33    1
     9    33    45    1
    10    45    46    1
    11    46    47    1
    12    47    48   ar
    13    48    49   ar
    14    49    50   ar
    15    50    51   ar
    16    51    52   ar
    17    33    34    1
    18    34    35   am
    19    35    36    2
    20    35    38    1
    21    38    39    1
    22    39    40    1
    23    40    41    1
    24    41    42    1
    25    42    43    1
    26    43    44    1
    27     1     2    1
    28     2     3    2
    29     2     4   am
    30     4     6    1
    31     6    22    1
    32    22    23    1
    33    23    24   ar
    34    24    25   ar
    35    25    26   ar
    36    26    27   ar
    37    27    28   ar
    38     6     7    1
    39     7     8    2
    40     7     9   am
    41     9    11    1
    42    11    18    1
    43    18    19    1
    44    19    20    1
    45    19    21    1
    46    11    12    1
    47    12    13    2
    48    12    14    1
    49    14    15    1
    50    14    16    1
    51    16    17    1
    52    52    47   ar
    53    44    39    1
    54    28    23   ar
    55    17    14    1
    56    29    32    1
    57    34    37    1
    58     4     5    1
    59     9    10    1
@<TRIPOS>MOLECULE
*****
 56 59 0 0 0
SMALL
GASTEIGER

@<TRIPOS>ATOM
      1 C           1.9243    2.8255   20.2952 C.3     1  UNL1        0.1486
      2 C           0.7231    3.7233   20.2618 C.2     1  UNL1        0.2406
      3 O           0.8770    5.1921   20.5247 O.2     1  UNL1       -0.2733
      4 N          -0.6320    3.1523   19.9656 N.am    1  UNL1       -0.2967
      5 H          -0.7330    2.1884   19.7930 H       1  UNL1        0.1499
      6 C          -1.8331    4.0501   19.9322 C.3     1  UNL1        0.1530
      7 C          -2.6163    4.3019   21.1864 C.2     1  UNL1        0.2409
      8 O          -2.7773    5.7014   21.7019 O.2     1  UNL1       -0.2733
      9 N          -3.2386    3.1544   21.9252 N.am    1  UNL1       -0.2983
     10 H          -3.1330    2.2359   21.5869 H       1  UNL1        0.1498
     11 C          -4.0219    3.4063   23.1795 C.3     1  UNL1        0.1319
     12 C          -3.3077    3.7436   24.4547 C.2     1  UNL1        0.1948
     13 O          -1.9671    3.1373   24.7465 O.2     1  UNL1       -0.2918
     14 C          -3.9341    4.6873   25.4380 C.3     1  UNL1        0.1723
     15 C          -3.6672    5.7001   25.1239 C.3     1  UNL1        0.0399
     16 C          -4.7193    5.1759   26.6191 C.3     1  UNL1        0.1767
     17 O          -4.6086    3.7045   26.3487 O.3     1  UNL1       -0.3461
     18 C          -5.5193    3.3207   23.1585 C.3     1  UNL1        0.0273
     19 C          -6.3306    4.4891   22.6824 C.3     1  UNL1        0.0021
     20 C          -6.2864    4.9636   21.6983 C.3     1  UNL1        0.0001
     21 C          -7.3316    5.1298   23.5976 C.3     1  UNL1        0.0001
     22 C          -2.2511    4.6961   18.6446 C.3     1  UNL1        0.0553
     23 C          -3.7066    4.9060   18.3487 C.ar    1  UNL1       -0.0200
     24 C          -4.2020    6.2635   17.9467 C.ar    1  UNL1       -0.0042
     25 C          -5.6575    6.4734   17.6508 C.ar    1  UNL1       -0.0003
     26 C          -6.6175    5.3258   17.7568 C.ar    1  UNL1       -0.0000
     27 C          -6.1221    3.9682   18.1588 C.ar    1  UNL1       -0.0003
     28 C          -4.6667    3.7583   18.4547 C.ar    1  UNL1       -0.0042
     29 N           2.3374    2.1729   21.5811 N.am    1  UNL1       -0.2970
     30 C           1.5172    1.0541   22.1517 C.2     1  UNL1        0.2406
     31 O           0.2840    0.5879   21.4365 O.2     1  UNL1       -0.2733
     32 H           3.1468    2.4789   22.0506 H       1  UNL1        0.1499
     33 C           1.9304    0.4017   23.4376 C.3     1  UNL1        0.1489
     34 N           1.3163    0.8421   24.7333 N.am    1  UNL1       -0.2972
     35 C           1.6467    2.1913   25.2995 C.2     1  UNL1        0.2391
     36 O           2.5912    3.0999   24.5700 O.2     1  UNL1       -0.2736
     37 H           0.6963    0.2457   25.2121 H       1  UNL1        0.1499
     38 C           1.0326    2.6318   26.5952 C.3     1  UNL1        0.1585
     39 N           0.5525    1.6103   27.5832 N.3     1  UNL1       -0.2607
     40 C          -0.9183    1.3953   27.7849 C.3     1  UNL1        0.1050
     41 C          -1.3984    0.3738   28.7728 C.3     1  UNL1        0.1595
     42 O          -0.4078   -0.4326   29.5591 O.3     1  UNL1       -0.3508
     43 C           1.0629   -0.2176   29.3575 C.3     1  UNL1        0.1595
     44 C           1.5431    0.8039   28.3695 C.3     1  UNL1        0.1050
     45 C           2.9576   -0.6914   23.4278 C.3     1  UNL1        0.0337
     46 C           4.0955   -0.6425   22.4517 C.3     1  UNL1        0.0286
     47 C           4.2509   -1.7259   21.4260 C.ar    1  UNL1       -0.0221
     48 C           3.1967   -1.9224   20.3771 C.ar    1  UNL1       -0.0043
     49 C           3.3521   -3.0058   19.3514 C.ar    1  UNL1       -0.0003
     50 C           4.5616   -3.8927   19.3745 C.ar    1  UNL1       -0.0000
     51 C           5.6157   -3.6962   20.4234 C.ar    1  UNL1       -0.0003
     52 C           5.4603   -2.6128   21.4491 C.ar    1  UNL1       -0.0043
     53 C           2.7124    2.5802   19.0427 C.3     1  UNL1        0.0290
     54 C           3.9996    0.5881   17.9822 C.3     1  UNL1        0.0001
     55 C           2.7080    1.2212   18.4079 C.3     1  UNL1        0.0021
     56 C           1.4121    0.4953   18.1988 C.3     1  UNL1        0.0001
@<TRIPOS>BOND
     1    54    55    1
     2    55    56    1
     3    55    53    1
     4     1    53    1
     5     1    29    1
     6    29    30   am
     7    30    31    2
     8    30    33    1
     9    33    45    1
    10    45    46    1
    11    46    47    1
    12    47    48   ar
    13    48    49   ar
    14    49    50   ar
    15    50    51   ar
    16    51    52   ar
    17    33    34    1
    18    34    35   am
    19    35    36    2
    20    35    38    1
    21    38    39    1
    22    39    40    1
    23    40    41    1
    24    41    42    1
    25    42    43    1
    26    43    44    1
    27     1     2    1
    28     2     3    2
    29     2     4   am
    30     4     6    1
    31     6    22    1
    32    22    23    1
    33    23    24   ar
    34    24    25   ar
    35    25    26   ar
    36    26    27   ar
    37    27    28   ar
    38     6     7    1
    39     7     8    2
    40     7     9   am
    41     9    11    1
    42    11    18    1
    43    18    19    1
    44    19    20    1
    45    19    21    1
    46    11    12    1
    47    12    13    2
    48    12    14    1
    49    14    15    1
    50    14    16    1
    51    16    17    1
    52    52    47   ar
    53    44    39    1
    54    28    23   ar
    55    17    14    1
    56    29    32    1
    57    34    37    1
    58     4     5    1
    59     9    10    1
@<TRIPOS>MOLECULE
*****
 56 59 0 0 0
SMALL
GASTEIGER

@<TRIPOS>ATOM
      1 C           3.4476    0.2199   25.2604 C.3     1  UNL1        0.1486
      2 C           4.4406   -0.6823   24.5896 C.2     1  UNL1        0.2406
      3 O           5.6941   -0.1093   23.9976 O.2     1  UNL1       -0.2733
      4 N           4.1801   -2.1573   24.5108 N.am    1  UNL1       -0.2967
      5 H           3.3574   -2.5334   24.8994 H       1  UNL1        0.1499
      6 C           5.1732   -3.0595   23.8400 C.3     1  UNL1        0.1530
      7 C           6.4379   -3.4423   24.5498 C.2     1  UNL1        0.2409
      8 O           7.7296   -2.7657   24.1980 O.2     1  UNL1       -0.2733
      9 N           6.4109   -4.5015   25.6115 N.am    1  UNL1       -0.2983
     10 H           5.5631   -4.9456   25.8425 H       1  UNL1        0.1498
     11 C           7.6757   -4.8843   26.3214 C.3     1  UNL1        0.1319
     12 C           7.9100   -4.4325   27.7324 C.2     1  UNL1        0.1948
     13 O           8.1633   -5.4433   28.8113 O.2     1  UNL1       -0.2918
     14 C           7.8910   -2.9699   28.0645 C.3     1  UNL1        0.1723
     15 C           8.9317   -2.6356   28.0964 C.3     1  UNL1        0.0399
     16 C           7.3605   -1.6063   28.3957 C.3     1  UNL1        0.1767
     17 O           6.4118   -2.7476   28.1772 O.3     1  UNL1       -0.3461
     18 C           8.7062   -5.7188   25.6202 C.3     1  UNL1        0.0273
     19 C           8.3365   -7.0674   25.0775 C.3     1  UNL1        0.0021
     20 C           7.8304   -7.8758   25.6122 C.3     1  UNL1        0.0001
     21 C           8.6633   -7.4193   23.6564 C.3     1  UNL1        0.0001
     22 C           4.9015   -3.5790   22.4593 C.3     1  UNL1        0.0553
     23 C           4.8412   -2.6299   21.2993 C.ar    1  UNL1       -0.0200
     24 C           5.9772   -1.6842   21.0442 C.ar    1  UNL1       -0.0042
     25 C           5.9169   -0.7351   19.8841 C.ar    1  UNL1       -0.0003
     26 C           4.7206   -0.7318   18.9792 C.ar    1  UNL1       -0.0000
     27 C           3.5846   -1.6775   19.2343 C.ar    1  UNL1       -0.0003
     28 C           3.6448   -2.6266   20.3944 C.ar    1  UNL1       -0.0042
     29 N           3.7580    0.8091   26.6045 N.am    1  UNL1       -0.2970
     30 C           3.7025   -0.0517   27.8317 C.2     1  UNL1        0.2406
     31 O           3.3366   -1.5017   27.7148 O.2     1  UNL1       -0.2733
     32 H           3.9981    1.7608   26.6813 H       1  UNL1        0.1499
     33 C           4.0129    0.5375   29.1757 C.3     1  UNL1        0.1489
     34 N           4.5928   -0.3253   30.2570 N.am    1  UNL1       -0.2972
     35 C           3.6870   -1.0097   31.2373 C.2     1  UNL1        0.2391
     36 O           2.2011   -0.8313   31.1362 O.2     1  UNL1       -0.2736
     37 H           5.5681   -0.4424   30.3233 H       1  UNL1        0.1499
     38 C           4.2669   -1.8724   32.3186 C.3     1  UNL1        0.1585
     39 N           5.7499   -2.0848   32.3941 N.3     1  UNL1       -0.2607
     40 C           6.6095   -1.1124   33.1462 C.3     1  UNL1        0.1050
     41 C           8.0924   -1.3248   33.2217 C.3     1  UNL1        0.1595
     42 O           8.7158   -2.5096   32.5452 O.3     1  UNL1       -0.3508
     43 C           7.8563   -3.4820   31.7931 C.3     1  UNL1        0.1595
     44 C           6.3733   -3.2696   31.7176 C.3     1  UNL1        0.1050
     45 C           3.7432    1.9895   29.4385 C.3     1  UNL1        0.0337
     46 C           2.3455    2.4532   29.7232 C.3     1  UNL1        0.0286
     47 C           1.2876    2.3401   28.6657 C.ar    1  UNL1       -0.0221
     48 C           1.2382    3.3357   27.5449 C.ar    1  UNL1       -0.0043
     49 C           0.1804    3.2226   26.4874 C.ar    1  UNL1       -0.0003
     50 C          -0.8280    2.1139   26.5508 C.ar    1  UNL1       -0.0000
     51 C          -0.7785    1.1183   27.6717 C.ar    1  UNL1       -0.0003
     52 C           0.2793    1.2314   28.7291 C.ar    1  UNL1       -0.0043
     53 C           2.1443    0.5329   24.5872 C.3     1  UNL1        0.0290
     54 C           2.2589    0.4670   21.9924 C.3     1  UNL1        0.0001
     55 C           2.1340    1.2466   23.2679 C.3     1  UNL1        0.0021
     56 C           1.9990    2.7399   23.2240 C.3     1  UNL1        0.0001
@<TRIPOS>BOND
     1    54    55    1
     2    55    56    1
     3    55    53    1
     4     1    53    1
     5     1    29    1
     6    29    30   am
     7    30    31    2
     8    30    33    1
     9    33    45    1
    10    45    46    1
    11    46    47    1
    12    47    48   ar
    13    48    49   ar
    14    49    50   ar
    15    50    51   ar
    16    51    52   ar
    17    33    34    1
    18    34    35   am
    19    35    36    2
    20    35    38    1
    21    38    39    1
    22    39    40    1
    23    40    41    1
    24    41    42    1
    25    42    43    1
    26    43    44    1
    27     1     2    1
    28     2     3    2
    29     2     4   am
    30     4     6    1
    31     6    22    1
    32    22    23    1
    33    23    24   ar
    34    24    25   ar
    35    25    26   ar
    36    26    27   ar
    37    27    28   ar
    38     6     7    1
    39     7     8    2
    40     7     9   am
    41     9    11    1
    42    11    18    1
    43    18    19    1
    44    19    20    1
    45    19    21    1
    46    11    12    1
    47    12    13    2
    48    12    14    1
    49    14    15    1
    50    14    16    1
    51    16    17    1
    52    52    47   ar
    53    44    39    1
    54    28    23   ar
    55    17    14    1
    56    29    32    1
    57    34    37    1
    58     4     5    1
    59     9    10    1
@<TRIPOS>MOLECULE
*****
 56 59 0 0 0
SMALL
GASTEIGER

@<TRIPOS>ATOM
      1 C           3.7977   -1.1750   25.1486 C.3     1  UNL1        0.1486
      2 C           4.9734   -1.5928   24.3161 C.2     1  UNL1        0.2406
      3 O           5.9135   -0.5577   23.7730 O.2     1  UNL1       -0.2733
      4 N           5.2090   -3.0456   24.0266 N.am    1  UNL1       -0.2967
      5 H           4.5920   -3.7249   24.3831 H       1  UNL1        0.1499
      6 C           6.3847   -3.4633   23.1941 C.3     1  UNL1        0.1530
      7 C           6.3003   -3.4110   21.6974 C.2     1  UNL1        0.2409
      8 O           6.4761   -4.6642   20.8920 O.2     1  UNL1       -0.2733
      9 N           6.0402   -2.1055   21.0060 N.am    1  UNL1       -0.2983
     10 H           5.9248   -1.2830   21.5346 H       1  UNL1        0.1498
     11 C           5.9558   -2.0532   19.5093 C.3     1  UNL1        0.1319
     12 C           4.6572   -2.3517   18.8204 C.2     1  UNL1        0.1948
     13 O           4.1941   -3.7711   18.6754 O.2     1  UNL1       -0.2918
     14 C           3.8218   -1.2310   18.2766 C.3     1  UNL1        0.1723
     15 C           3.2307   -0.8396   19.1091 C.3     1  UNL1        0.0399
     16 C           3.2393   -0.2525   17.3001 C.3     1  UNL1        0.1767
     17 O           4.2602   -1.2517   16.8422 O.3     1  UNL1       -0.3461
     18 C           7.1700   -1.7023   18.7015 C.3     1  UNL1        0.0273
     19 C           7.5396   -0.2642   18.4890 C.3     1  UNL1        0.0021
     20 C           7.2167    0.3842   17.6699 C.3     1  UNL1        0.0001
     21 C           8.4461    0.4289   19.4627 C.3     1  UNL1        0.0001
     22 C           7.6448   -3.9335   23.8582 C.3     1  UNL1        0.0553
     23 C           7.6662   -5.2474   24.5815 C.ar    1  UNL1       -0.0200
     24 C           8.3315   -6.4373   23.9557 C.ar    1  UNL1       -0.0042
     25 C           8.3528   -7.7512   24.6790 C.ar    1  UNL1       -0.0003
     26 C           7.7089   -7.8752   26.0281 C.ar    1  UNL1       -0.0000
     27 C           7.0436   -6.6854   26.6539 C.ar    1  UNL1       -0.0003
     28 C           7.0222   -5.3714   25.9306 C.ar    1  UNL1       -0.0042
     29 N           2.6390   -0.4687   24.5093 N.am    1  UNL1       -0.2970
     30 C           2.6576    1.0242   24.3651 C.2     1  UNL1        0.2406
     31 O           3.8348    1.8109   24.8604 O.2     1  UNL1       -0.2733
     32 H           1.8663   -0.9850   24.1842 H       1  UNL1        0.1499
     33 C           1.4990    1.7305   23.7258 C.3     1  UNL1        0.1489
     34 N           1.6417    2.3127   22.3508 N.am    1  UNL1       -0.2972
     35 C           0.9629    1.6573   21.1847 C.2     1  UNL1        0.2391
     36 O           0.1414    0.4198   21.3937 O.2     1  UNL1       -0.2736
     37 H           2.1808    3.1249   22.2136 H       1  UNL1        0.1499
     38 C           1.1055    2.2395   19.8097 C.3     1  UNL1        0.1585
     39 N          -0.0593    2.9278   19.1621 N.3     1  UNL1       -0.2607
     40 C          -0.0232    3.2442   17.6962 C.3     1  UNL1        0.1050
     41 C          -1.1880    3.9325   17.0486 C.3     1  UNL1        0.1595
     42 O          -2.3890    4.3043   17.8668 O.3     1  UNL1       -0.3508
     43 C          -2.4252    3.9878   19.3325 C.3     1  UNL1        0.1595
     44 C          -1.2603    3.2996   19.9802 C.3     1  UNL1        0.1050
     45 C           0.1976    1.8545   24.4615 C.3     1  UNL1        0.0337
     46 C           0.1688    2.4448   25.8401 C.3     1  UNL1        0.0286
     47 C           0.0248    1.5507   27.0360 C.ar    1  UNL1       -0.0221
     48 C          -1.3214    1.3539   27.6675 C.ar    1  UNL1       -0.0043
     49 C          -1.4653    0.4599   28.8633 C.ar    1  UNL1       -0.0003
     50 C          -0.2630   -0.2373   29.4275 C.ar    1  UNL1       -0.0000
     51 C           1.0832   -0.0405   28.7960 C.ar    1  UNL1       -0.0003
     52 C           1.2271    0.8535   27.6002 C.ar    1  UNL1       -0.0043
     53 C           3.7806   -1.4634   26.6205 C.3     1  UNL1        0.0290
     54 C           5.8388   -2.4015   27.8987 C.3     1  UNL1        0.0001
     55 C           5.0132   -1.2345   27.4440 C.3     1  UNL1        0.0021
     56 C           5.4204    0.1613   27.8127 C.3     1  UNL1        0.0001
@<TRIPOS>BOND
     1    54    55    1
     2    55    56    1
     3    55    53    1
     4     1    53    1
     5     1    29    1
     6    29    30   am
     7    30    31    2
     8    30    33    1
     9    33    45    1
    10    45    46    1
    11    46    47    1
    12    47    48   ar
    13    48    49   ar
    14    49    50   ar
    15    50    51   ar
    16    51    52   ar
    17    33    34    1
    18    34    35   am
    19    35    36    2
    20    35    38    1
    21    38    39    1
    22    39    40    1
    23    40    41    1
    24    41    42    1
    25    42    43    1
    26    43    44    1
    27     1     2    1
    28     2     3    2
    29     2     4   am
    30     4     6    1
    31     6    22    1
    32    22    23    1
    33    23    24   ar
    34    24    25   ar
    35    25    26   ar
    36    26    27   ar
    37    27    28   ar
    38     6     7    1
    39     7     8    2
    40     7     9   am
    41     9    11    1
    42    11    18    1
    43    18    19    1
    44    19    20    1
    45    19    21    1
    46    11    12    1
    47    12    13    2
    48    12    14    1
    49    14    15    1
    50    14    16    1
    51    16    17    1
    52    52    47   ar
    53    44    39    1
    54    28    23   ar
    55    17    14    1
    56    29    32    1
    57    34    37    1
    58     4     5    1
    59     9    10    1
@<TRIPOS>MOLECULE
*****
 56 59 0 0 0
SMALL
GASTEIGER

@<TRIPOS>ATOM
      1 C           1.2469    1.2568   24.1909 C.3     1  UNL1        0.1486
      2 C           1.0064    1.8261   22.8242 C.2     1  UNL1        0.2406
      3 O           1.5892    3.1576   22.4531 O.2     1  UNL1       -0.2733
      4 N           0.1830    1.0641   21.8285 N.am    1  UNL1       -0.2967
      5 H          -0.1995    0.1902   22.0721 H       1  UNL1        0.1499
      6 C          -0.0575    1.6334   20.4618 C.3     1  UNL1        0.1530
      7 C          -0.8912    2.8698   20.3004 C.2     1  UNL1        0.2409
      8 O          -0.2458    4.1622   19.8963 O.2     1  UNL1       -0.2733
      9 N          -2.3704    2.8140   20.5431 N.am    1  UNL1       -0.2983
     10 H          -2.7941    1.9658   20.8084 H       1  UNL1        0.1498
     11 C          -3.2041    4.0505   20.3817 C.3     1  UNL1        0.1319
     12 C          -3.7597    4.7435   21.5905 C.2     1  UNL1        0.1948
     13 O          -3.6159    6.2296   21.7353 O.2     1  UNL1       -0.2918
     14 C          -4.4591    3.9505   22.6543 C.3     1  UNL1        0.1723
     15 C          -5.5240    3.9514   22.4059 C.3     1  UNL1        0.0399
     16 C          -4.6670    3.1218   23.8873 C.3     1  UNL1        0.1767
     17 O          -3.2868    3.5726   23.5105 O.3     1  UNL1       -0.3461
     18 C          -3.4822    4.5940   19.0116 C.3     1  UNL1        0.0273
     19 C          -4.4341    3.8781   18.0998 C.3     1  UNL1        0.0021
     20 C          -4.2855    3.6509   17.0405 C.3     1  UNL1        0.0001
     21 C          -5.7522    3.3911   18.6244 C.3     1  UNL1        0.0001
     22 C           0.5357    0.9663   19.2564 C.3     1  UNL1        0.0553
     23 C           1.9844    1.1684   18.9241 C.ar    1  UNL1       -0.0200
     24 C           2.6901    2.4136   19.3727 C.ar    1  UNL1       -0.0042
     25 C           4.1388    2.6158   19.0405 C.ar    1  UNL1       -0.0003
     26 C           4.8818    1.5727   18.2596 C.ar    1  UNL1       -0.0000
     27 C           4.1761    0.3273   17.8109 C.ar    1  UNL1       -0.0003
     28 C           2.7274    0.1252   18.1432 C.ar    1  UNL1       -0.0042
     29 N           1.9077   -0.0815   24.3403 N.am    1  UNL1       -0.2970
     30 C           3.4043   -0.1819   24.3521 C.2     1  UNL1        0.2406
     31 O           4.2401    1.0560   24.2147 O.2     1  UNL1       -0.2733
     32 H           1.3591   -0.8940   24.4305 H       1  UNL1        0.1499
     33 C           4.0650   -1.5202   24.5015 C.3     1  UNL1        0.1489
     34 N           4.3213   -2.0817   25.8686 N.am    1  UNL1       -0.2972
     35 C           5.6687   -1.9168   26.5066 C.2     1  UNL1        0.2391
     36 O           6.7599   -1.1904   25.7775 O.2     1  UNL1       -0.2736
     37 H           3.6051   -2.5585   26.3471 H       1  UNL1        0.1499
     38 C           5.9250   -2.4784   27.8737 C.3     1  UNL1        0.1585
     39 N           6.4860   -3.8614   28.0234 N.3     1  UNL1       -0.2607
     40 C           6.8679   -4.6516   26.8069 C.3     1  UNL1        0.1050
     41 C           7.4289   -6.0346   26.9565 C.3     1  UNL1        0.1595
     42 O           7.6080   -6.6276   28.3227 O.3     1  UNL1       -0.3508
     43 C           7.2262   -5.8375   29.5391 C.3     1  UNL1        0.1595
     44 C           6.6651   -4.4544   29.3895 C.3     1  UNL1        0.1050
     45 C           4.4695   -2.2970   23.2837 C.3     1  UNL1        0.0337
     46 C           3.9141   -1.9280   21.9400 C.3     1  UNL1        0.0286
     47 C           4.7493   -2.1105   20.7074 C.ar    1  UNL1       -0.0221
     48 C           4.2759   -3.0139   19.6076 C.ar    1  UNL1       -0.0043
     49 C           5.1111   -3.1963   18.3751 C.ar    1  UNL1       -0.0003
     50 C           6.4197   -2.4753   18.2424 C.ar    1  UNL1       -0.0000
     51 C           6.8932   -1.5719   19.3422 C.ar    1  UNL1       -0.0003
     52 C           6.0580   -1.3895   20.5747 C.ar    1  UNL1       -0.0043
     53 C           0.8267    2.0258   25.4083 C.3     1  UNL1        0.0290
     54 C           2.3927    4.0483   25.8632 C.3     1  UNL1        0.0001
     55 C           1.8584    2.7040   26.2601 C.3     1  UNL1        0.0021
     56 C           2.3557    2.0380   27.5087 C.3     1  UNL1        0.0001
@<TRIPOS>BOND
     1    54    55    1
     2    55    56    1
     3    55    53    1
     4     1    53    1
     5     1    29    1
     6    29    30   am
     7    30    31    2
     8    30    33    1
     9    33    45    1
    10    45    46    1
    11    46    47    1
    12    47    48   ar
    13    48    49   ar
    14    49    50   ar
    15    50    51   ar
    16    51    52   ar
    17    33    34    1
    18    34    35   am
    19    35    36    2
    20    35    38    1
    21    38    39    1
    22    39    40    1
    23    40    41    1
    24    41    42    1
    25    42    43    1
    26    43    44    1
    27     1     2    1
    28     2     3    2
    29     2     4   am
    30     4     6    1
    31     6    22    1
    32    22    23    1
    33    23    24   ar
    34    24    25   ar
    35    25    26   ar
    36    26    27   ar
    37    27    28   ar
    38     6     7    1
    39     7     8    2
    40     7     9   am
    41     9    11    1
    42    11    18    1
    43    18    19    1
    44    19    20    1
    45    19    21    1
    46    11    12    1
    47    12    13    2
    48    12    14    1
    49    14    15    1
    50    14    16    1
    51    16    17    1
    52    52    47   ar
    53    44    39    1
    54    28    23   ar
    55    17    14    1
    56    29    32    1
    57    34    37    1
    58     4     5    1
    59     9    10    1
@<TRIPOS>MOLECULE
*****
 56 59 0 0 0
SMALL
GASTEIGER

@<TRIPOS>ATOM
      1 C           2.6686   -0.3154   28.5061 C.3     1  UNL1        0.1486
      2 C           3.0342   -0.5835   29.9359 C.2     1  UNL1        0.2406
      3 O           1.9682   -0.6053   30.9911 O.2     1  UNL1       -0.2733
      4 N           4.4655   -0.8299   30.3106 N.am    1  UNL1       -0.2967
      5 H           5.1651   -0.8155   29.6180 H       1  UNL1        0.1499
      6 C           4.8311   -1.0980   31.7404 C.3     1  UNL1        0.1530
      7 C           4.7923    0.0145   32.7458 C.2     1  UNL1        0.2409
      8 O           6.0069    0.8660   32.9693 O.2     1  UNL1       -0.2733
      9 N           3.5391    0.2756   33.5276 N.am    1  UNL1       -0.2983
     10 H           2.7420   -0.2832   33.3809 H       1  UNL1        0.1498
     11 C           3.5004    1.3882   34.5330 C.3     1  UNL1        0.1319
     12 C           3.8897    1.1257   35.9575 C.2     1  UNL1        0.1948
     13 O           4.5439   -0.1720   36.3293 O.2     1  UNL1       -0.2918
     14 C           3.6248    2.1607   37.0103 C.3     1  UNL1        0.1723
     15 C           4.5838    2.6309   37.2450 C.3     1  UNL1        0.0399
     16 C           2.8777    3.0110   37.9947 C.3     1  UNL1        0.1767
     17 O           2.1443    1.9879   37.1788 O.3     1  UNL1       -0.3461
     18 C           3.0724    2.7634   34.1137 C.3     1  UNL1        0.0273
     19 C           2.3627    2.9622   32.8073 C.3     1  UNL1        0.0021
     20 C           1.2830    2.9429   32.6353 C.3     1  UNL1        0.0001
     21 C           3.1507    3.2203   31.5573 C.3     1  UNL1        0.0001
     22 C           5.2354   -2.4787   32.1650 C.3     1  UNL1        0.0553
     23 C           6.5589   -3.0382   31.7348 C.ar    1  UNL1       -0.0200
     24 C           6.6296   -3.9955   30.5822 C.ar    1  UNL1       -0.0042
     25 C           7.9532   -4.5551   30.1520 C.ar    1  UNL1       -0.0003
     26 C           9.2061   -4.1573   30.8744 C.ar    1  UNL1       -0.0000
     27 C           9.1355   -3.1999   32.0271 C.ar    1  UNL1       -0.0003
     28 C           7.8119   -2.6403   32.4572 C.ar    1  UNL1       -0.0042
     29 N           3.1931   -1.2052   27.4183 N.am    1  UNL1       -0.2970
     30 C           4.5755   -0.9924   26.8765 C.2     1  UNL1        0.2406
     31 O           5.4336    0.1102   27.4224 O.2     1  UNL1       -0.2733
     32 H           2.6300   -1.9289   27.0600 H       1  UNL1        0.1499
     33 C           5.1000   -1.8823   25.7888 C.3     1  UNL1        0.1489
     34 N           4.2896   -2.1055   24.5465 N.am    1  UNL1       -0.2972
     35 C           4.3234   -1.0960   23.4375 C.2     1  UNL1        0.2391
     36 O           5.1675    0.1367   23.5710 O.2     1  UNL1       -0.2736
     37 H           3.7356   -2.9146   24.4589 H       1  UNL1        0.1499
     38 C           3.5131   -1.3192   22.1951 C.3     1  UNL1        0.1585
     39 N           4.1911   -1.7256   20.9204 N.3     1  UNL1       -0.2607
     40 C           5.3884   -0.9650   20.4323 C.3     1  UNL1        0.1050
     41 C           6.0665   -1.3714   19.1575 C.3     1  UNL1        0.1595
     42 O           5.5473   -2.5382   18.3708 O.3     1  UNL1       -0.3508
     43 C           4.3501   -3.2987   18.8588 C.3     1  UNL1        0.1595
     44 C           3.6720   -2.8924   20.1337 C.3     1  UNL1        0.1050
     45 C           6.4348   -2.5490   25.9435 C.3     1  UNL1        0.0337
     46 C           6.5510   -3.8215   26.7291 C.3     1  UNL1        0.0286
     47 C           7.0462   -5.0712   26.0636 C.ar    1  UNL1       -0.0221
     48 C           6.9390   -6.3901   26.7700 C.ar    1  UNL1       -0.0043
     49 C           7.4342   -7.6398   26.1044 C.ar    1  UNL1       -0.0003
     50 C           8.0366   -7.5706   24.7324 C.ar    1  UNL1       -0.0000
     51 C           8.1438   -6.2518   24.0260 C.ar    1  UNL1       -0.0003
     52 C           7.6487   -5.0021   24.6916 C.ar    1  UNL1       -0.0043
     53 C           1.7787    0.8426   28.1639 C.3     1  UNL1        0.0290
     54 C          -0.2610    1.2369   26.6037 C.3     1  UNL1        0.0001
     55 C           0.3365    0.6058   27.8264 C.3     1  UNL1        0.0021
     56 C          -0.5083   -0.2619   28.7114 C.3     1  UNL1        0.0001
@<TRIPOS>BOND
     1    54    55    1
     2    55    56    1
     3    55    53    1
     4     1    53    1
     5     1    29    1
     6    29    30   am
     7    30    31    2
     8    30    33    1
     9    33    45    1
    10    45    46    1
    11    46    47    1
    12    47    48   ar
    13    48    49   ar
    14    49    50   ar
    15    50    51   ar
    16    51    52   ar
    17    33    34    1
    18    34    35   am
    19    35    36    2
    20    35    38    1
    21    38    39    1
    22    39    40    1
    23    40    41    1
    24    41    42    1
    25    42    43    1
    26    43    44    1
    27     1     2    1
    28     2     3    2
    29     2     4   am
    30     4     6    1
    31     6    22    1
    32    22    23    1
    33    23    24   ar
    34    24    25   ar
    35    25    26   ar
    36    26    27   ar
    37    27    28   ar
    38     6     7    1
    39     7     8    2
    40     7     9   am
    41     9    11    1
    42    11    18    1
    43    18    19    1
    44    19    20    1
    45    19    21    1
    46    11    12    1
    47    12    13    2
    48    12    14    1
    49    14    15    1
    50    14    16    1
    51    16    17    1
    52    52    47   ar
    53    44    39    1
    54    28    23   ar
    55    17    14    1
    56    29    32    1
    57    34    37    1
    58     4     5    1
    59     9    10    1
