@<TRIPOS>MOLECULE
*****
 43 47 0 0 0
SMALL
GASTEIGER

@<TRIPOS>ATOM
      1 C           4.6287   -0.9569   32.1774 C.ar    1  UNL1        0.2443
      2 N           3.4551   -0.0504   31.9518 N.ar    1  UNL1       -0.1953
      3 C           3.1917    0.5095   30.5853 C.ar    1  UNL1        0.1354
      4 C           4.1019    0.1629   29.4445 C.ar    1  UNL1        0.0359
      5 C           5.2755   -0.7436   29.6702 C.ar    1  UNL1        0.0221
      6 C           5.5389   -1.3035   31.0366 C.ar    1  UNL1        0.1024
      7 N           6.7126   -2.2100   31.2623 N.pl3   1  UNL1       -0.2991
      8 C           6.5521   -3.6945   31.1190 C.3     1  UNL1        0.1232
      9 C           7.7257   -4.6009   31.3447 C.3     1  UNL1        0.1636
     10 O           9.0598   -4.0229   31.7135 O.3     1  UNL1       -0.3501
     11 C           9.2203   -2.5384   31.8567 C.3     1  UNL1        0.1636
     12 C           8.0467   -1.6320   31.6311 C.3     1  UNL1        0.1232
     13 N           2.0181    1.4160   30.3597 N.pl3   1  UNL1       -0.2955
     14 H           1.5694    1.8405   31.1263 H       1  UNL1        0.1537
     15 C           1.5281    1.6757   28.9660 C.ar    1  UNL1        0.0839
     16 C           2.1335    2.7805   28.1518 C.ar    1  UNL1        0.0190
     17 C           1.6435    3.0401   26.7580 C.ar    1  UNL1        0.0160
     18 C           0.5482    2.1950   26.1785 C.ar    1  UNL1        0.0510
     19 C          -0.0572    1.0902   26.9927 C.ar    1  UNL1        0.0527
     20 C           0.4327    0.8305   28.3864 C.ar    1  UNL1        0.1532
     21 N           0.0581    2.4547   24.7847 N.pl3   1  UNL1       -0.3046
     22 C           0.7690    1.8434   23.6138 C.3     1  UNL1        0.1081
     23 C           0.2790    2.1031   22.2201 C.3     1  UNL1        0.0938
     24 N          -0.9218    2.9739   21.9973 N.3     1  UNL1       -0.2686
     25 C          -1.4118    3.2336   20.6035 C.3     1  UNL1        0.0897
     26 C          -1.6326    3.5852   23.1682 C.3     1  UNL1        0.0938
     27 C          -1.1426    3.3255   24.5620 C.3     1  UNL1        0.1081
     28 O          -0.1727   -0.2743   29.2005 O.3     1  UNL1       -0.4701
     29 C          -1.6212   -0.6246   29.0299 C.3     1  UNL1        0.2525
     30 O           4.8921   -1.5168   33.5438 O.3     1  UNL1       -0.4350
     31 C           4.6053    0.4518   36.9778 C.ar    1  UNL1        0.0496
     32 C           4.2770   -0.4693   35.8404 C.ar    1  UNL1        0.0519
     33 C           5.2206   -0.5957   34.6813 C.ar    1  UNL1        0.1485
     34 C           6.4926    0.1989   34.6595 C.ar    1  UNL1        0.0373
     35 C           6.8209    1.1200   35.7969 C.ar    1  UNL1        0.0001
     36 C           5.8773    1.2464   36.9561 C.ar    1  UNL1       -0.0082
     37 C           6.2058    2.1676   38.0935 C.3     1  UNL1        0.0323
     38 C           2.4764    1.4925   38.0428 C.2     1  UNL1        0.2496
     39 O           2.2345    2.2804   36.7895 O.2     1  UNL1       -0.2698
     40 N           3.6617    0.5782   38.1370 N.am    1  UNL1       -0.2805
     41 H           3.8204    0.0611   38.9596 H       1  UNL1        0.1552
     42 C           1.0392    0.3891   39.9049 C.2     1  UNL1        0.0048
     43 C           1.5327    1.6189   39.2020 C.2     1  UNL1        0.0580
@<TRIPOS>BOND
     1    42    43    2
     2    43    38    1
     3    38    39    2
     4    38    40   am
     5    40    31    1
     6    31    32   ar
     7    32    33   ar
     8    33    30    1
     9    30     1    1
    10     1     2   ar
    11     2     3   ar
    12     3    13    1
    13    13    15    1
    14    15    16   ar
    15    16    17   ar
    16    17    18   ar
    17    18    21    1
    18    21    22    1
    19    22    23    1
    20    23    24    1
    21    24    25    1
    22    24    26    1
    23    26    27    1
    24    18    19   ar
    25    19    20   ar
    26    20    28    1
    27    28    29    1
    28     3     4   ar
    29     4     5   ar
    30     5     6   ar
    31     6     7    1
    32     7     8    1
    33     8     9    1
    34     9    10    1
    35    10    11    1
    36    11    12    1
    37    33    34   ar
    38    34    35   ar
    39    35    36   ar
    40    36    37    1
    41    36    31   ar
    42     6     1   ar
    43    12     7    1
    44    20    15   ar
    45    27    21    1
    46    40    41    1
    47    13    14    1
@<TRIPOS>MOLECULE
*****
 43 47 0 0 0
SMALL
GASTEIGER

@<TRIPOS>ATOM
      1 C           6.6266   -4.0421   28.2173 C.ar    1  UNL1        0.2443
      2 N           6.5254   -3.7083   29.6762 N.ar    1  UNL1       -0.1953
      3 C           7.3816   -4.4324   30.6724 C.ar    1  UNL1        0.1354
      4 C           8.3391   -5.4904   30.2097 C.ar    1  UNL1        0.0359
      5 C           8.4403   -5.8242   28.7508 C.ar    1  UNL1        0.0221
      6 C           7.5840   -5.1000   27.7546 C.ar    1  UNL1        0.1024
      7 N           7.6853   -5.4338   26.2957 N.pl3   1  UNL1       -0.2991
      8 C           7.8287   -6.8624   25.8614 C.3     1  UNL1        0.1232
      9 C           7.9299   -7.1961   24.4025 C.3     1  UNL1        0.1636
     10 O           7.8877   -6.1013   23.3780 O.3     1  UNL1       -0.3501
     11 C           7.7443   -4.6728   23.8123 C.3     1  UNL1        0.1636
     12 C           7.6431   -4.3391   25.2712 C.3     1  UNL1        0.1232
     13 N           7.2805   -4.0987   32.1313 N.pl3   1  UNL1       -0.2955
     14 H           7.7450   -4.6556   32.7970 H       1  UNL1        0.1537
     15 C           6.4714   -2.9164   32.5757 C.ar    1  UNL1        0.0839
     16 C           5.0527   -3.1046   33.0250 C.ar    1  UNL1        0.0190
     17 C           4.2436   -1.9222   33.4695 C.ar    1  UNL1        0.0160
     18 C           4.8533   -0.5517   33.4647 C.ar    1  UNL1        0.0510
     19 C           6.2720   -0.3636   33.0155 C.ar    1  UNL1        0.0527
     20 C           7.0811   -1.5458   32.5710 C.ar    1  UNL1        0.1532
     21 N           4.0443    0.6306   33.9092 N.pl3   1  UNL1       -0.3046
     22 C           2.9809    1.1916   33.0123 C.3     1  UNL1        0.1081
     23 C           2.1718    2.3740   33.4567 C.3     1  UNL1        0.0938
     24 N           2.4262    2.9953   34.7981 N.3     1  UNL1       -0.2686
     25 C           1.6171    4.1776   35.2426 C.3     1  UNL1        0.0897
     26 C           3.4896    2.4343   35.6950 C.3     1  UNL1        0.0938
     27 C           4.2986    1.2519   35.2506 C.3     1  UNL1        0.1081
     28 O           8.4998   -1.3576   32.1218 O.3     1  UNL1       -0.4701
     29 C           8.7914   -0.9573   30.7060 C.3     1  UNL1        0.2525
     30 O           5.7703   -3.3180   27.2211 O.3     1  UNL1       -0.4350
     31 C           3.3904   -0.1828   27.7274 C.ar    1  UNL1        0.0496
     32 C           3.8501   -1.5822   27.4443 C.ar    1  UNL1        0.0519
     33 C           5.3107   -1.9184   27.5042 C.ar    1  UNL1        0.1485
     34 C           6.3116   -0.8552   27.8471 C.ar    1  UNL1        0.0373
     35 C           5.8519    0.5442   28.1302 C.ar    1  UNL1        0.0001
     36 C           4.3913    0.8805   28.0703 C.ar    1  UNL1       -0.0082
     37 C           3.9317    2.2800   28.3535 C.3     1  UNL1        0.0323
     38 C           1.0793    0.0233   28.8963 C.2     1  UNL1        0.2496
     39 O           1.6894   -0.4431   30.1848 O.2     1  UNL1       -0.2698
     40 N           1.9298    0.1535   27.6676 N.am    1  UNL1       -0.2805
     41 H           1.5294    0.4596   26.8219 H       1  UNL1        0.1552
     42 C          -1.3986   -0.7358   28.7110 C.2     1  UNL1        0.0048
     43 C          -0.3813    0.3595   28.8364 C.2     1  UNL1        0.0580
@<TRIPOS>BOND
     1    42    43    2
     2    43    38    1
     3    38    39    2
     4    38    40   am
     5    40    31    1
     6    31    32   ar
     7    32    33   ar
     8    33    30    1
     9    30     1    1
    10     1     2   ar
    11     2     3   ar
    12     3    13    1
    13    13    15    1
    14    15    16   ar
    15    16    17   ar
    16    17    18   ar
    17    18    21    1
    18    21    22    1
    19    22    23    1
    20    23    24    1
    21    24    25    1
    22    24    26    1
    23    26    27    1
    24    18    19   ar
    25    19    20   ar
    26    20    28    1
    27    28    29    1
    28     3     4   ar
    29     4     5   ar
    30     5     6   ar
    31     6     7    1
    32     7     8    1
    33     8     9    1
    34     9    10    1
    35    10    11    1
    36    11    12    1
    37    33    34   ar
    38    34    35   ar
    39    35    36   ar
    40    36    37    1
    41    36    31   ar
    42     6     1   ar
    43    12     7    1
    44    20    15   ar
    45    27    21    1
    46    40    41    1
    47    13    14    1
@<TRIPOS>MOLECULE
*****
 43 47 0 0 0
SMALL
GASTEIGER

@<TRIPOS>ATOM
      1 C           4.8125   -0.9716   32.5105 C.ar    1  UNL1        0.2443
      2 N           3.5795   -0.1187   32.5604 N.ar    1  UNL1       -0.1953
      3 C           2.9458    0.3586   31.2873 C.ar    1  UNL1        0.1354
      4 C           3.5450   -0.0170   29.9645 C.ar    1  UNL1        0.0359
      5 C           4.7779   -0.8699   29.9147 C.ar    1  UNL1        0.0221
      6 C           5.4117   -1.3472   31.1877 C.ar    1  UNL1        0.1024
      7 N           6.6446   -2.2001   31.1378 N.pl3   1  UNL1       -0.2991
      8 C           7.9954   -1.5593   31.0170 C.3     1  UNL1        0.1232
      9 C           9.2283   -2.4122   30.9672 C.3     1  UNL1        0.1636
     10 O           9.1104   -3.9059   31.0382 O.3     1  UNL1       -0.3501
     11 C           7.7596   -4.5466   31.1590 C.3     1  UNL1        0.1636
     12 C           6.5267   -3.6937   31.2088 C.3     1  UNL1        0.1232
     13 N           1.7129    1.2115   31.3371 N.pl3   1  UNL1       -0.2955
     14 H           1.3473    1.4981   32.2051 H       1  UNL1        0.1537
     15 C           1.0369    1.6276   30.0644 C.ar    1  UNL1        0.0839
     16 C           0.0650    0.7023   29.3942 C.ar    1  UNL1        0.0190
     17 C          -0.6110    1.1185   28.1214 C.ar    1  UNL1        0.0160
     18 C          -0.3150    2.4598   27.5189 C.ar    1  UNL1        0.0510
     19 C           0.6569    3.3851   28.1891 C.ar    1  UNL1        0.0527
     20 C           1.3329    2.9690   29.4618 C.ar    1  UNL1        0.1532
     21 N          -0.9910    2.8760   26.2461 N.pl3   1  UNL1       -0.3046
     22 C          -0.2899    2.6989   24.9319 C.3     1  UNL1        0.1081
     23 C          -0.9658    3.1150   23.6592 C.3     1  UNL1        0.0938
     24 N          -2.3428    3.7083   23.7006 N.3     1  UNL1       -0.2686
     25 C          -3.0188    4.1244   22.4278 C.3     1  UNL1        0.0897
     26 C          -3.0440    3.8854   25.0147 C.3     1  UNL1        0.0938
     27 C          -2.3681    3.4693   26.2875 C.3     1  UNL1        0.1081
     28 O           2.3048    3.8943   30.1321 O.3     1  UNL1       -0.4701
     29 C           3.7676    3.8053   29.8122 C.3     1  UNL1        0.2525
     30 O           5.4462   -1.4489   33.7835 O.3     1  UNL1       -0.4350
     31 C           4.7223    0.5043   37.1615 C.ar    1  UNL1        0.0496
     32 C           4.5584   -0.4381   36.0062 C.ar    1  UNL1        0.0519
     33 C           5.6102   -0.5064   34.9390 C.ar    1  UNL1        0.1485
     34 C           6.8260    0.3676   35.0271 C.ar    1  UNL1        0.0373
     35 C           6.9900    1.3100   36.1825 C.ar    1  UNL1        0.0001
     36 C           5.9381    1.3784   37.2497 C.ar    1  UNL1       -0.0082
     37 C           6.1021    2.3208   38.4052 C.3     1  UNL1        0.0323
     38 C           2.4594    1.4361   38.0340 C.2     1  UNL1        0.2496
     39 O           2.3002    2.2311   36.7720 O.2     1  UNL1       -0.2698
     40 N           3.6704    0.5727   38.2287 N.am    1  UNL1       -0.2805
     41 H           3.7749    0.0509   39.0570 H       1  UNL1        0.1552
     42 C           1.0223    0.2660   39.8550 C.2     1  UNL1        0.0048
     43 C           1.4076    1.5044   39.1012 C.2     1  UNL1        0.0580
@<TRIPOS>BOND
     1    42    43    2
     2    43    38    1
     3    38    39    2
     4    38    40   am
     5    40    31    1
     6    31    32   ar
     7    32    33   ar
     8    33    30    1
     9    30     1    1
    10     1     2   ar
    11     2     3   ar
    12     3    13    1
    13    13    15    1
    14    15    16   ar
    15    16    17   ar
    16    17    18   ar
    17    18    21    1
    18    21    22    1
    19    22    23    1
    20    23    24    1
    21    24    25    1
    22    24    26    1
    23    26    27    1
    24    18    19   ar
    25    19    20   ar
    26    20    28    1
    27    28    29    1
    28     3     4   ar
    29     4     5   ar
    30     5     6   ar
    31     6     7    1
    32     7     8    1
    33     8     9    1
    34     9    10    1
    35    10    11    1
    36    11    12    1
    37    33    34   ar
    38    34    35   ar
    39    35    36   ar
    40    36    37    1
    41    36    31   ar
    42     6     1   ar
    43    12     7    1
    44    20    15   ar
    45    27    21    1
    46    40    41    1
    47    13    14    1
@<TRIPOS>MOLECULE
*****
 43 47 0 0 0
SMALL
GASTEIGER

@<TRIPOS>ATOM
      1 C           6.5954   -3.4645   26.7786 C.ar    1  UNL1        0.2443
      2 N           6.2105   -3.1348   25.3668 N.ar    1  UNL1       -0.1953
      3 C           6.5521   -4.0825   24.2555 C.ar    1  UNL1        0.1354
      4 C           7.2788   -5.3600   24.5560 C.ar    1  UNL1        0.0359
      5 C           7.6637   -5.6896   25.9678 C.ar    1  UNL1        0.0221
      6 C           7.3221   -4.7418   27.0791 C.ar    1  UNL1        0.1024
      7 N           7.7070   -5.0715   28.4909 N.pl3   1  UNL1       -0.2991
      8 C           6.6485   -5.4183   29.4954 C.3     1  UNL1        0.1232
      9 C           7.0335   -5.7480   30.9072 C.3     1  UNL1        0.1636
     10 O           8.4771   -5.7308   31.3144 O.3     1  UNL1       -0.3501
     11 C           9.5356   -5.3840   30.3099 C.3     1  UNL1        0.1636
     12 C           9.1506   -5.0544   28.8981 C.3     1  UNL1        0.1232
     13 N           6.1672   -3.7529   22.8437 N.pl3   1  UNL1       -0.2955
     14 H           6.6401   -4.1784   22.0924 H       1  UNL1        0.1537
     15 C           5.0616   -2.7750   22.5767 C.ar    1  UNL1        0.0839
     16 C           4.6104   -1.8392   23.6587 C.ar    1  UNL1        0.0190
     17 C           3.5048   -0.8612   23.3916 C.ar    1  UNL1        0.0160
     18 C           2.8505   -0.8191   22.0426 C.ar    1  UNL1        0.0510
     19 C           3.3017   -1.7548   20.9606 C.ar    1  UNL1        0.0527
     20 C           4.4072   -2.7328   21.2276 C.ar    1  UNL1        0.1532
     21 N           1.7448    0.1589   21.7755 N.pl3   1  UNL1       -0.3046
     22 C           1.0778    0.1883   20.4323 C.3     1  UNL1        0.1081
     23 C          -0.0277    1.1662   20.1651 C.3     1  UNL1        0.0938
     24 N          -0.4663    2.1147   21.2412 N.3     1  UNL1       -0.2686
     25 C          -1.5719    3.0927   20.9741 C.3     1  UNL1        0.0897
     26 C           0.2007    2.0853   22.5845 C.3     1  UNL1        0.0938
     27 C           1.3063    1.1074   22.8516 C.3     1  UNL1        0.1081
     28 O           4.8584   -3.6685   20.1456 O.3     1  UNL1       -0.4701
     29 C           3.8456   -4.4183   19.3319 C.3     1  UNL1        0.2525
     30 O           6.2538   -2.5167   27.8900 O.3     1  UNL1       -0.4350
     31 C           3.1286   -0.1158   27.4223 C.ar    1  UNL1        0.0496
     32 C           3.9434   -1.3426   27.7068 C.ar    1  UNL1        0.0519
     33 C           5.4390   -1.2898   27.6054 C.ar    1  UNL1        0.1485
     34 C           6.1199   -0.0102   27.2196 C.ar    1  UNL1        0.0373
     35 C           5.3051    1.2167   26.9351 C.ar    1  UNL1        0.0001
     36 C           3.8094    1.1639   27.0364 C.ar    1  UNL1       -0.0082
     37 C           2.9947    2.3908   26.7519 C.3     1  UNL1        0.0323
     38 C           0.9748   -0.2483   28.8692 C.2     1  UNL1        0.2496
     39 O           1.8122   -0.2751   30.1134 O.2     1  UNL1       -0.2698
     40 N           1.6329   -0.1686   27.5237 N.am    1  UNL1       -0.2805
     41 H           1.0833   -0.1509   26.7071 H       1  UNL1        0.1552
     42 C          -1.3553    0.7536   28.3061 C.2     1  UNL1        0.0048
     43 C          -0.5209   -0.3010   28.9705 C.2     1  UNL1        0.0580
@<TRIPOS>BOND
     1    42    43    2
     2    43    38    1
     3    38    39    2
     4    38    40   am
     5    40    31    1
     6    31    32   ar
     7    32    33   ar
     8    33    30    1
     9    30     1    1
    10     1     2   ar
    11     2     3   ar
    12     3    13    1
    13    13    15    1
    14    15    16   ar
    15    16    17   ar
    16    17    18   ar
    17    18    21    1
    18    21    22    1
    19    22    23    1
    20    23    24    1
    21    24    25    1
    22    24    26    1
    23    26    27    1
    24    18    19   ar
    25    19    20   ar
    26    20    28    1
    27    28    29    1
    28     3     4   ar
    29     4     5   ar
    30     5     6   ar
    31     6     7    1
    32     7     8    1
    33     8     9    1
    34     9    10    1
    35    10    11    1
    36    11    12    1
    37    33    34   ar
    38    34    35   ar
    39    35    36   ar
    40    36    37    1
    41    36    31   ar
    42     6     1   ar
    43    12     7    1
    44    20    15   ar
    45    27    21    1
    46    40    41    1
    47    13    14    1
@<TRIPOS>MOLECULE
*****
 43 47 0 0 0
SMALL
GASTEIGER

@<TRIPOS>ATOM
      1 C           3.1307   -0.2141   20.9154 C.ar    1  UNL1        0.2443
      2 N           2.4692    1.1316   20.8728 N.ar    1  UNL1       -0.1953
      3 C           2.2029    1.7950   19.5541 C.ar    1  UNL1        0.1354
      4 C           2.5981    1.1127   18.2779 C.ar    1  UNL1        0.0359
      5 C           3.2595   -0.2329   18.3206 C.ar    1  UNL1        0.0221
      6 C           3.5258   -0.8963   19.6393 C.ar    1  UNL1        0.1024
      7 N           4.1873   -2.2420   19.6819 N.pl3   1  UNL1       -0.2991
      8 C           5.6212   -2.3597   20.1061 C.3     1  UNL1        0.1232
      9 C           6.2826   -3.7053   20.1487 C.3     1  UNL1        0.1636
     10 O           5.5100   -4.9332   19.7671 O.3     1  UNL1       -0.3501
     11 C           4.0761   -4.8154   19.3429 C.3     1  UNL1        0.1636
     12 C           3.4147   -3.4698   19.3003 C.3     1  UNL1        0.1232
     13 N           1.5415    3.1405   19.5114 N.pl3   1  UNL1       -0.2955
     14 H           2.0032    3.9030   19.0934 H       1  UNL1        0.1537
     15 C           0.1766    3.3245   20.1057 C.ar    1  UNL1        0.0839
     16 C           0.0070    3.3691   21.5954 C.ar    1  UNL1        0.0190
     17 C          -1.3580    3.5531   22.1896 C.ar    1  UNL1        0.0160
     18 C          -2.5533    3.6923   21.2942 C.ar    1  UNL1        0.0510
     19 C          -2.3837    3.6476   19.8045 C.ar    1  UNL1        0.0527
     20 C          -1.0188    3.4637   19.2102 C.ar    1  UNL1        0.1532
     21 N          -3.9183    3.8762   21.8884 N.pl3   1  UNL1       -0.3046
     22 C          -5.0860    4.1924   21.0015 C.3     1  UNL1        0.1081
     23 C          -6.4509    4.3764   21.5957 C.3     1  UNL1        0.0938
     24 N          -6.6481    4.2441   23.0767 N.3     1  UNL1       -0.2686
     25 C          -8.0131    4.4280   23.6710 C.3     1  UNL1        0.0897
     26 C          -5.4805    3.9279   23.9636 C.3     1  UNL1        0.0938
     27 C          -4.1155    3.7440   23.3695 C.3     1  UNL1        0.1081
     28 O          -0.8492    3.4190   17.7205 O.3     1  UNL1       -0.4701
     29 C          -1.8748    4.0547   16.8295 C.3     1  UNL1        0.2525
     30 O           3.3970   -0.8774   22.2341 O.3     1  UNL1       -0.4350
     31 C           2.5648    0.6661   25.7943 C.ar    1  UNL1        0.0496
     32 C           2.4563   -0.1605   24.5474 C.ar    1  UNL1        0.0519
     33 C           3.5056   -0.0508   23.4811 C.ar    1  UNL1        0.1485
     34 C           4.6635    0.8855   23.6618 C.ar    1  UNL1        0.0373
     35 C           4.7720    1.7121   24.9087 C.ar    1  UNL1        0.0001
     36 C           3.7227    1.6024   25.9750 C.ar    1  UNL1       -0.0082
     37 C           3.8313    2.4291   27.2220 C.3     1  UNL1        0.0323
     38 C           0.1934    1.2429   26.6852 C.2     1  UNL1        0.2496
     39 O          -0.0794    2.0391   25.4435 O.2     1  UNL1       -0.2698
     40 N           1.5155    0.5564   26.8606 N.am    1  UNL1       -0.2805
     41 H           1.6946    0.0339   27.6755 H       1  UNL1        0.1552
     42 C          -0.9820   -0.1287   28.5527 C.2     1  UNL1        0.0048
     43 C          -0.8559    1.1332   27.7514 C.2     1  UNL1        0.0580
@<TRIPOS>BOND
     1    42    43    2
     2    43    38    1
     3    38    39    2
     4    38    40   am
     5    40    31    1
     6    31    32   ar
     7    32    33   ar
     8    33    30    1
     9    30     1    1
    10     1     2   ar
    11     2     3   ar
    12     3    13    1
    13    13    15    1
    14    15    16   ar
    15    16    17   ar
    16    17    18   ar
    17    18    21    1
    18    21    22    1
    19    22    23    1
    20    23    24    1
    21    24    25    1
    22    24    26    1
    23    26    27    1
    24    18    19   ar
    25    19    20   ar
    26    20    28    1
    27    28    29    1
    28     3     4   ar
    29     4     5   ar
    30     5     6   ar
    31     6     7    1
    32     7     8    1
    33     8     9    1
    34     9    10    1
    35    10    11    1
    36    11    12    1
    37    33    34   ar
    38    34    35   ar
    39    35    36   ar
    40    36    37    1
    41    36    31   ar
    42     6     1   ar
    43    12     7    1
    44    20    15   ar
    45    27    21    1
    46    40    41    1
    47    13    14    1
@<TRIPOS>MOLECULE
*****
 43 47 0 0 0
SMALL
GASTEIGER

@<TRIPOS>ATOM
      1 C           7.6841   -3.5403   26.2430 C.ar    1  UNL1        0.2443
      2 N           7.5481   -3.4277   24.7533 N.ar    1  UNL1       -0.1953
      3 C           7.5817   -4.6621   23.9018 C.ar    1  UNL1        0.1354
      4 C           7.7512   -6.0090   24.5398 C.ar    1  UNL1        0.0359
      5 C           7.8872   -6.1215   26.0294 C.ar    1  UNL1        0.0221
      6 C           7.8537   -4.8872   26.8809 C.ar    1  UNL1        0.1024
      7 N           7.9897   -4.9997   28.3706 N.pl3   1  UNL1       -0.2991
      8 C           6.8110   -5.4106   29.2024 C.3     1  UNL1        0.1232
      9 C           6.9470   -5.5231   30.6919 C.3     1  UNL1        0.1636
     10 O           8.2617   -5.2249   31.3496 O.3     1  UNL1       -0.3501
     11 C           9.4404   -4.8140   30.5178 C.3     1  UNL1        0.1636
     12 C           9.3043   -4.7015   29.0283 C.3     1  UNL1        0.1232
     13 N           7.4457   -4.5495   22.4122 N.pl3   1  UNL1       -0.2955
     14 H           8.0093   -5.1016   21.8234 H       1  UNL1        0.1537
     15 C           6.4510   -3.5958   21.8199 C.ar    1  UNL1        0.0839
     16 C           4.9957   -3.7221   22.1610 C.ar    1  UNL1        0.0190
     17 C           4.0010   -2.7683   21.5686 C.ar    1  UNL1        0.0160
     18 C           4.4615   -1.6883   20.6351 C.ar    1  UNL1        0.0510
     19 C           5.9167   -1.5620   20.2940 C.ar    1  UNL1        0.0527
     20 C           6.9115   -2.5157   20.8864 C.ar    1  UNL1        0.1532
     21 N           3.4668   -0.7345   20.0427 N.pl3   1  UNL1       -0.3046
     22 C           3.9353    0.3904   19.1681 C.3     1  UNL1        0.1081
     23 C           2.9407    1.3442   18.5757 C.3     1  UNL1        0.0938
     24 N           1.4775    1.1731   18.8580 N.3     1  UNL1       -0.2686
     25 C           0.4828    2.1269   18.2656 C.3     1  UNL1        0.0897
     26 C           1.0090    0.0481   19.7326 C.3     1  UNL1        0.0938
     27 C           2.0036   -0.9056   20.3250 C.3     1  UNL1        0.1081
     28 O           8.3667   -2.3894   20.5452 O.3     1  UNL1       -0.4701
     29 C           8.8065   -2.4220   19.1116 C.3     1  UNL1        0.2525
     30 O           7.6506   -2.3059   27.0945 O.3     1  UNL1       -0.4350
     31 C           3.9138   -0.9834   27.2888 C.ar    1  UNL1        0.0496
     32 C           5.2165   -1.4738   26.7298 C.ar    1  UNL1        0.0519
     33 C           6.3478   -1.8155   27.6536 C.ar    1  UNL1        0.1485
     34 C           6.1764   -1.6670   29.1363 C.ar    1  UNL1        0.0373
     35 C           4.8737   -1.1767   29.6952 C.ar    1  UNL1        0.0001
     36 C           3.7424   -0.8349   28.7715 C.ar    1  UNL1       -0.0082
     37 C           2.4396   -0.3446   29.3305 C.3     1  UNL1        0.0323
     38 C           2.5765    0.7773   25.9245 C.2     1  UNL1        0.2496
     39 O           3.5017    1.8545   26.4077 O.2     1  UNL1       -0.2698
     40 N           2.7825   -0.6417   26.3650 N.am    1  UNL1       -0.2805
     41 H           2.1752   -1.3487   26.0478 H       1  UNL1        0.1552
     42 C           0.0563    1.2811   25.5437 C.2     1  UNL1        0.0048
     43 C           1.4452    1.1191   25.0007 C.2     1  UNL1        0.0580
@<TRIPOS>BOND
     1    42    43    2
     2    43    38    1
     3    38    39    2
     4    38    40   am
     5    40    31    1
     6    31    32   ar
     7    32    33   ar
     8    33    30    1
     9    30     1    1
    10     1     2   ar
    11     2     3   ar
    12     3    13    1
    13    13    15    1
    14    15    16   ar
    15    16    17   ar
    16    17    18   ar
    17    18    21    1
    18    21    22    1
    19    22    23    1
    20    23    24    1
    21    24    25    1
    22    24    26    1
    23    26    27    1
    24    18    19   ar
    25    19    20   ar
    26    20    28    1
    27    28    29    1
    28     3     4   ar
    29     4     5   ar
    30     5     6   ar
    31     6     7    1
    32     7     8    1
    33     8     9    1
    34     9    10    1
    35    10    11    1
    36    11    12    1
    37    33    34   ar
    38    34    35   ar
    39    35    36   ar
    40    36    37    1
    41    36    31   ar
    42     6     1   ar
    43    12     7    1
    44    20    15   ar
    45    27    21    1
    46    40    41    1
    47    13    14    1
@<TRIPOS>MOLECULE
*****
 43 47 0 0 0
SMALL
GASTEIGER

@<TRIPOS>ATOM
      1 C          -0.4064    2.3704   21.9067 C.ar    1  UNL1        0.2443
      2 N           0.7282    2.2908   22.8847 N.ar    1  UNL1       -0.1953
      3 C           0.8869    3.3479   23.9370 C.ar    1  UNL1        0.1354
      4 C          -0.0890    4.4847   24.0112 C.ar    1  UNL1        0.0359
      5 C          -1.2235    4.5643   23.0332 C.ar    1  UNL1        0.0221
      6 C          -1.3822    3.5072   21.9809 C.ar    1  UNL1        0.1024
      7 N          -2.5167    3.5868   21.0029 N.pl3   1  UNL1       -0.2991
      8 C          -2.2541    3.9830   19.5802 C.3     1  UNL1        0.1232
      9 C          -3.3887    4.0627   18.6023 C.3     1  UNL1        0.1636
     10 O          -4.7858    3.7461   19.0470 O.3     1  UNL1       -0.3501
     11 C          -5.0484    3.3500   20.4697 C.3     1  UNL1        0.1636
     12 C          -3.9139    3.2703   21.4476 C.3     1  UNL1        0.1232
     13 N           2.0214    3.2683   24.9150 N.pl3   1  UNL1       -0.2955
     14 H           2.2383    4.0437   25.4814 H       1  UNL1        0.1537
     15 C           2.8254    2.0072   25.0298 C.ar    1  UNL1        0.0839
     16 C           4.0675    1.8321   24.2073 C.ar    1  UNL1        0.0190
     17 C           4.8715    0.5709   24.3222 C.ar    1  UNL1        0.0160
     18 C           4.4334   -0.5150   25.2597 C.ar    1  UNL1        0.0510
     19 C           3.1914   -0.3398   26.0822 C.ar    1  UNL1        0.0527
     20 C           2.3874    0.9212   25.9673 C.ar    1  UNL1        0.1532
     21 N           5.2375   -1.7761   25.3746 N.pl3   1  UNL1       -0.3046
     22 C           5.4535   -2.6404   24.1678 C.3     1  UNL1        0.1081
     23 C           6.2574   -3.9015   24.2827 C.3     1  UNL1        0.0938
     24 N           6.8454   -4.2983   25.6043 N.3     1  UNL1       -0.2686
     25 C           7.6494   -5.5595   25.7193 C.3     1  UNL1        0.0897
     26 C           6.6294   -3.4340   26.8111 C.3     1  UNL1        0.0938
     27 C           5.8254   -2.1729   26.6963 C.3     1  UNL1        0.1081
     28 O           1.1453    1.0964   26.7898 O.3     1  UNL1       -0.4701
     29 C           1.2377    1.6585   28.1774 C.3     1  UNL1        0.2525
     30 O          -0.5651    1.3133   20.8544 O.3     1  UNL1       -0.4350
     31 C           2.3291   -0.9165   19.3046 C.ar    1  UNL1        0.0496
     32 C           1.1501   -0.5000   20.1330 C.ar    1  UNL1        0.0519
     33 C           0.6140    0.8968   20.0258 C.ar    1  UNL1        0.1485
     34 C           1.2569    1.8772   19.0902 C.ar    1  UNL1        0.0373
     35 C           2.4359    1.4607   18.2617 C.ar    1  UNL1        0.0001
     36 C           2.9720    0.0638   18.3689 C.ar    1  UNL1       -0.0082
     37 C           4.1511   -0.3526   17.5403 C.3     1  UNL1        0.0323
     38 C           4.0753   -2.5897   20.2538 C.2     1  UNL1        0.2496
     39 O           4.7495   -1.4691   20.9887 O.2     1  UNL1       -0.2698
     40 N           2.8652   -2.3133   19.4118 N.am    1  UNL1       -0.2805
     41 H           2.4227   -3.0488   18.9294 H       1  UNL1        0.1552
     42 C           4.6670   -4.8638   19.1455 C.2     1  UNL1        0.0048
     43 C           4.6114   -3.9865   20.3610 C.2     1  UNL1        0.0580
@<TRIPOS>BOND
     1    42    43    2
     2    43    38    1
     3    38    39    2
     4    38    40   am
     5    40    31    1
     6    31    32   ar
     7    32    33   ar
     8    33    30    1
     9    30     1    1
    10     1     2   ar
    11     2     3   ar
    12     3    13    1
    13    13    15    1
    14    15    16   ar
    15    16    17   ar
    16    17    18   ar
    17    18    21    1
    18    21    22    1
    19    22    23    1
    20    23    24    1
    21    24    25    1
    22    24    26    1
    23    26    27    1
    24    18    19   ar
    25    19    20   ar
    26    20    28    1
    27    28    29    1
    28     3     4   ar
    29     4     5   ar
    30     5     6   ar
    31     6     7    1
    32     7     8    1
    33     8     9    1
    34     9    10    1
    35    10    11    1
    36    11    12    1
    37    33    34   ar
    38    34    35   ar
    39    35    36   ar
    40    36    37    1
    41    36    31   ar
    42     6     1   ar
    43    12     7    1
    44    20    15   ar
    45    27    21    1
    46    40    41    1
    47    13    14    1
@<TRIPOS>MOLECULE
*****
 43 47 0 0 0
SMALL
GASTEIGER

@<TRIPOS>ATOM
      1 C           3.4742   -0.0163   32.9327 C.ar    1  UNL1        0.2443
      2 N           2.9334   -0.6750   31.6983 N.ar    1  UNL1       -0.1953
      3 C           2.0972    0.1122   30.7333 C.ar    1  UNL1        0.1354
      4 C           1.8019    1.5580   31.0027 C.ar    1  UNL1        0.0359
      5 C           2.3427    2.2166   32.2370 C.ar    1  UNL1        0.0221
      6 C           3.1789    1.4294   33.2020 C.ar    1  UNL1        0.1024
      7 N           3.7197    2.0881   34.4365 N.pl3   1  UNL1       -0.2991
      8 C           5.1409    2.5668   34.4698 C.3     1  UNL1        0.1232
      9 C           5.6816    3.2254   35.7041 C.3     1  UNL1        0.1636
     10 O           4.8013    3.4054   36.9052 O.3     1  UNL1       -0.3501
     11 C           3.3801    2.9267   36.8719 C.3     1  UNL1        0.1636
     12 C           2.8394    2.2681   35.6375 C.3     1  UNL1        0.1232
     13 N           1.5564   -0.5464   29.4989 N.pl3   1  UNL1       -0.2955
     14 H           1.6250   -1.5227   29.3915 H       1  UNL1        0.1537
     15 C           0.9110    0.2823   28.4282 C.ar    1  UNL1        0.0839
     16 C          -0.5444    0.6321   28.5255 C.ar    1  UNL1        0.0190
     17 C          -1.1898    1.4609   27.4547 C.ar    1  UNL1        0.0160
     18 C          -0.3798    1.9399   26.2866 C.ar    1  UNL1        0.0510
     19 C           1.0756    1.5902   26.1893 C.ar    1  UNL1        0.0527
     20 C           1.7210    0.7614   27.2600 C.ar    1  UNL1        0.1532
     21 N          -1.0252    2.7688   25.2158 N.pl3   1  UNL1       -0.3046
     22 C          -2.3227    3.4699   25.4898 C.3     1  UNL1        0.1081
     23 C          -2.9681    4.2987   24.4191 C.3     1  UNL1        0.0938
     24 N          -2.3160    4.4264   23.0743 N.3     1  UNL1       -0.2686
     25 C          -2.9614    5.2552   22.0035 C.3     1  UNL1        0.0897
     26 C          -1.0186    3.7253   22.8003 C.3     1  UNL1        0.0938
     27 C          -0.3732    2.8965   23.8710 C.3     1  UNL1        0.1081
     28 O           3.1764    0.4116   27.1627 O.3     1  UNL1       -0.4701
     29 C           3.6022   -0.8316   26.4395 C.3     1  UNL1        0.2525
     30 O           4.3104   -0.8034   33.8977 O.3     1  UNL1       -0.4350
     31 C           6.9415   -3.2559   32.2205 C.ar    1  UNL1        0.0496
     32 C           5.6353   -2.6683   32.6659 C.ar    1  UNL1        0.0519
     33 C           5.6167   -1.3910   33.4523 C.ar    1  UNL1        0.1485
     34 C           6.9044   -0.7015   33.7933 C.ar    1  UNL1        0.0373
     35 C           8.2106   -1.2891   33.3479 C.ar    1  UNL1        0.0001
     36 C           8.2291   -2.5663   32.5615 C.ar    1  UNL1       -0.0082
     37 C           9.5355   -3.1539   32.1161 C.3     1  UNL1        0.0323
     38 C           6.8809   -4.4932   29.9368 C.2     1  UNL1        0.2496
     39 O           6.7831   -3.1760   29.2258 O.2     1  UNL1       -0.2698
     40 N           6.9600   -4.5331   31.4342 N.am    1  UNL1       -0.2805
     41 H           7.0242   -5.3976   31.9008 H       1  UNL1        0.1552
     42 C           8.1816   -6.5315   28.9862 C.2     1  UNL1        0.0048
     43 C           6.8994   -5.7704   29.1504 C.2     1  UNL1        0.0580
@<TRIPOS>BOND
     1    42    43    2
     2    43    38    1
     3    38    39    2
     4    38    40   am
     5    40    31    1
     6    31    32   ar
     7    32    33   ar
     8    33    30    1
     9    30     1    1
    10     1     2   ar
    11     2     3   ar
    12     3    13    1
    13    13    15    1
    14    15    16   ar
    15    16    17   ar
    16    17    18   ar
    17    18    21    1
    18    21    22    1
    19    22    23    1
    20    23    24    1
    21    24    25    1
    22    24    26    1
    23    26    27    1
    24    18    19   ar
    25    19    20   ar
    26    20    28    1
    27    28    29    1
    28     3     4   ar
    29     4     5   ar
    30     5     6   ar
    31     6     7    1
    32     7     8    1
    33     8     9    1
    34     9    10    1
    35    10    11    1
    36    11    12    1
    37    33    34   ar
    38    34    35   ar
    39    35    36   ar
    40    36    37    1
    41    36    31   ar
    42     6     1   ar
    43    12     7    1
    44    20    15   ar
    45    27    21    1
    46    40    41    1
    47    13    14    1
@<TRIPOS>MOLECULE
*****
 43 47 0 0 0
SMALL
GASTEIGER

@<TRIPOS>ATOM
      1 C           7.0969   -2.7456   29.5848 C.ar    1  UNL1        0.2443
      2 N           6.7287   -1.9976   30.8318 N.ar    1  UNL1       -0.1953
      3 C           6.4744   -2.7451   32.1072 C.ar    1  UNL1        0.1354
      4 C           6.5882   -4.2405   32.1356 C.ar    1  UNL1        0.0359
      5 C           6.9564   -4.9885   30.8886 C.ar    1  UNL1        0.0221
      6 C           7.2107   -4.2410   29.6132 C.ar    1  UNL1        0.1024
      7 N           7.5789   -4.9890   28.3662 N.pl3   1  UNL1       -0.2991
      8 C           6.5314   -5.2914   27.3361 C.3     1  UNL1        0.1232
      9 C           6.8996   -6.0393   26.0892 C.3     1  UNL1        0.1636
     10 O           8.3153   -6.4850   25.8723 O.3     1  UNL1       -0.3501
     11 C           9.3629   -6.1826   26.9024 C.3     1  UNL1        0.1636
     12 C           8.9947   -5.4347   28.1494 C.3     1  UNL1        0.1232
     13 N           6.1062   -1.9971   33.3542 N.pl3   1  UNL1       -0.2955
     14 H           6.5239   -2.2362   34.2130 H       1  UNL1        0.1537
     15 C           5.1015   -0.8850   33.2927 C.ar    1  UNL1        0.0839
     16 C           3.9946   -0.9294   32.2814 C.ar    1  UNL1        0.0190
     17 C           2.9899    0.1828   32.2199 C.ar    1  UNL1        0.0160
     18 C           3.0922    1.3393   33.1696 C.ar    1  UNL1        0.0510
     19 C           4.1992    1.3837   34.1808 C.ar    1  UNL1        0.0527
     20 C           5.2038    0.2716   34.2424 C.ar    1  UNL1        0.1532
     21 N           2.0875    2.4515   33.1081 N.pl3   1  UNL1       -0.3046
     22 C           2.0205    3.4636   34.2131 C.3     1  UNL1        0.1081
     23 C           1.0159    4.5757   34.1517 C.3     1  UNL1        0.0938
     24 N           0.0783    4.6758   32.9851 N.3     1  UNL1       -0.2686
     25 C          -0.9264    5.7880   32.9236 C.3     1  UNL1        0.0897
     26 C           0.1453    3.6637   31.8800 C.3     1  UNL1        0.0938
     27 C           1.1499    2.5515   31.9415 C.3     1  UNL1        0.1081
     28 O           6.3108    0.3159   35.2537 O.3     1  UNL1       -0.4701
     29 C           6.0834   -0.2141   36.6383 C.3     1  UNL1        0.2525
     30 O           7.3513   -1.9982   28.3094 O.3     1  UNL1       -0.4350
     31 C           3.6642   -0.9798   27.2520 C.ar    1  UNL1        0.0496
     32 C           4.8172   -1.4761   28.0731 C.ar    1  UNL1        0.0519
     33 C           6.1983   -1.5018   27.4883 C.ar    1  UNL1        0.1485
     34 C           6.4263   -1.0312   26.0824 C.ar    1  UNL1        0.0373
     35 C           5.2733   -0.5348   25.2614 C.ar    1  UNL1        0.0001
     36 C           3.8923   -0.5091   25.8462 C.ar    1  UNL1       -0.0082
     37 C           2.7392   -0.0127   25.0250 C.3     1  UNL1        0.0323
     38 C           1.8285    0.2319   28.6347 C.2     1  UNL1        0.2496
     39 O           2.7549    1.3923   28.8479 O.2     1  UNL1       -0.2698
     40 N           2.2831   -0.9540   27.8368 N.am    1  UNL1       -0.2805
     41 H           1.6751   -1.7156   27.6969 H       1  UNL1        0.1552
     42 C          -0.7158   -0.2480   28.4185 C.2     1  UNL1        0.0048
     43 C           0.4474    0.2576   29.2195 C.2     1  UNL1        0.0580
@<TRIPOS>BOND
     1    42    43    2
     2    43    38    1
     3    38    39    2
     4    38    40   am
     5    40    31    1
     6    31    32   ar
     7    32    33   ar
     8    33    30    1
     9    30     1    1
    10     1     2   ar
    11     2     3   ar
    12     3    13    1
    13    13    15    1
    14    15    16   ar
    15    16    17   ar
    16    17    18   ar
    17    18    21    1
    18    21    22    1
    19    22    23    1
    20    23    24    1
    21    24    25    1
    22    24    26    1
    23    26    27    1
    24    18    19   ar
    25    19    20   ar
    26    20    28    1
    27    28    29    1
    28     3     4   ar
    29     4     5   ar
    30     5     6   ar
    31     6     7    1
    32     7     8    1
    33     8     9    1
    34     9    10    1
    35    10    11    1
    36    11    12    1
    37    33    34   ar
    38    34    35   ar
    39    35    36   ar
    40    36    37    1
    41    36    31   ar
    42     6     1   ar
    43    12     7    1
    44    20    15   ar
    45    27    21    1
    46    40    41    1
    47    13    14    1
