@<TRIPOS>MOLECULE
*****
 38 42 0 0 0
SMALL
GASTEIGER

@<TRIPOS>ATOM
      1 C          -6.0534  -16.2037   23.8326 C.3     1  UNL1        0.1225
      2 O          -6.7080  -15.6022   25.0408 O.3     1  UNL1       -0.3559
      3 C          -8.1668  -15.8376   25.2987 C.3     1  UNL1        0.1441
      4 C          -8.9709  -16.6745   24.3485 C.3     1  UNL1        0.0589
      5 C          -8.3164  -17.2759   23.1403 C.3     1  UNL1        0.1466
      6 C          -9.1205  -18.1128   22.1900 C.ar    1  UNL1        0.0618
      7 C         -10.5793  -18.3482   22.4480 C.ar    1  UNL1        0.1407
      8 F         -11.5307  -17.9144   23.5236 F       1  UNL1       -0.2043
      9 C         -11.3835  -19.1851   21.4977 C.ar    1  UNL1        0.0319
     10 C         -10.7289  -19.7865   20.2896 C.ar    1  UNL1        0.0351
     11 C          -9.2701  -19.5511   20.0316 C.ar    1  UNL1        0.1737
     12 F          -8.6155  -20.1526   18.8234 F       1  UNL1       -0.2010
     13 C          -8.4660  -18.7143   20.9819 C.ar    1  UNL1        0.1655
     14 O          -7.0071  -18.4789   20.7239 O.3     1  UNL1       -0.4732
     15 C          -6.2030  -17.6420   21.6741 C.3     1  UNL1        0.2098
     16 C          -6.8576  -17.0405   22.8824 C.3     1  UNL1        0.0957
     17 S          -9.7751  -17.5113   23.3982 S.O2    1  UNL1        0.0094
     18 O          -9.9892  -18.2016   23.7347 O.2     1  UNL1       -0.1684
     19 O         -10.4384  -16.2623   22.8979 O.2     1  UNL1       -0.1684
     20 C         -11.2340  -17.7467   23.6561 C.ar    1  UNL1        0.1059
     21 C         -12.2654  -16.9711   22.8916 C.ar    1  UNL1        0.0192
     22 C         -13.7243  -17.2065   23.1495 C.ar    1  UNL1        0.0127
     23 C         -14.1516  -18.2174   24.1720 C.ar    1  UNL1        0.0578
     24 CL        -15.6103  -18.4528   24.4300 Cl      1  UNL1       -0.0822
     25 C         -13.1200  -18.9930   24.9366 C.ar    1  UNL1        0.0127
     26 C         -11.6613  -18.7576   24.6786 C.ar    1  UNL1        0.0192
     27 C          -4.5946  -15.9683   23.5746 C.3     1  UNL1        0.0550
     28 C          -3.5858  -17.0047   23.9725 C.3     1  UNL1        0.1534
     29 O          -2.2000  -16.6563   22.4047 O.2     1  UNL1       -0.1729
     30 S          -2.9331  -17.8571   22.9250 S.O2    1  UNL1       -0.0086
     31 O          -3.6662  -19.0578   23.4453 O.2     1  UNL1       -0.1729
     32 C          -2.2804  -18.7096   21.8775 C.3     1  UNL1        0.1664
     33 C          -2.1973  -18.2245   20.4605 C.3     1  UNL1        0.0779
     34 C          -0.9967  -18.3166   19.5661 C.3     1  UNL1        0.0189
     35 C          -1.3575  -17.7111   18.2420 C.3     1  UNL1        0.0185
     36 C          -2.7812  -17.2448   18.3181 C.3     1  UNL1        0.0686
     37 N          -3.3002  -17.5621   19.6892 N.3     1  UNL1       -0.2971
     38 H          -4.1001  -18.1911   19.6196 H       1  UNL1        0.1233
@<TRIPOS>BOND
     1    29    30    2
     2    30    31    2
     3    30    28    1
     4    28    27    1
     5     1    27    1
     6     1     2    1
     7     2     3    1
     8     3     4    1
     9     4     5    1
    10     5    17    1
    11    17    18    2
    12    17    19    2
    13    17    20    1
    14    20    21   ar
    15    21    22   ar
    16    22    23   ar
    17    23    24    1
    18    23    25   ar
    19    25    26   ar
    20     5     6    1
    21     6     7   ar
    22     7     8    1
    23     7     9   ar
    24     9    10   ar
    25    10    11   ar
    26    11    12    1
    27    11    13   ar
    28    13    14    1
    29    14    15    1
    30    16    15    1
    31    30    32    1
    32    33    32    1
    33    33    34    1
    34    34    35    1
    35    35    36    1
    36    36    37    1
    37    16     1    1
    38    37    33    1
    39    16     5    1
    40    26    20   ar
    41    13     6   ar
    42    37    38    1
@<TRIPOS>MOLECULE
*****
 38 42 0 0 0
SMALL
GASTEIGER

@<TRIPOS>ATOM
      1 C         -14.6155   -0.8226   18.5305 C.3     1  UNL1        0.1225
      2 O         -16.0750   -1.1055   18.3308 O.3     1  UNL1       -0.3559
      3 C         -16.5600   -2.5226   18.2498 C.3     1  UNL1        0.1441
      4 C         -15.5855   -3.6568   18.3683 C.3     1  UNL1        0.0589
      5 C         -14.1260   -3.3739   18.5679 C.3     1  UNL1        0.1466
      6 C         -13.1516   -4.5081   18.6865 C.ar    1  UNL1        0.0618
      7 C         -13.6366   -5.9251   18.6054 C.ar    1  UNL1        0.1407
      8 F         -14.9844   -6.5561   18.4169 F       1  UNL1       -0.2043
      9 C         -12.6621   -7.0593   18.7239 C.ar    1  UNL1        0.0319
     10 C         -11.2026   -6.7764   18.9236 C.ar    1  UNL1        0.0351
     11 C         -10.7176   -5.3594   19.0047 C.ar    1  UNL1        0.1737
     12 F          -9.2581   -5.0764   19.2043 F       1  UNL1       -0.2010
     13 C         -11.6921   -4.2252   18.8861 C.ar    1  UNL1        0.1655
     14 O         -11.2070   -2.8080   18.9672 O.3     1  UNL1       -0.4732
     15 C         -12.1815   -1.6738   18.8487 C.3     1  UNL1        0.2098
     16 C         -13.6410   -1.9568   18.6490 C.3     1  UNL1        0.0957
     17 S         -14.6110   -4.7910   18.4868 S.O2    1  UNL1        0.0094
     18 O         -14.6056   -5.1483   17.7743 O.2     1  UNL1       -0.1684
     19 O         -14.9900   -5.1263   19.8990 O.2     1  UNL1       -0.1684
     20 C         -15.0960   -6.2081   18.4058 C.ar    1  UNL1        0.1059
     21 C         -15.5790   -6.9074   19.6418 C.ar    1  UNL1        0.0192
     22 C         -16.0640   -8.3245   19.5607 C.ar    1  UNL1        0.0127
     23 C         -16.0661   -9.0424   18.2436 C.ar    1  UNL1        0.0578
     24 CL        -16.5511  -10.4594   18.1625 Cl      1  UNL1       -0.0822
     25 C         -15.5831   -8.3430   17.0076 C.ar    1  UNL1        0.0127
     26 C         -15.0981   -6.9259   17.0887 C.ar    1  UNL1        0.0192
     27 C         -14.1304    0.5945   18.6116 C.3     1  UNL1        0.0550
     28 C         -14.9145    1.6941   17.9589 C.3     1  UNL1        0.1534
     29 O         -14.7939    2.9301   19.6786 O.2     1  UNL1       -0.1729
     30 S         -15.8978    2.4929   18.7621 S.O2    1  UNL1       -0.0086
     31 O         -17.0017    2.0556   17.8455 O.2     1  UNL1       -0.1729
     32 C         -16.8811    3.2917   19.5653 C.3     1  UNL1        0.1664
     33 C         -16.9156    3.1559   21.0587 C.3     1  UNL1        0.0779
     34 C         -17.4820    1.9981   21.8259 C.3     1  UNL1        0.0189
     35 C         -17.3063    2.2807   23.2885 C.3     1  UNL1        0.0185
     36 C         -16.6312    3.6133   23.4252 C.3     1  UNL1        0.0686
     37 N         -16.3898    4.1542   22.0472 N.3     1  UNL1       -0.2971
     38 H         -15.3901    4.2933   21.9001 H       1  UNL1        0.1233
@<TRIPOS>BOND
     1    29    30    2
     2    30    31    2
     3    30    28    1
     4    28    27    1
     5     1    27    1
     6     1     2    1
     7     2     3    1
     8     3     4    1
     9     4     5    1
    10     5    17    1
    11    17    18    2
    12    17    19    2
    13    17    20    1
    14    20    21   ar
    15    21    22   ar
    16    22    23   ar
    17    23    24    1
    18    23    25   ar
    19    25    26   ar
    20     5     6    1
    21     6     7   ar
    22     7     8    1
    23     7     9   ar
    24     9    10   ar
    25    10    11   ar
    26    11    12    1
    27    11    13   ar
    28    13    14    1
    29    14    15    1
    30    16    15    1
    31    30    32    1
    32    33    32    1
    33    33    34    1
    34    34    35    1
    35    35    36    1
    36    36    37    1
    37    16     1    1
    38    37    33    1
    39    16     5    1
    40    26    20   ar
    41    13     6   ar
    42    37    38    1
@<TRIPOS>MOLECULE
*****
 38 42 0 0 0
SMALL
GASTEIGER

@<TRIPOS>ATOM
      1 C           1.4196    4.3203   34.7903 C.3     1  UNL1        0.1225
      2 O           0.4159    5.1756   34.0754 O.3     1  UNL1       -0.3559
      3 C           0.0062    4.8376   32.6726 C.3     1  UNL1        0.1441
      4 C           0.6002    3.6444   31.9846 C.3     1  UNL1        0.0589
      5 C           1.6039    2.7891   32.6995 C.3     1  UNL1        0.1466
      6 C           2.1979    1.5959   32.0115 C.ar    1  UNL1        0.0618
      7 C           1.7882    1.2579   30.6087 C.ar    1  UNL1        0.1407
      8 F           0.8401    1.8739   29.6229 F       1  UNL1       -0.2043
      9 C           2.3823    0.0647   29.9207 C.ar    1  UNL1        0.0319
     10 C           3.3859   -0.7906   30.6355 C.ar    1  UNL1        0.0351
     11 C           3.7956   -0.4527   32.0383 C.ar    1  UNL1        0.1737
     12 F           4.7994   -1.3080   32.7532 F       1  UNL1       -0.2010
     13 C           3.2016    0.7406   32.7263 C.ar    1  UNL1        0.1655
     14 O           3.6113    1.0785   34.1292 O.3     1  UNL1       -0.4732
     15 C           3.0173    2.2717   34.8172 C.3     1  UNL1        0.2098
     16 C           2.0136    3.1270   34.1023 C.3     1  UNL1        0.0957
     17 S           1.1942    2.4512   31.2967 S.O2    1  UNL1        0.0094
     18 O           1.6773    2.6717   30.7021 O.2     1  UNL1       -0.1684
     19 O          -0.1154    1.7388   31.4626 O.2     1  UNL1       -0.1684
     20 C           0.7845    2.1132   29.8938 C.ar    1  UNL1        0.1059
     21 C          -0.3037    1.1097   29.6514 C.ar    1  UNL1        0.0192
     22 C          -0.7134    0.7717   28.2486 C.ar    1  UNL1        0.0127
     23 C          -0.0349    1.4373   27.0881 C.ar    1  UNL1        0.0578
     24 CL         -0.4446    1.0993   25.6853 Cl      1  UNL1       -0.0822
     25 C           1.0533    2.4408   27.3305 C.ar    1  UNL1        0.0127
     26 C           1.4630    2.7787   28.7333 C.ar    1  UNL1        0.0192
     27 C           1.8293    4.6582   36.1931 C.3     1  UNL1        0.0550
     28 C           1.4241    3.7655   37.3284 C.3     1  UNL1        0.1534
     29 O           1.6105    1.7373   37.9211 O.2     1  UNL1       -0.1729
     30 S           2.4605    2.9653   38.0601 S.O2    1  UNL1       -0.0086
     31 O           3.3105    4.1933   38.1991 O.2     1  UNL1       -0.1729
     32 C           3.4971    2.1651   38.7918 C.3     1  UNL1        0.1664
     33 C           4.5671    1.4450   38.0260 C.3     1  UNL1        0.0779
     34 C           6.0084    1.8498   37.9325 C.3     1  UNL1        0.0189
     35 C           6.7158    0.8487   37.0680 C.3     1  UNL1        0.0185
     36 C           5.7117   -0.1748   36.6272 C.3     1  UNL1        0.0686
     37 N           4.3837    0.1938   37.2193 N.3     1  UNL1       -0.2971
     38 H           4.0516   -0.5602   37.8207 H       1  UNL1        0.1233
@<TRIPOS>BOND
     1    29    30    2
     2    30    31    2
     3    30    28    1
     4    28    27    1
     5     1    27    1
     6     1     2    1
     7     2     3    1
     8     3     4    1
     9     4     5    1
    10     5    17    1
    11    17    18    2
    12    17    19    2
    13    17    20    1
    14    20    21   ar
    15    21    22   ar
    16    22    23   ar
    17    23    24    1
    18    23    25   ar
    19    25    26   ar
    20     5     6    1
    21     6     7   ar
    22     7     8    1
    23     7     9   ar
    24     9    10   ar
    25    10    11   ar
    26    11    12    1
    27    11    13   ar
    28    13    14    1
    29    14    15    1
    30    16    15    1
    31    30    32    1
    32    33    32    1
    33    33    34    1
    34    34    35    1
    35    35    36    1
    36    36    37    1
    37    16     1    1
    38    37    33    1
    39    16     5    1
    40    26    20   ar
    41    13     6   ar
    42    37    38    1
@<TRIPOS>MOLECULE
*****
 38 42 0 0 0
SMALL
GASTEIGER

@<TRIPOS>ATOM
      1 C           3.6810    0.7596   33.7550 C.3     1  UNL1        0.1225
      2 O           2.5711    1.7246   34.0493 O.3     1  UNL1       -0.3559
      3 C           1.6550    2.1722   32.9492 C.3     1  UNL1        0.1441
      4 C           1.8489    1.6548   31.5547 C.3     1  UNL1        0.0589
      5 C           2.9588    0.6899   31.2603 C.3     1  UNL1        0.1466
      6 C           3.1527    0.1725   29.8657 C.ar    1  UNL1        0.0618
      7 C           2.2366    0.6201   28.7656 C.ar    1  UNL1        0.1407
      8 F           1.0586    1.5467   28.7027 F       1  UNL1       -0.2043
      9 C           2.4305    0.1027   27.3711 C.ar    1  UNL1        0.0319
     10 C           3.5405   -0.8623   27.0767 C.ar    1  UNL1        0.0351
     11 C           4.4566   -1.3099   28.1768 C.ar    1  UNL1        0.1737
     12 F           5.5666   -2.2750   27.8825 F       1  UNL1       -0.2010
     13 C           4.2627   -0.7925   29.5714 C.ar    1  UNL1        0.1655
     14 O           5.1788   -1.2402   30.6715 O.3     1  UNL1       -0.4732
     15 C           4.9850   -0.7228   32.0661 C.3     1  UNL1        0.2098
     16 C           3.8749    0.2422   32.3604 C.3     1  UNL1        0.0957
     17 S           2.0427    1.1375   30.1601 S.O2    1  UNL1        0.0094
     18 O           2.2636    1.7652   29.7212 O.2     1  UNL1       -0.1684
     19 O           0.8915    0.1786   30.2337 O.2     1  UNL1       -0.1684
     20 C           1.1266    1.5851   29.0599 C.ar    1  UNL1        0.1059
     21 C          -0.1073    0.7934   28.7428 C.ar    1  UNL1        0.0192
     22 C          -1.0235    1.2410   27.6426 C.ar    1  UNL1        0.0127
     23 C          -0.7057    2.4803   26.8596 C.ar    1  UNL1        0.0578
     24 CL         -1.6218    2.9279   25.7594 Cl      1  UNL1       -0.0822
     25 C           0.5283    3.2720   27.1768 C.ar    1  UNL1        0.0127
     26 C           1.4444    2.8244   28.2769 C.ar    1  UNL1        0.0192
     27 C           4.5972    0.3120   34.8551 C.3     1  UNL1        0.0550
     28 C           5.3161    1.3279   35.6924 C.3     1  UNL1        0.1534
     29 O           4.6183    0.2096   37.3544 O.2     1  UNL1       -0.1729
     30 S           4.8056    1.6686   37.0610 S.O2    1  UNL1       -0.0086
     31 O           4.9929    3.1276   36.7677 O.2     1  UNL1       -0.1729
     32 C           4.2950    2.0093   38.4298 C.3     1  UNL1        0.1664
     33 C           2.9286    1.5592   38.8541 C.3     1  UNL1        0.0779
     34 C           1.6645    2.3599   38.7495 C.3     1  UNL1        0.0189
     35 C           0.5409    1.5249   39.2883 C.3     1  UNL1        0.0185
     36 C           1.1106    0.2080   39.7258 C.3     1  UNL1        0.0686
     37 N           2.5862    0.2292   39.4575 N.3     1  UNL1       -0.2971
     38 H           2.8308   -0.5186   38.8084 H       1  UNL1        0.1233
@<TRIPOS>BOND
     1    29    30    2
     2    30    31    2
     3    30    28    1
     4    28    27    1
     5     1    27    1
     6     1     2    1
     7     2     3    1
     8     3     4    1
     9     4     5    1
    10     5    17    1
    11    17    18    2
    12    17    19    2
    13    17    20    1
    14    20    21   ar
    15    21    22   ar
    16    22    23   ar
    17    23    24    1
    18    23    25   ar
    19    25    26   ar
    20     5     6    1
    21     6     7   ar
    22     7     8    1
    23     7     9   ar
    24     9    10   ar
    25    10    11   ar
    26    11    12    1
    27    11    13   ar
    28    13    14    1
    29    14    15    1
    30    16    15    1
    31    30    32    1
    32    33    32    1
    33    33    34    1
    34    34    35    1
    35    35    36    1
    36    36    37    1
    37    16     1    1
    38    37    33    1
    39    16     5    1
    40    26    20   ar
    41    13     6   ar
    42    37    38    1
@<TRIPOS>MOLECULE
*****
 38 42 0 0 0
SMALL
GASTEIGER

@<TRIPOS>ATOM
      1 C           4.3980   -2.1919   18.8159 C.3     1  UNL1        0.1225
      2 O           4.4610   -1.7677   17.3786 O.3     1  UNL1       -0.3559
      3 C           3.7544   -0.5220   16.9326 C.3     1  UNL1        0.1441
      4 C           2.9846    0.2994   17.9239 C.3     1  UNL1        0.0589
      5 C           2.9215   -0.1249   19.3613 C.3     1  UNL1        0.1466
      6 C           2.1518    0.6965   20.3526 C.ar    1  UNL1        0.0618
      7 C           1.4451    1.9421   19.9067 C.ar    1  UNL1        0.1407
      8 F           1.3000    2.6426   18.5881 F       1  UNL1       -0.2043
      9 C           0.6753    2.7635   20.8980 C.ar    1  UNL1        0.0319
     10 C           0.6122    2.3393   22.3354 C.ar    1  UNL1        0.0351
     11 C           1.3189    1.0937   22.7813 C.ar    1  UNL1        0.1737
     12 F           1.2559    0.6694   24.2187 F       1  UNL1       -0.2010
     13 C           2.0887    0.2723   21.7900 C.ar    1  UNL1        0.1655
     14 O           2.7954   -0.9734   22.2360 O.3     1  UNL1       -0.4732
     15 C           3.5652   -1.7948   21.2447 C.3     1  UNL1        0.2098
     16 C           3.6282   -1.3705   19.8073 C.3     1  UNL1        0.0957
     17 S           2.2148    1.1207   18.9153 S.O2    1  UNL1        0.0094
     18 O           2.5693    1.8216   19.0520 O.2     1  UNL1       -0.1684
     19 O           0.9460    0.6157   18.2945 O.2     1  UNL1       -0.1684
     20 C           1.5081    2.3664   18.4693 C.ar    1  UNL1        0.1059
     21 C           0.0531    2.3148   18.1083 C.ar    1  UNL1        0.0192
     22 C          -0.6537    3.5605   17.6622 C.ar    1  UNL1        0.0127
     23 C           0.0946    4.8577   17.5773 C.ar    1  UNL1        0.0578
     24 CL         -0.6121    6.1033   17.1313 Cl      1  UNL1       -0.0822
     25 C           1.5496    4.9093   17.9383 C.ar    1  UNL1        0.0127
     26 C           2.2563    3.6637   18.3843 C.ar    1  UNL1        0.0192
     27 C           5.1047   -3.4376   19.2620 C.3     1  UNL1        0.0550
     28 C           6.5634   -3.3892   19.6082 C.3     1  UNL1        0.1534
     29 O           7.1055   -1.7859   20.8871 O.2     1  UNL1       -0.1729
     30 S           7.3320   -2.1121   19.4406 S.O2    1  UNL1       -0.0086
     31 O           7.5585   -2.4382   17.9942 O.2     1  UNL1       -0.1729
     32 C           8.1007   -0.8349   19.2729 C.3     1  UNL1        0.1664
     33 C           7.4803    0.3246   18.5514 C.3     1  UNL1        0.0779
     34 C           6.5772    1.3583   19.1563 C.3     1  UNL1        0.0189
     35 C           6.1928    2.3266   18.0771 C.3     1  UNL1        0.0185
     36 C           6.8585    1.8914   16.8052 C.3     1  UNL1        0.0686
     37 N           7.6542    0.6541   17.0984 N.3     1  UNL1       -0.2971
     38 H           8.6401    0.8208   16.8968 H       1  UNL1        0.1233
@<TRIPOS>BOND
     1    29    30    2
     2    30    31    2
     3    30    28    1
     4    28    27    1
     5     1    27    1
     6     1     2    1
     7     2     3    1
     8     3     4    1
     9     4     5    1
    10     5    17    1
    11    17    18    2
    12    17    19    2
    13    17    20    1
    14    20    21   ar
    15    21    22   ar
    16    22    23   ar
    17    23    24    1
    18    23    25   ar
    19    25    26   ar
    20     5     6    1
    21     6     7   ar
    22     7     8    1
    23     7     9   ar
    24     9    10   ar
    25    10    11   ar
    26    11    12    1
    27    11    13   ar
    28    13    14    1
    29    14    15    1
    30    16    15    1
    31    30    32    1
    32    33    32    1
    33    33    34    1
    34    34    35    1
    35    35    36    1
    36    36    37    1
    37    16     1    1
    38    37    33    1
    39    16     5    1
    40    26    20   ar
    41    13     6   ar
    42    37    38    1
@<TRIPOS>MOLECULE
*****
 38 42 0 0 0
SMALL
GASTEIGER

@<TRIPOS>ATOM
      1 C           4.5023   -2.5222   22.9661 C.3     1  UNL1        0.1225
      2 O           4.7423   -2.3642   24.4382 O.3     1  UNL1       -0.3559
      3 C           4.0277   -1.2901   25.2035 C.3     1  UNL1        0.1441
      4 C           3.0731   -0.3741   24.4966 C.3     1  UNL1        0.0589
      5 C           2.8332   -0.5322   23.0244 C.3     1  UNL1        0.1466
      6 C           1.8786    0.3838   22.3175 C.ar    1  UNL1        0.0618
      7 C           1.1640    1.4579   23.0827 C.ar    1  UNL1        0.1407
      8 F           1.1636    1.8893   24.5194 F       1  UNL1       -0.2043
      9 C           0.2094    2.3739   22.3758 C.ar    1  UNL1        0.0319
     10 C          -0.0306    2.2158   20.9036 C.ar    1  UNL1        0.0351
     11 C           0.6840    1.1417   20.1384 C.ar    1  UNL1        0.1737
     12 F           0.4441    0.9836   18.6661 F       1  UNL1       -0.2010
     13 C           1.6386    0.2257   20.8453 C.ar    1  UNL1        0.1655
     14 O           2.3532   -0.8484   20.0799 O.3     1  UNL1       -0.4732
     15 C           3.3078   -1.7644   20.7869 C.3     1  UNL1        0.2098
     16 C           3.5478   -1.6063   22.2591 C.3     1  UNL1        0.0957
     17 S           2.1186    0.5419   23.7897 S.O2    1  UNL1        0.0094
     18 O           1.3726    0.3968   24.0304 O.2     1  UNL1       -0.1684
     19 O           3.1195    1.6561   23.8719 O.2     1  UNL1       -0.1684
     20 C           1.4040    1.6160   24.5550 C.ar    1  UNL1        0.1059
     21 C           0.0891    1.3197   25.2131 C.ar    1  UNL1        0.0192
     22 C          -0.6255    2.3939   25.9784 C.ar    1  UNL1        0.0127
     23 C          -0.0252    3.7643   26.0855 C.ar    1  UNL1        0.0578
     24 CL         -0.7397    4.8385   26.8507 Cl      1  UNL1       -0.0822
     25 C           1.2898    4.0606   25.4273 C.ar    1  UNL1        0.0127
     26 C           2.0043    2.9865   24.6620 C.ar    1  UNL1        0.0192
     27 C           5.2170   -3.5964   22.2007 C.3     1  UNL1        0.0550
     28 C           6.5921   -3.3423   21.6582 C.3     1  UNL1        0.1534
     29 O           5.8701   -3.9199   19.7491 O.2     1  UNL1       -0.1729
     30 S           6.7634   -2.8284   20.2594 S.O2    1  UNL1       -0.0086
     31 O           7.6568   -1.7369   20.7698 O.2     1  UNL1       -0.1729
     32 C           6.9348   -2.3145   18.8606 C.3     1  UNL1        0.1664
     33 C           5.8396   -1.5189   18.2145 C.3     1  UNL1        0.0779
     34 C           5.6416   -0.0365   18.3287 C.3     1  UNL1        0.0189
     35 C           4.4298    0.3326   17.5255 C.3     1  UNL1        0.0185
     36 C           3.8787   -0.9218   16.9148 C.3     1  UNL1        0.0686
     37 N           4.7501   -2.0661   17.3407 N.3     1  UNL1       -0.2971
     38 H           5.1570   -2.5153   16.5203 H       1  UNL1        0.1233
@<TRIPOS>BOND
     1    29    30    2
     2    30    31    2
     3    30    28    1
     4    28    27    1
     5     1    27    1
     6     1     2    1
     7     2     3    1
     8     3     4    1
     9     4     5    1
    10     5    17    1
    11    17    18    2
    12    17    19    2
    13    17    20    1
    14    20    21   ar
    15    21    22   ar
    16    22    23   ar
    17    23    24    1
    18    23    25   ar
    19    25    26   ar
    20     5     6    1
    21     6     7   ar
    22     7     8    1
    23     7     9   ar
    24     9    10   ar
    25    10    11   ar
    26    11    12    1
    27    11    13   ar
    28    13    14    1
    29    14    15    1
    30    16    15    1
    31    30    32    1
    32    33    32    1
    33    33    34    1
    34    34    35    1
    35    35    36    1
    36    36    37    1
    37    16     1    1
    38    37    33    1
    39    16     5    1
    40    26    20   ar
    41    13     6   ar
    42    37    38    1
@<TRIPOS>MOLECULE
*****
 38 42 0 0 0
SMALL
GASTEIGER

@<TRIPOS>ATOM
      1 C           4.2861   -2.3239   19.1317 C.3     1  UNL1        0.1225
      2 O           4.3923   -1.9809   17.6754 O.3     1  UNL1       -0.3559
      3 C           3.7494   -0.7316   17.1503 C.3     1  UNL1        0.1441
      4 C           3.0002    0.1747   18.0816 C.3     1  UNL1        0.0589
      5 C           2.8939   -0.1683   19.5379 C.3     1  UNL1        0.1466
      6 C           2.1447    0.7380   20.4692 C.ar    1  UNL1        0.0618
      7 C           1.5017    1.9874   19.9441 C.ar    1  UNL1        0.1407
      8 F           1.4103    2.6214   18.5877 F       1  UNL1       -0.2043
      9 C           0.7525    2.8937   20.8754 C.ar    1  UNL1        0.0319
     10 C           0.6463    2.5507   22.3318 C.ar    1  UNL1        0.0351
     11 C           1.2892    1.3013   22.8568 C.ar    1  UNL1        0.1737
     12 F           1.1830    0.9583   24.3133 F       1  UNL1       -0.2010
     13 C           2.0385    0.3950   21.9256 C.ar    1  UNL1        0.1655
     14 O           2.6814   -0.8544   22.4507 O.3     1  UNL1       -0.4732
     15 C           3.4307   -1.7607   21.5194 C.3     1  UNL1        0.2098
     16 C           3.5369   -1.4176   20.0630 C.3     1  UNL1        0.0957
     17 S           2.2510    1.0810   19.0129 S.O2    1  UNL1        0.0094
     18 O           2.6179    1.7759   19.1472 O.2     1  UNL1       -0.1684
     19 O           1.0046    0.5913   18.3369 O.2     1  UNL1       -0.1684
     20 C           1.6079    2.3304   18.4877 C.ar    1  UNL1        0.1059
     21 C           0.1537    2.3279   18.1202 C.ar    1  UNL1        0.0192
     22 C          -0.4894    3.5773   17.5951 C.ar    1  UNL1        0.0127
     23 C           0.3219    4.8291   17.4375 C.ar    1  UNL1        0.0578
     24 CL         -0.3210    6.0784   16.9125 Cl      1  UNL1       -0.0822
     25 C           1.7762    4.8315   17.8051 C.ar    1  UNL1        0.0127
     26 C           2.4192    3.5822   18.3302 C.ar    1  UNL1        0.0192
     27 C           4.9291   -3.5733   19.6569 C.3     1  UNL1        0.0550
     28 C           6.3920   -3.5815   19.9883 C.3     1  UNL1        0.1534
     29 O           7.9564   -2.6288   21.0582 O.2     1  UNL1       -0.1729
     30 S           6.8366   -3.5585   21.4207 S.O2    1  UNL1       -0.0086
     31 O           5.7167   -4.4883   21.7832 O.2     1  UNL1       -0.1729
     32 C           7.2812   -3.5355   22.8532 C.3     1  UNL1        0.1664
     33 C           7.5510   -4.8222   23.5754 C.3     1  UNL1        0.0779
     34 C           7.2994   -5.0860   25.0304 C.3     1  UNL1        0.0189
     35 C           7.7128   -6.4978   25.3238 C.3     1  UNL1        0.0185
     36 C           8.2199   -7.1065   24.0500 C.3     1  UNL1        0.0686
     37 N           8.1199   -6.0709   22.9695 N.3     1  UNL1       -0.2971
     38 H           7.5071   -6.4049   22.2256 H       1  UNL1        0.1233
@<TRIPOS>BOND
     1    29    30    2
     2    30    31    2
     3    30    28    1
     4    28    27    1
     5     1    27    1
     6     1     2    1
     7     2     3    1
     8     3     4    1
     9     4     5    1
    10     5    17    1
    11    17    18    2
    12    17    19    2
    13    17    20    1
    14    20    21   ar
    15    21    22   ar
    16    22    23   ar
    17    23    24    1
    18    23    25   ar
    19    25    26   ar
    20     5     6    1
    21     6     7   ar
    22     7     8    1
    23     7     9   ar
    24     9    10   ar
    25    10    11   ar
    26    11    12    1
    27    11    13   ar
    28    13    14    1
    29    14    15    1
    30    16    15    1
    31    30    32    1
    32    33    32    1
    33    33    34    1
    34    34    35    1
    35    35    36    1
    36    36    37    1
    37    16     1    1
    38    37    33    1
    39    16     5    1
    40    26    20   ar
    41    13     6   ar
    42    37    38    1
@<TRIPOS>MOLECULE
*****
 38 42 0 0 0
SMALL
GASTEIGER

@<TRIPOS>ATOM
      1 C          -1.0740    3.5674   20.2991 C.3     1  UNL1        0.1225
      2 O          -0.7999    3.3629   18.8386 O.3     1  UNL1       -0.3559
      3 C           0.2444    2.3786   18.4021 C.3     1  UNL1        0.1441
      4 C           1.0148    1.5989   19.4262 C.3     1  UNL1        0.0589
      5 C           0.7407    1.8034   20.8866 C.3     1  UNL1        0.1466
      6 C           1.5110    1.0237   21.9107 C.ar    1  UNL1        0.0618
      7 C           2.5554    0.0394   21.4742 C.ar    1  UNL1        0.1407
      8 F           3.0749   -0.4055   20.1391 F       1  UNL1       -0.2043
      9 C           3.3257   -0.7403   22.4983 C.ar    1  UNL1        0.0319
     10 C           3.0517   -0.5358   23.9587 C.ar    1  UNL1        0.0351
     11 C           2.0073    0.4484   24.3952 C.ar    1  UNL1        0.1737
     12 F           1.7332    0.6530   25.8557 F       1  UNL1       -0.2010
     13 C           1.2370    1.2282   23.3711 C.ar    1  UNL1        0.1655
     14 O           0.1925    2.2124   23.8077 O.3     1  UNL1       -0.4732
     15 C          -0.5778    2.9922   22.7836 C.3     1  UNL1        0.2098
     16 C          -0.3037    2.7876   21.3231 C.3     1  UNL1        0.0957
     17 S           1.7851    0.8192   20.4502 S.O2    1  UNL1        0.0094
     18 O           2.5466    1.0547   20.4547 O.2     1  UNL1       -0.1684
     19 O           1.0019   -0.4142   20.1100 O.2     1  UNL1       -0.1684
     20 C           2.8295   -0.1651   20.0137 C.ar    1  UNL1        0.1059
     21 C           2.4736   -1.6130   19.8498 C.ar    1  UNL1        0.0192
     22 C           3.5180   -2.5974   19.4133 C.ar    1  UNL1        0.0127
     23 C           4.9182   -2.1337   19.1408 C.ar    1  UNL1        0.0578
     24 CL          5.9626   -3.1179   18.7043 Cl      1  UNL1       -0.0822
     25 C           5.2741   -0.6857   19.3047 C.ar    1  UNL1        0.0127
     26 C           4.2297    0.2985   19.7412 C.ar    1  UNL1        0.0192
     27 C          -2.1184    4.5516   20.7356 C.3     1  UNL1        0.0550
     28 C          -3.5730    4.2113   20.6000 C.3     1  UNL1        0.1534
     29 O          -4.5765    2.4751   21.2918 O.2     1  UNL1       -0.1729
     30 S          -4.3791    3.8662   21.8170 S.O2    1  UNL1       -0.0086
     31 O          -4.1817    5.2573   22.3422 O.2     1  UNL1       -0.1729
     32 C          -5.1853    3.5212   23.0340 C.3     1  UNL1        0.1664
     33 C          -4.6126    3.7473   24.4018 C.3     1  UNL1        0.0779
     34 C          -5.3536    4.2852   25.5899 C.3     1  UNL1        0.0189
     35 C          -4.3974    4.3456   26.7441 C.3     1  UNL1        0.0185
     36 C          -3.0655    3.8450   26.2693 C.3     1  UNL1        0.0686
     37 N          -3.1985    3.4753   24.8217 N.3     1  UNL1       -0.2971
     38 H          -2.9844    2.4860   24.6960 H       1  UNL1        0.1233
@<TRIPOS>BOND
     1    29    30    2
     2    30    31    2
     3    30    28    1
     4    28    27    1
     5     1    27    1
     6     1     2    1
     7     2     3    1
     8     3     4    1
     9     4     5    1
    10     5    17    1
    11    17    18    2
    12    17    19    2
    13    17    20    1
    14    20    21   ar
    15    21    22   ar
    16    22    23   ar
    17    23    24    1
    18    23    25   ar
    19    25    26   ar
    20     5     6    1
    21     6     7   ar
    22     7     8    1
    23     7     9   ar
    24     9    10   ar
    25    10    11   ar
    26    11    12    1
    27    11    13   ar
    28    13    14    1
    29    14    15    1
    30    16    15    1
    31    30    32    1
    32    33    32    1
    33    33    34    1
    34    34    35    1
    35    35    36    1
    36    36    37    1
    37    16     1    1
    38    37    33    1
    39    16     5    1
    40    26    20   ar
    41    13     6   ar
    42    37    38    1
@<TRIPOS>MOLECULE
*****
 38 42 0 0 0
SMALL
GASTEIGER

@<TRIPOS>ATOM
      1 C           4.3447   -2.3163   18.9307 C.3     1  UNL1        0.1225
      2 O           4.4735   -1.9085   17.4930 O.3     1  UNL1       -0.3559
      3 C           3.8269   -0.6436   17.0115 C.3     1  UNL1        0.1441
      4 C           3.0516    0.2135   17.9677 C.3     1  UNL1        0.0589
      5 C           2.9229   -0.1943   19.4055 C.3     1  UNL1        0.1466
      6 C           2.1476    0.6627   20.3617 C.ar    1  UNL1        0.0618
      7 C           1.5010    1.9277   19.8802 C.ar    1  UNL1        0.1407
      8 F           1.4273    2.6199   18.5514 F       1  UNL1       -0.2043
      9 C           0.7257    2.7848   20.8364 C.ar    1  UNL1        0.0319
     10 C           0.5970    2.3769   22.2741 C.ar    1  UNL1        0.0351
     11 C           1.2435    1.1120   22.7556 C.ar    1  UNL1        0.1737
     12 F           1.1148    0.7041   24.1933 F       1  UNL1       -0.2010
     13 C           2.0188    0.2549   21.7994 C.ar    1  UNL1        0.1655
     14 O           2.6654   -1.0101   22.2809 O.3     1  UNL1       -0.4732
     15 C           3.4407   -1.8672   21.3247 C.3     1  UNL1        0.2098
     16 C           3.5694   -1.4593   19.8870 C.3     1  UNL1        0.0957
     17 S           2.2763    1.0706   18.9240 S.O2    1  UNL1        0.0094
     18 O           2.6509    1.7599   19.0656 O.2     1  UNL1       -0.1684
     19 O           1.0115    0.6041   18.2661 O.2     1  UNL1       -0.1684
     20 C           1.6297    2.3356   18.4424 C.ar    1  UNL1        0.1059
     21 C           2.4335    3.5981   18.3434 C.ar    1  UNL1        0.0192
     22 C           1.7869    4.8631   17.8618 C.ar    1  UNL1        0.0127
     23 C           0.3364    4.8654   17.4793 C.ar    1  UNL1        0.0578
     24 CL         -0.3102    6.1303   16.9978 Cl      1  UNL1       -0.0822
     25 C          -0.4673    3.6028   17.5784 C.ar    1  UNL1        0.0127
     26 C           0.1793    2.3379   18.0599 C.ar    1  UNL1        0.0192
     27 C           4.9913   -3.5813   19.4123 C.3     1  UNL1        0.0550
     28 C           6.4340   -3.5770   19.8227 C.3     1  UNL1        0.1534
     29 O           7.8005   -2.2858   20.8052 O.2     1  UNL1       -0.1729
     30 S           6.8064   -3.3163   21.2521 S.O2    1  UNL1       -0.0086
     31 O           5.8123   -4.3468   21.6991 O.2     1  UNL1       -0.1729
     32 C           7.1788   -3.0556   22.6817 C.3     1  UNL1        0.1664
     33 C           6.2579   -2.2668   23.5647 C.3     1  UNL1        0.0779
     34 C           6.2357   -0.7735   23.7051 C.3     1  UNL1        0.0189
     35 C           5.1617   -0.4165   24.6895 C.3     1  UNL1        0.0185
     36 C           4.5201   -1.6891   25.1575 C.3     1  UNL1        0.0686
     37 N           5.1977   -2.8326   24.4623 N.3     1  UNL1       -0.2971
     38 H           4.5173   -3.3533   23.9088 H       1  UNL1        0.1233
@<TRIPOS>BOND
     1    29    30    2
     2    30    31    2
     3    30    28    1
     4    28    27    1
     5     1    27    1
     6     1     2    1
     7     2     3    1
     8     3     4    1
     9     4     5    1
    10     5    17    1
    11    17    18    2
    12    17    19    2
    13    17    20    1
    14    20    21   ar
    15    21    22   ar
    16    22    23   ar
    17    23    24    1
    18    23    25   ar
    19    25    26   ar
    20     5     6    1
    21     6     7   ar
    22     7     8    1
    23     7     9   ar
    24     9    10   ar
    25    10    11   ar
    26    11    12    1
    27    11    13   ar
    28    13    14    1
    29    14    15    1
    30    16    15    1
    31    30    32    1
    32    33    32    1
    33    33    34    1
    34    34    35    1
    35    35    36    1
    36    36    37    1
    37    16     1    1
    38    37    33    1
    39    16     5    1
    40    26    20   ar
    41    13     6   ar
    42    37    38    1
