@<TRIPOS>MOLECULE
*****
 56 61 0 0 0
SMALL
GASTEIGER

@<TRIPOS>ATOM
      1 C           4.7882   -1.9052   27.6081 C.3     1  UNL1        0.1269
      2 O           3.4230   -1.9930   26.9928 O.3     1  UNL1       -0.3830
      3 H           2.8819   -1.2485   27.2990 H       1  UNL1        0.2104
      4 C           5.8214   -2.9458   27.2925 C.3     1  UNL1        0.0401
      5 C           6.5811   -2.8807   26.0008 C.3     1  UNL1        0.0833
      6 O           6.6264   -0.9877   24.2218 O.2     1  UNL1       -0.2751
      7 C           5.9742   -2.2052   24.8068 C.2     1  UNL1        0.2226
      8 N           4.7151   -2.7473   24.1979 N.am    1  UNL1       -0.2999
      9 H           4.2870   -3.5464   24.5819 H       1  UNL1        0.1498
     10 C           4.1081   -2.0719   23.0041 C.3     1  UNL1        0.1278
     11 C           4.4923   -2.5062   21.6207 C.ar    1  UNL1        0.0320
     12 C           5.4835   -3.6160   21.4312 C.ar    1  UNL1        0.0004
     13 C           5.8677   -4.0504   20.0478 C.ar    1  UNL1       -0.0001
     14 C           5.2607   -3.3750   18.8540 C.ar    1  UNL1        0.0031
     15 C           4.2696   -2.2652   19.0435 C.ar    1  UNL1        0.0366
     16 C           3.8854   -1.8308   20.4268 C.ar    1  UNL1        0.1362
     17 O           2.8942   -0.7209   20.6163 O.3     1  UNL1       -0.4730
     18 C           2.5100   -0.2866   21.9997 C.3     1  UNL1        0.2364
     19 C           3.1170   -0.9621   23.1936 C.3     1  UNL1        0.1762
     20 O           2.7328   -0.5277   24.5770 O.3     1  UNL1       -0.3788
     21 H           2.0875    0.1944   24.5216 H       1  UNL1        0.2106
     22 C           7.9478   -3.4912   25.9029 C.3     1  UNL1        0.0355
     23 C           8.1350   -4.8020   25.1981 C.ar    1  UNL1       -0.0217
     24 C           7.9565   -6.0888   25.9479 C.ar    1  UNL1       -0.0043
     25 C           8.1437   -7.3997   25.2430 C.ar    1  UNL1       -0.0003
     26 C           8.5095   -7.4236   23.7885 C.ar    1  UNL1       -0.0000
     27 C           8.6880   -6.1367   23.0388 C.ar    1  UNL1       -0.0003
     28 C           8.5008   -4.8259   23.7436 C.ar    1  UNL1       -0.0043
     29 C           5.1201   -0.7768   28.5390 C.3     1  UNL1        0.1021
     30 N           4.9739   -0.9591   30.0207 N.3     1  UNL1       -0.2621
     31 C           6.0598   -1.6358   30.8038 C.3     1  UNL1        0.0901
     32 C           5.9136   -1.8181   32.2855 C.3     1  UNL1        0.0900
     33 N           4.6816   -1.3239   32.9840 N.3     1  UNL1       -0.2635
     34 C           3.5958   -0.6473   32.2009 C.3     1  UNL1        0.0980
     35 C           3.7420   -0.4649   30.7192 C.3     1  UNL1        0.1510
     36 C           2.6562    0.2116   29.9361 C.2     1  UNL1        0.2386
     37 O           2.6345    1.7071   29.8217 O.2     1  UNL1       -0.2736
     38 N           1.5921   -0.6073   29.2673 N.am    1  UNL1       -0.2961
     39 H           1.6064   -1.5888   29.3424 H       1  UNL1        0.1497
     40 C           0.5064    0.0693   28.4842 C.3     1  UNL1        0.1939
     41 C          -0.8871    0.1342   29.0357 C.3     1  UNL1        0.4154
     42 F          -2.2805    0.1991   29.5872 F       1  UNL1       -0.1682
     43 F          -0.4969    1.3086   29.8834 F       1  UNL1       -0.1682
     44 F          -1.2773   -1.0401   28.1880 F       1  UNL1       -0.1682
     45 C           4.5354   -1.5063   34.4657 C.3     1  UNL1        0.1377
     46 C           5.0790   -0.4716   35.4060 C.ar    1  UNL1        0.1390
     47 C           6.5268   -0.1303   35.5999 C.ar    1  UNL1        0.0375
     48 C           6.6130    0.9556   36.6311 C.ar    1  UNL1        0.0404
     49 C           5.2184    1.2854   37.0745 C.ar    1  UNL1        0.1464
     50 O           4.2704    0.4033   36.3174 O.2     1  UNL1       -0.4563
     51 C           4.8386    2.3162   38.0958 C.ar    1  UNL1        0.0537
     52 C           5.7972    3.4164   38.4435 C.ar    1  UNL1        0.0062
     53 C           5.4173    4.4472   39.4648 C.ar    1  UNL1        0.0208
     54 C           4.0790    4.3779   40.1384 C.ar    1  UNL1        0.0989
     55 N           3.1203    3.2778   39.7908 N.ar    1  UNL1       -0.2422
     56 C           3.5002    2.2470   38.7695 C.ar    1  UNL1        0.1019
@<TRIPOS>BOND
     1     6     7    2
     2     7     8   am
     3    10     8    1
     4    10    11    1
     5    11    12   ar
     6    12    13   ar
     7    13    14   ar
     8    14    15   ar
     9    15    16   ar
    10    16    17    1
    11    17    18    1
    12    18    19    1
    13    19    20    1
    14     7     5    1
    15     5    22    1
    16    22    23    1
    17    23    24   ar
    18    24    25   ar
    19    25    26   ar
    20    26    27   ar
    21    27    28   ar
    22     5     4    1
    23     4     1    1
    24     1     2    1
    25     1    29    1
    26    29    30    1
    27    30    31    1
    28    31    32    1
    29    32    33    1
    30    33    45    1
    31    45    46    1
    32    46    47   ar
    33    47    48   ar
    34    48    49   ar
    35    49    51    1
    36    51    52   ar
    37    52    53   ar
    38    53    54   ar
    39    54    55   ar
    40    55    56   ar
    41    49    50   ar
    42    33    34    1
    43    34    35    1
    44    35    36    1
    45    36    37    2
    46    36    38   am
    47    38    40    1
    48    40    41    1
    49    41    42    1
    50    41    43    1
    51    41    44    1
    52    19    10    1
    53    28    23   ar
    54    35    30    1
    55    16    11   ar
    56    50    46   ar
    57    56    51   ar
    58     8     9    1
    59    20    21    1
    60     2     3    1
    61    38    39    1
@<TRIPOS>MOLECULE
*****
 56 61 0 0 0
SMALL
GASTEIGER

@<TRIPOS>ATOM
      1 C           4.6113   -1.4096   26.5952 C.3     1  UNL1        0.1269
      2 O           3.1606   -1.7741   26.4830 O.3     1  UNL1       -0.3830
      3 H           2.6514   -1.2819   27.1459 H       1  UNL1        0.2104
      4 C           5.6158   -2.0381   25.6754 C.3     1  UNL1        0.0401
      5 C           5.5229   -1.8109   24.1956 C.3     1  UNL1        0.0833
      6 O           5.1043    0.6331   23.4201 O.2     1  UNL1       -0.2751
      7 C           4.5996   -0.7598   23.6547 C.2     1  UNL1        0.2226
      8 N           3.1715   -1.1016   23.3483 N.am    1  UNL1       -0.2999
      9 H           2.8403   -2.0158   23.5022 H       1  UNL1        0.1498
     10 C           2.2482   -0.0505   22.8074 C.3     1  UNL1        0.1278
     11 C           2.1198    0.1446   21.3257 C.ar    1  UNL1        0.0320
     12 C           2.9148   -0.7115   20.3849 C.ar    1  UNL1        0.0004
     13 C           2.7865   -0.5164   18.9031 C.ar    1  UNL1       -0.0001
     14 C           1.8631    0.5347   18.3622 C.ar    1  UNL1        0.0031
     15 C           1.0682    1.3907   19.3030 C.ar    1  UNL1        0.0366
     16 C           1.1965    1.1956   20.7847 C.ar    1  UNL1        0.1362
     17 O           0.4015    2.0518   21.7256 O.3     1  UNL1       -0.4730
     18 C           0.5298    1.8567   23.2073 C.3     1  UNL1        0.2364
     19 C           1.4532    0.8055   23.7482 C.3     1  UNL1        0.1762
     20 O           1.5816    0.6105   25.2299 O.3     1  UNL1       -0.3788
     21 H           1.0044    1.2398   25.6900 H       1  UNL1        0.2106
     22 C           6.3533   -2.6349   23.2567 C.3     1  UNL1        0.0355
     23 C           5.8274   -2.9781   21.8945 C.ar    1  UNL1       -0.0217
     24 C           4.6641   -3.9145   21.7537 C.ar    1  UNL1       -0.0043
     25 C           4.1382   -4.2577   20.3914 C.ar    1  UNL1       -0.0003
     26 C           4.7755   -3.6645   19.1701 C.ar    1  UNL1       -0.0000
     27 C           5.9388   -2.7280   19.3109 C.ar    1  UNL1       -0.0003
     28 C           6.4648   -2.3849   20.6731 C.ar    1  UNL1       -0.0043
     29 C           5.0576   -0.4166   27.6272 C.3     1  UNL1        0.1021
     30 N           5.0893   -0.8037   29.0760 N.3     1  UNL1       -0.2621
     31 C           6.2847   -1.5160   29.6361 C.3     1  UNL1        0.0901
     32 C           6.3164   -1.9030   31.0850 C.3     1  UNL1        0.0900
     33 N           5.1526   -1.5778   31.9737 N.3     1  UNL1       -0.2635
     34 C           3.9572   -0.8656   31.4136 C.3     1  UNL1        0.0980
     35 C           3.9255   -0.4785   29.9648 C.3     1  UNL1        0.1510
     36 C           2.7302    0.2337   29.4047 C.2     1  UNL1        0.2386
     37 O           2.7034    1.7328   29.3595 O.2     1  UNL1       -0.2736
     38 N           1.5614   -0.5531   28.8898 N.am    1  UNL1       -0.2961
     39 H           1.5790   -1.5370   28.9195 H       1  UNL1        0.1497
     40 C           0.3661    0.1592   28.3297 C.3     1  UNL1        0.1939
     41 C          -0.9206    0.1852   29.1003 C.3     1  UNL1        0.4154
     42 F          -2.2073    0.2112   29.8709 F       1  UNL1       -0.1682
     43 F          -1.4102   -1.0006   28.3230 F       1  UNL1       -0.1682
     44 F          -0.4311    1.3709   29.8776 F       1  UNL1       -0.1682
     45 C           5.1842   -1.9649   33.4226 C.3     1  UNL1        0.1377
     46 C           5.3730   -0.9135   34.4758 C.ar    1  UNL1        0.1390
     47 C           6.6809   -0.3106   34.8952 C.ar    1  UNL1        0.0375
     48 C           6.4033    0.6950   35.9731 C.ar    1  UNL1        0.0404
     49 C           4.9238    0.7135   36.2198 C.ar    1  UNL1        0.1464
     50 O           4.2871   -0.2806   35.2945 O.2     1  UNL1       -0.4563
     51 C           4.2070    1.5749   37.2169 C.ar    1  UNL1        0.0537
     52 C           4.3954    3.0628   37.1953 C.ar    1  UNL1        0.0062
     53 C           3.6786    3.9242   38.1924 C.ar    1  UNL1        0.0208
     54 C           2.7733    3.2976   39.2110 C.ar    1  UNL1        0.0989
     55 N           2.5848    1.8096   39.2327 N.ar    1  UNL1       -0.2422
     56 C           3.3016    0.9483   38.2356 C.ar    1  UNL1        0.1019
@<TRIPOS>BOND
     1     6     7    2
     2     7     8   am
     3    10     8    1
     4    10    11    1
     5    11    12   ar
     6    12    13   ar
     7    13    14   ar
     8    14    15   ar
     9    15    16   ar
    10    16    17    1
    11    17    18    1
    12    18    19    1
    13    19    20    1
    14     7     5    1
    15     5    22    1
    16    22    23    1
    17    23    24   ar
    18    24    25   ar
    19    25    26   ar
    20    26    27   ar
    21    27    28   ar
    22     5     4    1
    23     4     1    1
    24     1     2    1
    25     1    29    1
    26    29    30    1
    27    30    31    1
    28    31    32    1
    29    32    33    1
    30    33    45    1
    31    45    46    1
    32    46    47   ar
    33    47    48   ar
    34    48    49   ar
    35    49    51    1
    36    51    52   ar
    37    52    53   ar
    38    53    54   ar
    39    54    55   ar
    40    55    56   ar
    41    49    50   ar
    42    33    34    1
    43    34    35    1
    44    35    36    1
    45    36    37    2
    46    36    38   am
    47    38    40    1
    48    40    41    1
    49    41    42    1
    50    41    43    1
    51    41    44    1
    52    19    10    1
    53    28    23   ar
    54    35    30    1
    55    16    11   ar
    56    50    46   ar
    57    56    51   ar
    58     8     9    1
    59    20    21    1
    60     2     3    1
    61    38    39    1
@<TRIPOS>MOLECULE
*****
 56 61 0 0 0
SMALL
GASTEIGER

@<TRIPOS>ATOM
      1 C           4.7390   -1.3675   27.5405 C.3     1  UNL1        0.1269
      2 O           3.4761   -2.0873   27.1704 O.3     1  UNL1       -0.3830
      3 H           2.7342   -1.4625   27.1766 H       1  UNL1        0.2104
      4 C           6.0377   -2.1154   27.6034 C.3     1  UNL1        0.0401
      5 C           6.7241   -2.5344   26.3372 C.3     1  UNL1        0.0833
      6 O           6.7963   -1.0194   24.2278 O.2     1  UNL1       -0.2751
      7 C           6.1581   -2.1301   25.0082 C.2     1  UNL1        0.2226
      8 N           4.9539   -2.8365   24.4596 N.am    1  UNL1       -0.2999
      9 H           4.5350   -3.5655   24.9718 H       1  UNL1        0.1498
     10 C           4.3879   -2.4323   23.1306 C.3     1  UNL1        0.1278
     11 C           3.4319   -1.2798   23.0418 C.ar    1  UNL1        0.0320
     12 C           3.0419   -0.5316   24.2820 C.ar    1  UNL1        0.0004
     13 C           2.0859    0.6209   24.1931 C.ar    1  UNL1       -0.0001
     14 C           1.5199    1.0251   22.8642 C.ar    1  UNL1        0.0031
     15 C           1.9099    0.2769   21.6240 C.ar    1  UNL1        0.0366
     16 C           2.8659   -0.8756   21.7129 C.ar    1  UNL1        0.1362
     17 O           3.2559   -1.6238   20.4726 O.3     1  UNL1       -0.4730
     18 C           4.2120   -2.7762   20.5614 C.3     1  UNL1        0.2364
     19 C           4.7779   -3.1805   21.8905 C.3     1  UNL1        0.1762
     20 O           5.7340   -4.3329   21.9793 O.3     1  UNL1       -0.3788
     21 H           5.8781   -4.7024   21.0941 H       1  UNL1        0.2106
     22 C           7.9764   -3.3576   26.3999 C.3     1  UNL1        0.0355
     23 C           7.9268   -4.8235   26.0856 C.ar    1  UNL1       -0.0217
     24 C           8.0182   -5.2889   24.6626 C.ar    1  UNL1       -0.0043
     25 C           7.9687   -6.7548   24.3483 C.ar    1  UNL1       -0.0003
     26 C           7.8278   -7.7552   25.4570 C.ar    1  UNL1       -0.0000
     27 C           7.7364   -7.2898   26.8801 C.ar    1  UNL1       -0.0003
     28 C           7.7859   -5.8240   27.1944 C.ar    1  UNL1       -0.0043
     29 C           4.7032    0.1003   27.8476 C.3     1  UNL1        0.1021
     30 N           5.0944    0.5912   29.2100 N.3     1  UNL1       -0.2621
     31 C           6.4685    1.1468   29.4410 C.3     1  UNL1        0.0901
     32 C           6.8597    1.6377   30.8033 C.3     1  UNL1        0.0900
     33 N           5.8769    1.5730   31.9347 N.3     1  UNL1       -0.2635
     34 C           4.5029    1.0175   31.7036 C.3     1  UNL1        0.0980
     35 C           4.1116    0.5266   30.3413 C.3     1  UNL1        0.1510
     36 C           2.7376   -0.0290   30.1103 C.2     1  UNL1        0.2386
     37 O           2.2209   -1.1373   30.9790 O.2     1  UNL1       -0.2736
     38 N           1.8803    0.5238   29.0105 N.am    1  UNL1       -0.2961
     39 H           2.2194    1.2512   28.4403 H       1  UNL1        0.1497
     40 C           0.5063   -0.0317   28.7794 C.3     1  UNL1        0.1939
     41 C          -0.5818    0.8546   28.2497 C.3     1  UNL1        0.4154
     42 F          -1.6699    1.7409   27.7199 F       1  UNL1       -0.1682
     43 F           0.4420    1.6813   27.5298 F       1  UNL1       -0.1682
     44 F          -1.6057    0.0279   28.9695 F       1  UNL1       -0.1682
     45 C           6.2681    2.0639   33.2970 C.3     1  UNL1        0.1377
     46 C           5.5485    1.5576   34.5119 C.ar    1  UNL1        0.1390
     47 C           5.8507    0.2873   35.2501 C.ar    1  UNL1        0.0375
     48 C           4.8894    0.1772   36.3963 C.ar    1  UNL1        0.0404
     49 C           3.9930    1.3796   36.3664 C.ar    1  UNL1        0.1464
     50 O           4.4003    2.2327   35.2018 O.2     1  UNL1       -0.4563
     51 C           2.8839    1.6767   37.3317 C.ar    1  UNL1        0.0537
     52 C           2.5580    0.7007   38.4231 C.ar    1  UNL1        0.0062
     53 C           1.4489    0.9978   39.3884 C.ar    1  UNL1        0.0208
     54 C           0.6659    2.2709   39.2623 C.ar    1  UNL1        0.0989
     55 N           0.9919    3.2470   38.1708 N.ar    1  UNL1       -0.2422
     56 C           2.1008    2.9498   37.2057 C.ar    1  UNL1        0.1019
@<TRIPOS>BOND
     1     6     7    2
     2     7     8   am
     3    10     8    1
     4    10    11    1
     5    11    12   ar
     6    12    13   ar
     7    13    14   ar
     8    14    15   ar
     9    15    16   ar
    10    16    17    1
    11    17    18    1
    12    18    19    1
    13    19    20    1
    14     7     5    1
    15     5    22    1
    16    22    23    1
    17    23    24   ar
    18    24    25   ar
    19    25    26   ar
    20    26    27   ar
    21    27    28   ar
    22     5     4    1
    23     4     1    1
    24     1     2    1
    25     1    29    1
    26    29    30    1
    27    30    31    1
    28    31    32    1
    29    32    33    1
    30    33    45    1
    31    45    46    1
    32    46    47   ar
    33    47    48   ar
    34    48    49   ar
    35    49    51    1
    36    51    52   ar
    37    52    53   ar
    38    53    54   ar
    39    54    55   ar
    40    55    56   ar
    41    49    50   ar
    42    33    34    1
    43    34    35    1
    44    35    36    1
    45    36    37    2
    46    36    38   am
    47    38    40    1
    48    40    41    1
    49    41    42    1
    50    41    43    1
    51    41    44    1
    52    19    10    1
    53    28    23   ar
    54    35    30    1
    55    16    11   ar
    56    50    46   ar
    57    56    51   ar
    58     8     9    1
    59    20    21    1
    60     2     3    1
    61    38    39    1
@<TRIPOS>MOLECULE
*****
 56 61 0 0 0
SMALL
GASTEIGER

@<TRIPOS>ATOM
      1 C           3.3772   -0.4595   30.6402 C.3     1  UNL1        0.1269
      2 O           1.9930   -0.9524   30.3389 O.3     1  UNL1       -0.3830
      3 H           1.6776   -0.5475   29.5159 H       1  UNL1        0.2104
      4 C           4.0936   -0.9392   31.8678 C.3     1  UNL1        0.0401
      5 C           4.0433   -0.1300   33.1297 C.3     1  UNL1        0.0833
      6 O           4.4141    2.4140   32.7545 O.2     1  UNL1       -0.2751
      7 C           3.5073    1.2707   33.1017 C.2     1  UNL1        0.2226
      8 N           2.0644    1.5282   33.4209 N.am    1  UNL1       -0.2999
      9 H           1.4692    0.7778   33.6488 H       1  UNL1        0.1498
     10 C           1.5284    2.9288   33.3929 C.3     1  UNL1        0.1278
     11 C           1.7212    3.8294   34.5768 C.ar    1  UNL1        0.0320
     12 C           2.4500    3.3294   35.7888 C.ar    1  UNL1        0.0004
     13 C           2.6428    4.2301   36.9727 C.ar    1  UNL1       -0.0001
     14 C           2.1068    5.6307   36.9447 C.ar    1  UNL1        0.0031
     15 C           1.3780    6.1307   35.7328 C.ar    1  UNL1        0.0366
     16 C           1.1852    5.2301   34.5488 C.ar    1  UNL1        0.1362
     17 O           0.4564    5.7302   33.3369 O.3     1  UNL1       -0.4730
     18 C           0.2636    4.8295   32.1530 C.3     1  UNL1        0.2364
     19 C           0.7996    3.4288   32.1810 C.3     1  UNL1        0.1762
     20 O           0.6068    2.5282   30.9971 O.3     1  UNL1       -0.3788
     21 H           0.1200    3.0031   30.3054 H       1  UNL1        0.2106
     22 C           4.5290   -0.7215   34.4198 C.3     1  UNL1        0.0355
     23 C           4.9901    0.1759   35.5297 C.ar    1  UNL1       -0.0217
     24 C           6.2532    0.9703   35.3763 C.ar    1  UNL1       -0.0043
     25 C           6.7143    1.8678   36.4863 C.ar    1  UNL1       -0.0003
     26 C           5.9123    1.9708   37.7497 C.ar    1  UNL1       -0.0000
     27 C           4.6492    1.1764   37.9031 C.ar    1  UNL1       -0.0003
     28 C           4.1881    0.2790   36.7932 C.ar    1  UNL1       -0.0043
     29 C           4.0453    0.5131   29.7140 C.3     1  UNL1        0.1021
     30 N           4.6955    0.0233   28.4541 N.3     1  UNL1       -0.2621
     31 C           6.0062   -0.7032   28.5200 C.3     1  UNL1        0.0901
     32 C           6.6564   -1.1930   27.2601 C.3     1  UNL1        0.0900
     33 N           5.9959   -0.9563   25.9343 N.3     1  UNL1       -0.2635
     34 C           4.6853   -0.2298   25.8684 C.3     1  UNL1        0.0980
     35 C           4.0351    0.2600   27.1283 C.3     1  UNL1        0.1510
     36 C           2.7244    0.9865   27.0624 C.2     1  UNL1        0.2386
     37 O           2.6918    2.4442   26.7105 O.2     1  UNL1       -0.2736
     38 N           1.4463    0.2552   27.3485 N.am    1  UNL1       -0.2961
     39 H           1.4677   -0.7016   27.5795 H       1  UNL1        0.1497
     40 C           0.1357    0.9816   27.2826 C.3     1  UNL1        0.1939
     41 C          -0.9889    0.5838   28.1921 C.3     1  UNL1        0.4154
     42 F          -2.1135    0.1860   29.1015 F       1  UNL1       -0.1682
     43 F          -0.2449   -0.6636   28.5665 F       1  UNL1       -0.1682
     44 F          -1.7330    1.8312   27.8176 F       1  UNL1       -0.1682
     45 C           6.6461   -1.4460   24.6744 C.3     1  UNL1        0.1377
     46 C           5.8028   -1.8189   23.4912 C.ar    1  UNL1        0.1390
     47 C           4.8112   -2.9430   23.4343 C.ar    1  UNL1        0.0375
     48 C           4.1986   -2.9519   22.0652 C.ar    1  UNL1        0.0404
     49 C           4.8116   -1.8333   21.2758 C.ar    1  UNL1        0.1464
     50 O           5.8030   -1.1331   22.1571 O.2     1  UNL1       -0.4563
     51 C           4.4896   -1.4774   19.8546 C.ar    1  UNL1        0.0537
     52 C           3.3691   -0.5263   19.5550 C.ar    1  UNL1        0.0062
     53 C           3.0471   -0.1705   18.1339 C.ar    1  UNL1        0.0208
     54 C           3.8457   -0.7657   17.0124 C.ar    1  UNL1        0.0989
     55 N           4.9663   -1.7169   17.3119 N.ar    1  UNL1       -0.2422
     56 C           5.2882   -2.0727   18.7330 C.ar    1  UNL1        0.1019
@<TRIPOS>BOND
     1     6     7    2
     2     7     8   am
     3    10     8    1
     4    10    11    1
     5    11    12   ar
     6    12    13   ar
     7    13    14   ar
     8    14    15   ar
     9    15    16   ar
    10    16    17    1
    11    17    18    1
    12    18    19    1
    13    19    20    1
    14     7     5    1
    15     5    22    1
    16    22    23    1
    17    23    24   ar
    18    24    25   ar
    19    25    26   ar
    20    26    27   ar
    21    27    28   ar
    22     5     4    1
    23     4     1    1
    24     1     2    1
    25     1    29    1
    26    29    30    1
    27    30    31    1
    28    31    32    1
    29    32    33    1
    30    33    45    1
    31    45    46    1
    32    46    47   ar
    33    47    48   ar
    34    48    49   ar
    35    49    51    1
    36    51    52   ar
    37    52    53   ar
    38    53    54   ar
    39    54    55   ar
    40    55    56   ar
    41    49    50   ar
    42    33    34    1
    43    34    35    1
    44    35    36    1
    45    36    37    2
    46    36    38   am
    47    38    40    1
    48    40    41    1
    49    41    42    1
    50    41    43    1
    51    41    44    1
    52    19    10    1
    53    28    23   ar
    54    35    30    1
    55    16    11   ar
    56    50    46   ar
    57    56    51   ar
    58     8     9    1
    59    20    21    1
    60     2     3    1
    61    38    39    1
@<TRIPOS>MOLECULE
*****
 56 61 0 0 0
SMALL
GASTEIGER

@<TRIPOS>ATOM
      1 C           4.1001   -1.0558   25.6898 C.3     1  UNL1        0.1269
      2 O           2.8232   -0.5213   25.1121 O.3     1  UNL1       -0.3830
      3 H           2.6403    0.3544   25.4871 H       1  UNL1        0.2104
      4 C           4.6075   -2.4033   25.2692 C.3     1  UNL1        0.0401
      5 C           5.7755   -2.5063   24.3338 C.3     1  UNL1        0.0833
      6 O           6.6816   -1.2559   22.2444 O.2     1  UNL1       -0.2751
      7 C           5.6256   -2.0966   22.8986 C.2     1  UNL1        0.2226
      8 N           4.4196   -2.5277   22.1177 N.am    1  UNL1       -0.2999
      9 H           3.7265   -3.0794   22.5471 H       1  UNL1        0.1498
     10 C           4.2696   -2.1180   20.6826 C.3     1  UNL1        0.1278
     11 C           3.1914   -1.1532   20.2868 C.ar    1  UNL1        0.0320
     12 C           2.2632   -0.5980   21.3261 C.ar    1  UNL1        0.0004
     13 C           1.1851    0.3668   20.9303 C.ar    1  UNL1       -0.0001
     14 C           1.0351    0.7764   19.4951 C.ar    1  UNL1        0.0031
     15 C           1.9633    0.2213   18.4558 C.ar    1  UNL1        0.0366
     16 C           3.0414   -0.7435   18.8516 C.ar    1  UNL1        0.1362
     17 O           3.9697   -1.2987   17.8122 O.3     1  UNL1       -0.4730
     18 C           5.0478   -2.2635   18.2081 C.3     1  UNL1        0.2364
     19 C           5.1978   -2.6731   19.6433 C.3     1  UNL1        0.1762
     20 O           6.2760   -3.6380   20.0391 O.3     1  UNL1       -0.3788
     21 H           6.7823   -3.8971   19.2534 H       1  UNL1        0.2106
     22 C           7.0936   -3.0191   24.8336 C.3     1  UNL1        0.0355
     23 C           7.2980   -4.4914   25.0349 C.ar    1  UNL1       -0.0217
     24 C           6.8862   -5.1363   26.3250 C.ar    1  UNL1       -0.0043
     25 C           7.0906   -6.6086   26.5263 C.ar    1  UNL1       -0.0003
     26 C           7.7069   -7.4360   25.4375 C.ar    1  UNL1       -0.0000
     27 C           8.1187   -6.7911   24.1473 C.ar    1  UNL1       -0.0003
     28 C           7.9143   -5.3188   23.9460 C.ar    1  UNL1       -0.0043
     29 C           4.8697   -0.2429   26.6883 C.3     1  UNL1        0.1021
     30 N           5.0058   -0.7246   28.1023 N.3     1  UNL1       -0.2621
     31 C           6.1854   -1.5621   28.4991 C.3     1  UNL1        0.0901
     32 C           6.3215   -2.0439   29.9131 C.3     1  UNL1        0.0900
     33 N           5.2781   -1.6881   30.9303 N.3     1  UNL1       -0.2635
     34 C           4.0986   -0.8507   30.5336 C.3     1  UNL1        0.0980
     35 C           3.9625   -0.3689   29.1196 C.3     1  UNL1        0.1510
     36 C           2.7830    0.4685   28.7228 C.2     1  UNL1        0.2386
     37 O           2.8279    1.9577   28.8970 O.2     1  UNL1       -0.2736
     38 N           1.5585   -0.1832   28.1519 N.am    1  UNL1       -0.2961
     39 H           1.5290   -1.1606   28.0376 H       1  UNL1        0.1497
     40 C           0.3790    0.6542   27.7552 C.3     1  UNL1        0.1939
     41 C          -0.9370    0.4745   28.4524 C.3     1  UNL1        0.4154
     42 F          -2.2529    0.2948   29.1495 F       1  UNL1       -0.1682
     43 F          -0.4112   -0.7577   29.1272 F       1  UNL1       -0.1682
     44 F          -1.4627    1.7066   27.7776 F       1  UNL1       -0.1682
     45 C           5.4142   -2.1699   32.3443 C.3     1  UNL1        0.1377
     46 C           5.4592   -1.1819   33.4722 C.ar    1  UNL1        0.1390
     47 C           6.6974   -0.5838   34.0715 C.ar    1  UNL1        0.0375
     48 C           6.2774    0.3491   35.1684 C.ar    1  UNL1        0.0404
     49 C           4.7796    0.3275   35.2471 C.ar    1  UNL1        0.1464
     50 O           4.2740   -0.6187   34.1988 O.2     1  UNL1       -0.4563
     51 C           3.9356    1.1141   36.2058 C.ar    1  UNL1        0.0537
     52 C           4.0920    0.9108   37.6837 C.ar    1  UNL1        0.0062
     53 C           3.2480    1.6974   38.6424 C.ar    1  UNL1        0.0208
     54 C           2.2478    2.6872   38.1231 C.ar    1  UNL1        0.0989
     55 N           2.0914    2.8905   36.6451 N.ar    1  UNL1       -0.2422
     56 C           2.9353    2.1039   35.6866 C.ar    1  UNL1        0.1019
@<TRIPOS>BOND
     1     6     7    2
     2     7     8   am
     3    10     8    1
     4    10    11    1
     5    11    12   ar
     6    12    13   ar
     7    13    14   ar
     8    14    15   ar
     9    15    16   ar
    10    16    17    1
    11    17    18    1
    12    18    19    1
    13    19    20    1
    14     7     5    1
    15     5    22    1
    16    22    23    1
    17    23    24   ar
    18    24    25   ar
    19    25    26   ar
    20    26    27   ar
    21    27    28   ar
    22     5     4    1
    23     4     1    1
    24     1     2    1
    25     1    29    1
    26    29    30    1
    27    30    31    1
    28    31    32    1
    29    32    33    1
    30    33    45    1
    31    45    46    1
    32    46    47   ar
    33    47    48   ar
    34    48    49   ar
    35    49    51    1
    36    51    52   ar
    37    52    53   ar
    38    53    54   ar
    39    54    55   ar
    40    55    56   ar
    41    49    50   ar
    42    33    34    1
    43    34    35    1
    44    35    36    1
    45    36    37    2
    46    36    38   am
    47    38    40    1
    48    40    41    1
    49    41    42    1
    50    41    43    1
    51    41    44    1
    52    19    10    1
    53    28    23   ar
    54    35    30    1
    55    16    11   ar
    56    50    46   ar
    57    56    51   ar
    58     8     9    1
    59    20    21    1
    60     2     3    1
    61    38    39    1
@<TRIPOS>MOLECULE
*****
 56 61 0 0 0
SMALL
GASTEIGER

@<TRIPOS>ATOM
      1 C           4.4925   -0.8519   26.3438 C.3     1  UNL1        0.1269
      2 O           5.0910    0.5214   26.2693 O.3     1  UNL1       -0.3830
      3 H           5.1712    0.8881   27.1637 H       1  UNL1        0.2104
      4 C           4.2625   -1.6390   25.0878 C.3     1  UNL1        0.0401
      5 C           5.4241   -2.0217   24.2193 C.3     1  UNL1        0.0833
      6 O           7.8876   -2.5170   24.8795 O.2     1  UNL1       -0.2751
      7 C           6.4653   -2.9707   24.7345 C.2     1  UNL1        0.2226
      8 N           6.0840   -4.3734   25.1047 N.am    1  UNL1       -0.2999
      9 H           5.1505   -4.6712   25.0095 H       1  UNL1        0.1498
     10 C           7.1251   -5.3224   25.6200 C.3     1  UNL1        0.1278
     11 C           7.2938   -5.5208   27.0972 C.ar    1  UNL1        0.0320
     12 C           6.4215   -4.7701   28.0592 C.ar    1  UNL1        0.0004
     13 C           6.5902   -4.9685   29.5364 C.ar    1  UNL1       -0.0001
     14 C           7.6313   -5.9175   30.0516 C.ar    1  UNL1        0.0031
     15 C           8.5036   -6.6681   29.0896 C.ar    1  UNL1        0.0366
     16 C           8.3349   -6.4697   27.6124 C.ar    1  UNL1        0.1362
     17 O           9.2074   -7.2204   26.6504 O.3     1  UNL1       -0.4730
     18 C           9.0387   -7.0220   25.1732 C.3     1  UNL1        0.2364
     19 C           7.9975   -6.0730   24.6580 C.3     1  UNL1        0.1762
     20 O           7.8288   -5.8746   23.1807 O.3     1  UNL1       -0.3788
     21 H           8.4660   -6.4301   22.7051 H       1  UNL1        0.2106
     22 C           5.5445   -1.4554   22.8355 C.3     1  UNL1        0.0355
     23 C           4.8211   -2.1054   21.6935 C.ar    1  UNL1       -0.0217
     24 C           3.7842   -1.3377   20.9283 C.ar    1  UNL1       -0.0043
     25 C           3.0607   -1.9878   19.7863 C.ar    1  UNL1       -0.0003
     26 C           3.3742   -3.4054   19.4096 C.ar    1  UNL1       -0.0000
     27 C           4.4111   -4.1731   20.1748 C.ar    1  UNL1       -0.0003
     28 C           5.1345   -3.5231   21.3167 C.ar    1  UNL1       -0.0043
     29 C           4.1237   -1.4383   27.6744 C.3     1  UNL1        0.1021
     30 N           4.7168   -0.8757   28.9321 N.3     1  UNL1       -0.2621
     31 C           6.1238   -1.2235   29.3187 C.3     1  UNL1        0.0901
     32 C           6.7169   -0.6610   30.5764 C.3     1  UNL1        0.0900
     33 N           5.9029    0.2494   31.4475 N.3     1  UNL1       -0.2635
     34 C           4.4959    0.5971   31.0609 C.3     1  UNL1        0.0980
     35 C           3.9029    0.0346   29.8032 C.3     1  UNL1        0.1510
     36 C           2.4960    0.3824   29.4166 C.2     1  UNL1        0.2386
     37 O           1.3441   -0.3467   30.0425 O.2     1  UNL1       -0.2736
     38 N           2.2408    1.4592   28.4039 N.am    1  UNL1       -0.2961
     39 H           2.9967    1.9377   27.9931 H       1  UNL1        0.1497
     40 C           0.8338    1.8070   28.0173 C.3     1  UNL1        0.1939
     41 C           0.2693    1.3136   26.7181 C.3     1  UNL1        0.4154
     42 F          -0.2953    0.8202   25.4190 F       1  UNL1       -0.1682
     43 F          -1.0454    1.0487   27.3900 F       1  UNL1       -0.1682
     44 F           1.5839    1.5784   26.0463 F       1  UNL1       -0.1682
     45 C           6.4959    0.8119   32.7052 C.3     1  UNL1        0.1377
     46 C           5.7815    0.6409   34.0131 C.ar    1  UNL1        0.1390
     47 C           5.9800   -0.4836   34.9857 C.ar    1  UNL1        0.0375
     48 C           5.0643   -0.2552   36.1516 C.ar    1  UNL1        0.0404
     49 C           4.2999    1.0106   35.8995 C.ar    1  UNL1        0.1464
     50 O           4.7431    1.5644   34.5778 O.2     1  UNL1       -0.4563
     51 C           3.2725    1.6163   36.8094 C.ar    1  UNL1        0.0537
     52 C           2.9547    0.9631   38.1218 C.ar    1  UNL1        0.0062
     53 C           1.9274    1.5687   39.0316 C.ar    1  UNL1        0.0208
     54 C           1.2180    2.8275   38.6291 C.ar    1  UNL1        0.0989
     55 N           1.5358    3.4808   37.3167 N.ar    1  UNL1       -0.2422
     56 C           2.5631    2.8751   36.4069 C.ar    1  UNL1        0.1019
@<TRIPOS>BOND
     1     6     7    2
     2     7     8   am
     3    10     8    1
     4    10    11    1
     5    11    12   ar
     6    12    13   ar
     7    13    14   ar
     8    14    15   ar
     9    15    16   ar
    10    16    17    1
    11    17    18    1
    12    18    19    1
    13    19    20    1
    14     7     5    1
    15     5    22    1
    16    22    23    1
    17    23    24   ar
    18    24    25   ar
    19    25    26   ar
    20    26    27   ar
    21    27    28   ar
    22     5     4    1
    23     4     1    1
    24     1     2    1
    25     1    29    1
    26    29    30    1
    27    30    31    1
    28    31    32    1
    29    32    33    1
    30    33    45    1
    31    45    46    1
    32    46    47   ar
    33    47    48   ar
    34    48    49   ar
    35    49    51    1
    36    51    52   ar
    37    52    53   ar
    38    53    54   ar
    39    54    55   ar
    40    55    56   ar
    41    49    50   ar
    42    33    34    1
    43    34    35    1
    44    35    36    1
    45    36    37    2
    46    36    38   am
    47    38    40    1
    48    40    41    1
    49    41    42    1
    50    41    43    1
    51    41    44    1
    52    19    10    1
    53    28    23   ar
    54    35    30    1
    55    16    11   ar
    56    50    46   ar
    57    56    51   ar
    58     8     9    1
    59    20    21    1
    60     2     3    1
    61    38    39    1
@<TRIPOS>MOLECULE
*****
 56 61 0 0 0
SMALL
GASTEIGER

@<TRIPOS>ATOM
      1 C           6.7540   -1.2005   27.3569 C.3     1  UNL1        0.1269
      2 O           5.4950   -1.9952   27.5389 O.3     1  UNL1       -0.3830
      3 H           5.5733   -2.8379   27.0650 H       1  UNL1        0.2104
      4 C           6.8869    0.1507   27.9947 C.3     1  UNL1        0.0401
      5 C           6.0182    0.5182   29.1610 C.3     1  UNL1        0.0833
      6 O           4.2872    2.4526   29.0523 O.2     1  UNL1       -0.2751
      7 C           4.6144    0.9939   28.9300 C.2     1  UNL1        0.2226
      8 N           3.5380    0.0108   28.5768 N.am    1  UNL1       -0.2999
      9 H           3.7527   -0.9466   28.4965 H       1  UNL1        0.1498
     10 C           2.1343    0.4865   28.3458 C.3     1  UNL1        0.1278
     11 C           1.6538    0.7564   26.9507 C.ar    1  UNL1        0.0320
     12 C           2.5770    0.5506   25.7866 C.ar    1  UNL1        0.0004
     13 C           2.0965    0.8205   24.3915 C.ar    1  UNL1       -0.0001
     14 C           0.6928    1.2961   24.1605 C.ar    1  UNL1        0.0031
     15 C          -0.2304    1.5019   25.3247 C.ar    1  UNL1        0.0366
     16 C           0.2501    1.2320   26.7198 C.ar    1  UNL1        0.1362
     17 O          -0.6732    1.4378   27.8840 O.3     1  UNL1       -0.4730
     18 C          -0.1927    1.1679   29.2791 C.3     1  UNL1        0.2364
     19 C           1.2111    0.6923   29.5100 C.3     1  UNL1        0.1762
     20 O           1.6915    0.4224   30.9051 O.3     1  UNL1       -0.3788
     21 H           0.9760    0.6041   31.5343 H       1  UNL1        0.2106
     22 C           6.5531    0.4100   30.5582 C.3     1  UNL1        0.0355
     23 C           5.8522   -0.4533   31.5648 C.ar    1  UNL1       -0.0217
     24 C           6.0880   -1.9346   31.5762 C.ar    1  UNL1       -0.0043
     25 C           5.3870   -2.7979   32.5829 C.ar    1  UNL1       -0.0003
     26 C           4.4504   -2.1799   33.5783 C.ar    1  UNL1       -0.0000
     27 C           4.2146   -0.6985   33.5669 C.ar    1  UNL1       -0.0003
     28 C           4.9155    0.1647   32.5602 C.ar    1  UNL1       -0.0043
     29 C           7.8803   -1.7568   26.5370 C.3     1  UNL1        0.1021
     30 N           7.6296   -2.2135   25.1304 N.3     1  UNL1       -0.2621
     31 C           7.6185   -1.2171   24.0091 C.3     1  UNL1        0.0901
     32 C           7.3678   -1.6737   22.6025 C.3     1  UNL1        0.0900
     33 N           7.1283   -3.1268   22.3171 N.3     1  UNL1       -0.2635
     34 C           7.1394   -4.1231   23.4383 C.3     1  UNL1        0.0980
     35 C           7.3901   -3.6664   24.8450 C.3     1  UNL1        0.1510
     36 C           7.4013   -4.6627   25.9662 C.2     1  UNL1        0.2386
     37 O           8.6140   -5.5136   26.2014 O.2     1  UNL1       -0.2736
     38 N           6.1996   -4.8082   26.8523 N.am    1  UNL1       -0.2961
     39 H           5.4037   -4.2498   26.6979 H       1  UNL1        0.1497
     40 C           6.2108   -5.8045   27.9735 C.3     1  UNL1        0.1939
     41 C           6.9696   -5.5078   29.2330 C.3     1  UNL1        0.4154
     42 F           7.7283   -5.2111   30.4925 F       1  UNL1       -0.1682
     43 F           6.2242   -4.2142   29.3773 F       1  UNL1       -0.1682
     44 F           7.7149   -6.8014   29.0887 F       1  UNL1       -0.1682
     45 C           6.8776   -3.5834   20.9105 C.3     1  UNL1        0.1377
     46 C           5.8073   -2.9281   20.0887 C.ar    1  UNL1        0.1390
     47 C           5.5837   -3.1196   18.6178 C.ar    1  UNL1        0.0375
     48 C           4.4111   -2.2762   18.2136 C.ar    1  UNL1        0.0404
     49 C           3.9099   -1.5634   19.4346 C.ar    1  UNL1        0.1464
     50 O           4.7729   -1.9663   20.5935 O.2     1  UNL1       -0.4563
     51 C           2.7496   -0.6143   19.4874 C.ar    1  UNL1        0.0537
     52 C           1.6525   -0.8260   20.4882 C.ar    1  UNL1        0.0062
     53 C           0.4921    0.1231   20.5411 C.ar    1  UNL1        0.0208
     54 C           0.4289    1.2839   19.5931 C.ar    1  UNL1        0.0989
     55 N           1.5260    1.4956   18.5923 N.ar    1  UNL1       -0.2422
     56 C           2.6863    0.5465   18.5395 C.ar    1  UNL1        0.1019
@<TRIPOS>BOND
     1     6     7    2
     2     7     8   am
     3    10     8    1
     4    10    11    1
     5    11    12   ar
     6    12    13   ar
     7    13    14   ar
     8    14    15   ar
     9    15    16   ar
    10    16    17    1
    11    17    18    1
    12    18    19    1
    13    19    20    1
    14     7     5    1
    15     5    22    1
    16    22    23    1
    17    23    24   ar
    18    24    25   ar
    19    25    26   ar
    20    26    27   ar
    21    27    28   ar
    22     5     4    1
    23     4     1    1
    24     1     2    1
    25     1    29    1
    26    29    30    1
    27    30    31    1
    28    31    32    1
    29    32    33    1
    30    33    45    1
    31    45    46    1
    32    46    47   ar
    33    47    48   ar
    34    48    49   ar
    35    49    51    1
    36    51    52   ar
    37    52    53   ar
    38    53    54   ar
    39    54    55   ar
    40    55    56   ar
    41    49    50   ar
    42    33    34    1
    43    34    35    1
    44    35    36    1
    45    36    37    2
    46    36    38   am
    47    38    40    1
    48    40    41    1
    49    41    42    1
    50    41    43    1
    51    41    44    1
    52    19    10    1
    53    28    23   ar
    54    35    30    1
    55    16    11   ar
    56    50    46   ar
    57    56    51   ar
    58     8     9    1
    59    20    21    1
    60     2     3    1
    61    38    39    1
@<TRIPOS>MOLECULE
*****
 56 61 0 0 0
SMALL
GASTEIGER

@<TRIPOS>ATOM
      1 C           3.2867   -0.3106   24.8742 C.3     1  UNL1        0.1269
      2 O           1.9495    0.3600   24.7640 O.3     1  UNL1       -0.3830
      3 H           1.9623    1.1909   25.2642 H       1  UNL1        0.2104
      4 C           3.5277   -1.6210   24.1851 C.3     1  UNL1        0.0401
      5 C           4.4862   -1.6978   23.0339 C.3     1  UNL1        0.0833
      6 O           4.6713   -4.0768   22.0062 O.2     1  UNL1       -0.2751
      7 C           5.2732   -2.9524   22.7957 C.2     1  UNL1        0.2226
      8 N           6.6622   -3.0825   23.3470 N.am    1  UNL1       -0.2999
      9 H           7.0572   -2.3445   23.8651 H       1  UNL1        0.1498
     10 C           7.4492   -4.3370   23.1088 C.3     1  UNL1        0.1278
     11 C           7.5249   -5.3888   24.1756 C.ar    1  UNL1        0.0320
     12 C           6.8137   -5.1861   25.4805 C.ar    1  UNL1        0.0004
     13 C           6.8895   -6.2378   26.5473 C.ar    1  UNL1       -0.0001
     14 C           7.6765   -7.4923   26.3092 C.ar    1  UNL1        0.0031
     15 C           8.3877   -7.6951   25.0042 C.ar    1  UNL1        0.0366
     16 C           8.3120   -6.6433   23.9374 C.ar    1  UNL1        0.1362
     17 O           9.0232   -6.8461   22.6324 O.3     1  UNL1       -0.4730
     18 C           8.9475   -5.7943   21.5656 C.3     1  UNL1        0.2364
     19 C           8.1604   -4.5398   21.8038 C.3     1  UNL1        0.1762
     20 O           8.0846   -3.4880   20.7370 O.3     1  UNL1       -0.3788
     21 H           8.5957   -3.7743   19.9639 H       1  UNL1        0.2106
     22 C           4.6578   -0.5201   22.1209 C.3     1  UNL1        0.0355
     23 C           3.6480   -0.2522   21.0446 C.ar    1  UNL1       -0.0217
     24 C           3.9878    0.6678   19.9096 C.ar    1  UNL1       -0.0043
     25 C           2.9779    0.9358   18.8333 C.ar    1  UNL1       -0.0003
     26 C           1.6283    0.2838   18.8920 C.ar    1  UNL1       -0.0000
     27 C           1.2885   -0.6362   20.0270 C.ar    1  UNL1       -0.0003
     28 C           2.2983   -0.9042   21.1032 C.ar    1  UNL1       -0.0043
     29 C           4.3830    0.3291   25.6736 C.3     1  UNL1        0.1021
     30 N           4.8473   -0.3047   26.9514 N.3     1  UNL1       -0.2621
     31 C           6.1356   -1.0725   26.9829 C.3     1  UNL1        0.0901
     32 C           6.5998   -1.7062   28.2607 C.3     1  UNL1        0.0900
     33 N           5.7759   -1.5722   29.5070 N.3     1  UNL1       -0.2635
     34 C           4.4877   -0.8044   29.4754 C.3     1  UNL1        0.0980
     35 C           4.0234   -0.1707   28.1976 C.3     1  UNL1        0.1510
     36 C           2.7352    0.5971   28.1661 C.2     1  UNL1        0.2386
     37 O           2.7375    2.0765   28.4137 O.2     1  UNL1       -0.2736
     38 N           1.4445   -0.1145   27.8869 N.am    1  UNL1       -0.2961
     39 H           1.4430   -1.0855   27.7244 H       1  UNL1        0.1497
     40 C           0.1563    0.6532   27.8553 C.3     1  UNL1        0.1939
     41 C          -0.8923    0.4020   28.8982 C.3     1  UNL1        0.4154
     42 F          -1.9408    0.1509   29.9410 F       1  UNL1       -0.1682
     43 F          -1.4120   -0.7547   28.0970 F       1  UNL1       -0.1682
     44 F          -0.3725    1.5587   29.6993 F       1  UNL1       -0.1682
     45 C           6.2402   -2.2059   30.7848 C.3     1  UNL1        0.1377
     46 C           5.6185   -1.8053   32.0898 C.ar    1  UNL1        0.1390
     47 C           4.5671   -2.5706   32.8374 C.ar    1  UNL1        0.0375
     48 C           4.2378   -1.8074   34.0859 C.ar    1  UNL1        0.0404
     49 C           5.0857   -0.5702   34.1100 C.ar    1  UNL1        0.1464
     50 O           5.9390   -0.5689   32.8764 O.2     1  UNL1       -0.4563
     51 C           5.0812    0.4811   35.1800 C.ar    1  UNL1        0.0537
     52 C           4.6416    0.1333   36.5713 C.ar    1  UNL1        0.0062
     53 C           4.6371    1.1846   37.6413 C.ar    1  UNL1        0.0208
     54 C           5.0720    2.5836   37.3198 C.ar    1  UNL1        0.0989
     55 N           5.5116    2.9315   35.9284 N.ar    1  UNL1       -0.2422
     56 C           5.5162    1.8802   34.8586 C.ar    1  UNL1        0.1019
@<TRIPOS>BOND
     1     6     7    2
     2     7     8   am
     3    10     8    1
     4    10    11    1
     5    11    12   ar
     6    12    13   ar
     7    13    14   ar
     8    14    15   ar
     9    15    16   ar
    10    16    17    1
    11    17    18    1
    12    18    19    1
    13    19    20    1
    14     7     5    1
    15     5    22    1
    16    22    23    1
    17    23    24   ar
    18    24    25   ar
    19    25    26   ar
    20    26    27   ar
    21    27    28   ar
    22     5     4    1
    23     4     1    1
    24     1     2    1
    25     1    29    1
    26    29    30    1
    27    30    31    1
    28    31    32    1
    29    32    33    1
    30    33    45    1
    31    45    46    1
    32    46    47   ar
    33    47    48   ar
    34    48    49   ar
    35    49    51    1
    36    51    52   ar
    37    52    53   ar
    38    53    54   ar
    39    54    55   ar
    40    55    56   ar
    41    49    50   ar
    42    33    34    1
    43    34    35    1
    44    35    36    1
    45    36    37    2
    46    36    38   am
    47    38    40    1
    48    40    41    1
    49    41    42    1
    50    41    43    1
    51    41    44    1
    52    19    10    1
    53    28    23   ar
    54    35    30    1
    55    16    11   ar
    56    50    46   ar
    57    56    51   ar
    58     8     9    1
    59    20    21    1
    60     2     3    1
    61    38    39    1
@<TRIPOS>MOLECULE
*****
 56 61 0 0 0
SMALL
GASTEIGER

@<TRIPOS>ATOM
      1 C           1.8796    2.6833   25.7530 C.3     1  UNL1        0.1269
      2 O           0.7785    3.6575   25.4557 O.3     1  UNL1       -0.3830
      3 H           0.8812    4.4425   26.0161 H       1  UNL1        0.2104
      4 C           1.9470    1.3793   25.0147 C.3     1  UNL1        0.0401
      5 C           2.5539    1.3241   23.6441 C.3     1  UNL1        0.0833
      6 O           5.0128    0.6777   23.1091 O.2     1  UNL1       -0.2751
      7 C           3.5819    0.2806   23.3205 C.2     1  UNL1        0.2226
      8 N           3.1788   -1.1598   23.2082 N.am    1  UNL1       -0.2999
      9 H           2.2396   -1.4204   23.3469 H       1  UNL1        0.1498
     10 C           4.2066   -2.2032   22.8846 C.3     1  UNL1        0.1278
     11 C           4.3894   -2.6622   21.4683 C.ar    1  UNL1        0.0320
     12 C           3.5442   -2.0777   20.3755 C.ar    1  UNL1        0.0004
     13 C           3.7270   -2.5366   18.9592 C.ar    1  UNL1       -0.0001
     14 C           4.7548   -3.5800   18.6356 C.ar    1  UNL1        0.0031
     15 C           5.6000   -4.1645   19.7283 C.ar    1  UNL1        0.0366
     16 C           5.4172   -3.7056   21.1447 C.ar    1  UNL1        0.1362
     17 O           6.2624   -4.2901   22.2374 O.3     1  UNL1       -0.4730
     18 C           6.0797   -3.8312   23.6538 C.3     1  UNL1        0.2364
     19 C           5.0517   -2.7877   23.9773 C.3     1  UNL1        0.1762
     20 O           4.8690   -2.3288   25.3936 O.3     1  UNL1       -0.3788
     21 H           5.4889   -2.8029   25.9697 H       1  UNL1        0.2106
     22 C           2.1329    2.3122   22.5970 C.3     1  UNL1        0.0355
     23 C           1.8507    1.8488   21.1986 C.ar    1  UNL1       -0.0217
     24 C           2.4721    2.5597   20.0331 C.ar    1  UNL1       -0.0043
     25 C           2.1898    2.0962   18.6347 C.ar    1  UNL1       -0.0003
     26 C           1.2863    0.9217   18.4018 C.ar    1  UNL1       -0.0000
     27 C           0.6649    0.2108   19.5673 C.ar    1  UNL1       -0.0003
     28 C           0.9471    0.6743   20.9657 C.ar    1  UNL1       -0.0043
     29 C           2.9133    3.0130   26.7888 C.3     1  UNL1        0.1021
     30 N           4.1319    2.1504   26.9333 N.3     1  UNL1       -0.2621
     31 C           5.3343    2.4005   26.0720 C.3     1  UNL1        0.0901
     32 C           6.5529    1.5379   26.2165 C.3     1  UNL1        0.0900
     33 N           6.5692    0.4252   27.2224 N.3     1  UNL1       -0.2635
     34 C           5.3668    0.1751   28.0836 C.3     1  UNL1        0.0980
     35 C           4.1482    1.0377   27.9391 C.3     1  UNL1        0.1510
     36 C           2.9459    0.7876   28.8004 C.2     1  UNL1        0.2386
     37 O           2.9218    1.2818   30.2164 O.2     1  UNL1       -0.2736
     38 N           1.7676    0.0433   28.2456 N.am    1  UNL1       -0.2961
     39 H           1.7834   -0.2810   27.3162 H       1  UNL1        0.1497
     40 C           0.5652   -0.2067   29.1069 C.3     1  UNL1        0.1939
     41 C          -0.7618    0.3836   28.7319 C.3     1  UNL1        0.4154
     42 F          -2.0888    0.9738   28.3570 F       1  UNL1       -0.1682
     43 F          -0.1034    1.7090   28.4880 F       1  UNL1       -0.1682
     44 F          -1.4203   -0.9419   28.9758 F       1  UNL1       -0.1682
     45 C           7.7878   -0.4374   27.3669 C.3     1  UNL1        0.1377
     46 C           7.6623   -1.8263   27.9196 C.ar    1  UNL1        0.1390
     47 C           7.2767   -2.1847   29.3242 C.ar    1  UNL1        0.0375
     48 C           7.2765   -3.6804   29.4374 C.ar    1  UNL1        0.0404
     49 C           7.6620   -4.2464   28.1028 C.ar    1  UNL1        0.1464
     50 O           7.9004   -3.1004   27.1648 O.2     1  UNL1       -0.4563
     51 C           7.7870   -5.7026   27.7655 C.ar    1  UNL1        0.0537
     52 C           7.1724   -6.2361   26.5055 C.ar    1  UNL1        0.0062
     53 C           7.2975   -7.6923   26.1682 C.ar    1  UNL1        0.0208
     54 C           8.0372   -8.6150   27.0909 C.ar    1  UNL1        0.0989
     55 N           8.6519   -8.0815   28.3509 N.ar    1  UNL1       -0.2422
     56 C           8.5267   -6.6254   28.6882 C.ar    1  UNL1        0.1019
@<TRIPOS>BOND
     1     6     7    2
     2     7     8   am
     3    10     8    1
     4    10    11    1
     5    11    12   ar
     6    12    13   ar
     7    13    14   ar
     8    14    15   ar
     9    15    16   ar
    10    16    17    1
    11    17    18    1
    12    18    19    1
    13    19    20    1
    14     7     5    1
    15     5    22    1
    16    22    23    1
    17    23    24   ar
    18    24    25   ar
    19    25    26   ar
    20    26    27   ar
    21    27    28   ar
    22     5     4    1
    23     4     1    1
    24     1     2    1
    25     1    29    1
    26    29    30    1
    27    30    31    1
    28    31    32    1
    29    32    33    1
    30    33    45    1
    31    45    46    1
    32    46    47   ar
    33    47    48   ar
    34    48    49   ar
    35    49    51    1
    36    51    52   ar
    37    52    53   ar
    38    53    54   ar
    39    54    55   ar
    40    55    56   ar
    41    49    50   ar
    42    33    34    1
    43    34    35    1
    44    35    36    1
    45    36    37    2
    46    36    38   am
    47    38    40    1
    48    40    41    1
    49    41    42    1
    50    41    43    1
    51    41    44    1
    52    19    10    1
    53    28    23   ar
    54    35    30    1
    55    16    11   ar
    56    50    46   ar
    57    56    51   ar
    58     8     9    1
    59    20    21    1
    60     2     3    1
    61    38    39    1
