@<TRIPOS>MOLECULE
*****
 37 40 0 0 0
SMALL
GASTEIGER

@<TRIPOS>ATOM
      1 C          -5.5597  -18.2904   22.4943 C.ar    1  UNL1        0.2144
      2 C          -5.0539  -17.0653   23.1966 C.ar    1  UNL1        0.1822
      3 O          -3.7377  -16.4641   22.8015 O.2     1  UNL1       -0.4500
      4 C          -2.9273  -17.0879   21.7041 C.ar    1  UNL1        0.1545
      5 C          -1.6111  -16.4866   21.3091 C.ar    1  UNL1        0.0744
      6 C          -0.8008  -17.1105   20.2117 C.ar    1  UNL1        0.1397
      7 O           0.5154  -16.5092   19.8166 O.3     1  UNL1       -0.5053
      8 C          -1.3067  -18.3356   19.5095 C.ar    1  UNL1        0.0735
      9 C          -2.6229  -18.9369   19.9045 C.ar    1  UNL1        0.1428
     10 O          -3.1288  -20.1620   19.2023 O.3     1  UNL1       -0.5052
     11 C          -3.4332  -18.3130   21.0019 C.ar    1  UNL1        0.1104
     12 C          -4.7494  -18.9143   21.3970 C.ar    1  UNL1        0.2382
     13 O          -5.2553  -20.1394   20.6947 O.2     1  UNL1       -0.2830
     14 H           0.8314  -15.7439   20.2553 H       1  UNL1        0.2922
     15 H          -2.6226  -20.5517   18.5168 H       1  UNL1        0.2922
     16 C          -5.8642  -16.4415   24.2940 C.ar    1  UNL1        0.0379
     17 C          -5.3422  -16.4336   25.7002 C.ar    1  UNL1        0.0062
     18 C          -6.1526  -15.8097   26.7974 C.ar    1  UNL1        0.0367
     19 C          -7.4850  -15.1938   26.4886 C.ar    1  UNL1        0.1337
     20 O          -8.2954  -14.5700   27.5860 O.3     1  UNL1       -0.5055
     21 C          -8.0070  -15.2018   25.0824 C.ar    1  UNL1        0.0367
     22 C          -7.1966  -15.8256   23.9851 C.ar    1  UNL1        0.0062
     23 H          -7.9692  -14.5650   28.4644 H       1  UNL1        0.2922
     24 O          -6.8760  -18.8917   22.8894 O.3     1  UNL1       -0.4441
     25 C         -11.1380  -15.9637   22.3775 C.3     1  UNL1        0.0349
     26 C         -10.2526  -17.0674   21.8795 C.3     1  UNL1        0.1482
     27 O          -9.0070  -17.4277   22.6335 O.3     1  UNL1       -0.3186
     28 C          -8.1216  -18.5314   22.1354 C.3     1  UNL1        0.3181
     29 C          -8.4819  -19.2747   20.8834 C.3     1  UNL1        0.2105
     30 O          -7.5965  -20.3784   20.3854 O.3     1  UNL1       -0.3766
     31 C          -9.7275  -18.9144   20.1294 C.3     1  UNL1        0.1727
     32 O         -10.0878  -19.6577   18.8774 O.3     1  UNL1       -0.3793
     33 C         -10.6129  -17.8108   20.6274 C.3     1  UNL1        0.1669
     34 O         -11.8586  -17.4504   19.8734 O.3     1  UNL1       -0.3795
     35 H          -6.8404  -20.4814   20.9842 H       1  UNL1        0.2107
     36 H         -10.9156  -19.3026   18.5174 H       1  UNL1        0.2105
     37 H         -12.3119  -16.7226   20.3269 H       1  UNL1        0.2105
@<TRIPOS>BOND
     1    26    25    1
     2    26    27    1
     3    27    28    1
     4    28    24    1
     5    24     1    1
     6     1     2   ar
     7     2    16    1
     8    16    17   ar
     9    17    18   ar
    10    18    19   ar
    11    19    20    1
    12    19    21   ar
    13    21    22   ar
    14     2     3   ar
    15     3     4   ar
    16     4     5   ar
    17     5     6   ar
    18     6     7    1
    19     6     8   ar
    20     8     9   ar
    21     9    10    1
    22     9    11   ar
    23    11    12   ar
    24    12    13    2
    25    28    29    1
    26    29    30    1
    27    29    31    1
    28    31    32    1
    29    31    33    1
    30    33    34    1
    31    33    26    1
    32    12     1   ar
    33    22    16   ar
    34    11     4   ar
    35    20    23    1
    36     7    14    1
    37    10    15    1
    38    30    35    1
    39    32    36    1
    40    34    37    1
@<TRIPOS>MOLECULE
*****
 37 40 0 0 0
SMALL
GASTEIGER

@<TRIPOS>ATOM
      1 C          -5.5258  -18.3344   22.6496 C.ar    1  UNL1        0.2144
      2 C          -5.0296  -17.0736   23.2931 C.ar    1  UNL1        0.1822
      3 O          -3.7311  -16.4666   22.8508 O.2     1  UNL1       -0.4500
      4 C          -2.9288  -17.1205   21.7650 C.ar    1  UNL1        0.1545
      5 C          -1.6304  -16.5135   21.3228 C.ar    1  UNL1        0.0744
      6 C          -0.8282  -17.1673   20.2371 C.ar    1  UNL1        0.1397
      7 O           0.4703  -16.5604   19.7948 O.3     1  UNL1       -0.5053
      8 C          -1.3244  -18.4282   19.5936 C.ar    1  UNL1        0.0735
      9 C          -2.6228  -19.0351   20.0358 C.ar    1  UNL1        0.1428
     10 O          -3.1190  -20.2960   19.3923 O.3     1  UNL1       -0.5052
     11 C          -3.4250  -18.3813   21.1215 C.ar    1  UNL1        0.1104
     12 C          -4.7235  -18.9883   21.5638 C.ar    1  UNL1        0.2382
     13 O          -5.2197  -20.2491   20.9203 O.2     1  UNL1       -0.2830
     14 H           0.7803  -15.7728   20.1967 H       1  UNL1        0.2922
     15 H          -2.6179  -20.7044   18.7141 H       1  UNL1        0.2922
     16 C          -5.8318  -16.4197   24.3789 C.ar    1  UNL1        0.0379
     17 C          -5.3008  -16.3758   25.7810 C.ar    1  UNL1        0.0062
     18 C          -6.1031  -15.7220   26.8667 C.ar    1  UNL1        0.0367
     19 C          -7.4364  -15.1121   26.5503 C.ar    1  UNL1        0.1337
     20 O          -8.2387  -14.4582   27.6361 O.3     1  UNL1       -0.5055
     21 C          -7.9675  -15.1560   25.1482 C.ar    1  UNL1        0.0367
     22 C          -7.1652  -15.8098   24.0625 C.ar    1  UNL1        0.0062
     23 H          -7.9070  -14.4308   28.5119 H       1  UNL1        0.2922
     24 O          -6.8243  -18.9414   23.0919 O.3     1  UNL1       -0.4441
     25 C          -8.9757  -19.6469   18.4150 C.3     1  UNL1        0.0349
     26 C          -9.0986  -19.2393   19.8532 C.3     1  UNL1        0.1482
     27 O          -7.9000  -19.2942   20.7534 O.3     1  UNL1       -0.3186
     28 C          -8.0229  -18.8865   22.1917 C.3     1  UNL1        0.3181
     29 C          -9.3444  -18.4240   22.7299 C.3     1  UNL1        0.2105
     30 O          -9.4673  -18.0164   24.1681 O.3     1  UNL1       -0.3766
     31 C         -10.5431  -18.3691   21.8297 C.3     1  UNL1        0.1727
     32 O         -11.8646  -17.9066   22.3679 O.3     1  UNL1       -0.3793
     33 C         -10.4202  -18.7767   20.3914 C.3     1  UNL1        0.1669
     34 O         -11.6188  -18.7218   19.4913 O.3     1  UNL1       -0.3795
     35 H          -8.6067  -18.1106   24.6056 H       1  UNL1        0.2107
     36 H         -12.5281  -17.9311   21.6607 H       1  UNL1        0.2105
     37 H         -11.3687  -19.0163   18.6016 H       1  UNL1        0.2105
@<TRIPOS>BOND
     1    26    25    1
     2    26    27    1
     3    27    28    1
     4    28    24    1
     5    24     1    1
     6     1     2   ar
     7     2    16    1
     8    16    17   ar
     9    17    18   ar
    10    18    19   ar
    11    19    20    1
    12    19    21   ar
    13    21    22   ar
    14     2     3   ar
    15     3     4   ar
    16     4     5   ar
    17     5     6   ar
    18     6     7    1
    19     6     8   ar
    20     8     9   ar
    21     9    10    1
    22     9    11   ar
    23    11    12   ar
    24    12    13    2
    25    28    29    1
    26    29    30    1
    27    29    31    1
    28    31    32    1
    29    31    33    1
    30    33    34    1
    31    33    26    1
    32    12     1   ar
    33    22    16   ar
    34    11     4   ar
    35    20    23    1
    36     7    14    1
    37    10    15    1
    38    30    35    1
    39    32    36    1
    40    34    37    1
@<TRIPOS>MOLECULE
*****
 37 40 0 0 0
SMALL
GASTEIGER

@<TRIPOS>ATOM
      1 C           7.1294   -2.9633   23.4629 C.ar    1  UNL1        0.2144
      2 C           6.3270   -2.8173   24.7219 C.ar    1  UNL1        0.1822
      3 O           6.2447   -3.9558   25.6950 O.2     1  UNL1       -0.4500
      4 C           6.9649   -5.2403   25.4093 C.ar    1  UNL1        0.1545
      5 C           6.8826   -6.3788   26.3824 C.ar    1  UNL1        0.0744
      6 C           7.6027   -7.6632   26.0966 C.ar    1  UNL1        0.1397
      7 O           7.5204   -8.8017   27.0698 O.3     1  UNL1       -0.5053
      8 C           8.4051   -7.8091   24.8377 C.ar    1  UNL1        0.0735
      9 C           8.4873   -6.6706   23.8645 C.ar    1  UNL1        0.1428
     10 O           9.2897   -6.8166   22.6056 O.3     1  UNL1       -0.5052
     11 C           7.7672   -5.3862   24.1503 C.ar    1  UNL1        0.1104
     12 C           7.8495   -4.2477   23.1772 C.ar    1  UNL1        0.2382
     13 O           8.6518   -4.3936   21.9182 O.2     1  UNL1       -0.2830
     14 H           7.0192   -8.7106   27.8562 H       1  UNL1        0.2922
     15 H           9.7395   -7.6189   22.4271 H       1  UNL1        0.2922
     16 C           5.6069   -1.5328   25.0076 C.ar    1  UNL1        0.0379
     17 C           6.3474   -0.3758   25.6100 C.ar    1  UNL1        0.0062
     18 C           5.6273    0.9086   25.8957 C.ar    1  UNL1        0.0367
     19 C           4.1667    1.0360   25.5791 C.ar    1  UNL1        0.1337
     20 O           3.4465    2.3205   25.8648 O.3     1  UNL1       -0.5055
     21 C           3.4261   -0.1211   24.9767 C.ar    1  UNL1        0.0367
     22 C           4.1462   -1.4055   24.6910 C.ar    1  UNL1        0.0062
     23 H           3.9091    3.0432   26.2411 H       1  UNL1        0.2922
     24 O           7.2116   -1.8247   22.4898 O.3     1  UNL1       -0.4441
     25 C           2.6063   -1.5212   20.1024 C.3     1  UNL1        0.0349
     26 C           4.0939   -1.7021   20.0372 C.3     1  UNL1        0.1482
     27 O           4.9089   -1.6730   21.2961 O.3     1  UNL1       -0.3186
     28 C           6.3966   -1.8538   21.2308 C.3     1  UNL1        0.3181
     29 C           7.0692   -2.0638   19.9066 C.3     1  UNL1        0.2105
     30 O           8.5568   -2.2446   19.8414 O.3     1  UNL1       -0.3766
     31 C           6.2542   -2.0929   18.6477 C.3     1  UNL1        0.1727
     32 O           6.9268   -2.3028   17.3235 O.3     1  UNL1       -0.3793
     33 C           4.7666   -1.9120   18.7130 C.3     1  UNL1        0.1669
     34 O           3.9516   -1.9411   17.4540 O.3     1  UNL1       -0.3795
     35 H           8.9276   -2.1994   20.7366 H       1  UNL1        0.2107
     36 H           6.2612   -2.2947   16.6179 H       1  UNL1        0.2105
     37 H           3.0155   -1.8098   17.6718 H       1  UNL1        0.2105
@<TRIPOS>BOND
     1    26    25    1
     2    26    27    1
     3    27    28    1
     4    28    24    1
     5    24     1    1
     6     1     2   ar
     7     2    16    1
     8    16    17   ar
     9    17    18   ar
    10    18    19   ar
    11    19    20    1
    12    19    21   ar
    13    21    22   ar
    14     2     3   ar
    15     3     4   ar
    16     4     5   ar
    17     5     6   ar
    18     6     7    1
    19     6     8   ar
    20     8     9   ar
    21     9    10    1
    22     9    11   ar
    23    11    12   ar
    24    12    13    2
    25    28    29    1
    26    29    30    1
    27    29    31    1
    28    31    32    1
    29    31    33    1
    30    33    34    1
    31    33    26    1
    32    12     1   ar
    33    22    16   ar
    34    11     4   ar
    35    20    23    1
    36     7    14    1
    37    10    15    1
    38    30    35    1
    39    32    36    1
    40    34    37    1
@<TRIPOS>MOLECULE
*****
 37 40 0 0 0
SMALL
GASTEIGER

@<TRIPOS>ATOM
      1 C           5.5966   -1.6676   29.9056 C.ar    1  UNL1        0.2144
      2 C           5.9600   -2.4299   31.1452 C.ar    1  UNL1        0.1822
      3 O           6.5194   -3.8174   31.0356 O.2     1  UNL1       -0.4500
      4 C           6.7154   -4.4426   29.6862 C.ar    1  UNL1        0.1545
      5 C           7.2748   -5.8300   29.5766 C.ar    1  UNL1        0.0744
      6 C           7.4709   -6.4551   28.2273 C.ar    1  UNL1        0.1397
      7 O           8.0303   -7.8426   28.1176 O.3     1  UNL1       -0.5053
      8 C           7.1075   -5.6928   26.9876 C.ar    1  UNL1        0.0735
      9 C           6.5481   -4.3054   27.0972 C.ar    1  UNL1        0.1428
     10 O           6.1848   -3.5430   25.8575 O.3     1  UNL1       -0.5052
     11 C           6.3521   -3.6802   28.4465 C.ar    1  UNL1        0.1104
     12 C           5.7927   -2.2927   28.5562 C.ar    1  UNL1        0.2382
     13 O           5.4293   -1.5304   27.3165 O.2     1  UNL1       -0.2830
     14 H           8.2573   -8.3188   28.8920 H       1  UNL1        0.2922
     15 H           6.3072   -3.9336   25.0146 H       1  UNL1        0.2922
     16 C           5.7639   -1.8047   32.4946 C.ar    1  UNL1        0.0379
     17 C           4.5124   -2.0801   33.2741 C.ar    1  UNL1        0.0062
     18 C           4.3163   -1.4550   34.6234 C.ar    1  UNL1        0.0367
     19 C           5.3719   -0.5544   35.1933 C.ar    1  UNL1        0.1337
     20 O           5.1759    0.0708   36.5426 O.3     1  UNL1       -0.5055
     21 C           6.6235   -0.2790   34.4138 C.ar    1  UNL1        0.0367
     22 C           6.8195   -0.9041   33.0645 C.ar    1  UNL1        0.0062
     23 H           4.3940   -0.1012   37.0296 H       1  UNL1        0.2922
     24 O           5.0372   -0.2801   30.0152 O.3     1  UNL1       -0.4441
     25 C           2.6380    2.2051   26.1335 C.3     1  UNL1        0.0349
     26 C           2.5774    1.3229   27.3451 C.3     1  UNL1        0.1482
     27 O           3.8377    0.9625   28.0744 O.3     1  UNL1       -0.3186
     28 C           3.7769    0.0802   29.2860 C.3     1  UNL1        0.3181
     29 C           2.4560   -0.4417   29.7682 C.3     1  UNL1        0.2105
     30 O           2.3953   -1.3240   30.9798 O.3     1  UNL1       -0.3766
     31 C           1.1957   -0.0814   29.0389 C.3     1  UNL1        0.1727
     32 O          -0.1253   -0.6033   29.5212 O.3     1  UNL1       -0.3793
     33 C           1.2564    0.8009   27.8274 C.3     1  UNL1        0.1669
     34 O          -0.0039    1.1612   27.0981 O.3     1  UNL1       -0.3795
     35 H           3.2908   -1.4572   31.3279 H       1  UNL1        0.2107
     36 H          -0.8323   -0.2784   28.9420 H       1  UNL1        0.2105
     37 H           0.2108    1.7332   26.3447 H       1  UNL1        0.2105
@<TRIPOS>BOND
     1    26    25    1
     2    26    27    1
     3    27    28    1
     4    28    24    1
     5    24     1    1
     6     1     2   ar
     7     2    16    1
     8    16    17   ar
     9    17    18   ar
    10    18    19   ar
    11    19    20    1
    12    19    21   ar
    13    21    22   ar
    14     2     3   ar
    15     3     4   ar
    16     4     5   ar
    17     5     6   ar
    18     6     7    1
    19     6     8   ar
    20     8     9   ar
    21     9    10    1
    22     9    11   ar
    23    11    12   ar
    24    12    13    2
    25    28    29    1
    26    29    30    1
    27    29    31    1
    28    31    32    1
    29    31    33    1
    30    33    34    1
    31    33    26    1
    32    12     1   ar
    33    22    16   ar
    34    11     4   ar
    35    20    23    1
    36     7    14    1
    37    10    15    1
    38    30    35    1
    39    32    36    1
    40    34    37    1
@<TRIPOS>MOLECULE
*****
 37 40 0 0 0
SMALL
GASTEIGER

@<TRIPOS>ATOM
      1 C          -7.2006  -18.0738   22.9100 C.ar    1  UNL1        0.2144
      2 C          -6.2340  -17.2405   23.6982 C.ar    1  UNL1        0.1822
      3 O          -4.7786  -17.2353   23.3352 O.2     1  UNL1       -0.4500
      4 C          -4.2898  -18.0635   22.1839 C.ar    1  UNL1        0.1545
      5 C          -2.8344  -18.0583   21.8209 C.ar    1  UNL1        0.0744
      6 C          -2.3457  -18.8865   20.6697 C.ar    1  UNL1        0.1397
      7 O          -0.8903  -18.8813   20.3066 O.3     1  UNL1       -0.5053
      8 C          -3.3124  -19.7197   19.8815 C.ar    1  UNL1        0.0735
      9 C          -4.7678  -19.7249   20.2445 C.ar    1  UNL1        0.1428
     10 O          -5.7344  -20.5581   19.4563 O.3     1  UNL1       -0.5052
     11 C          -5.2565  -18.8968   21.3957 C.ar    1  UNL1        0.1104
     12 C          -6.7119  -18.9019   21.7588 C.ar    1  UNL1        0.2382
     13 O          -7.6786  -19.7351   20.9706 O.2     1  UNL1       -0.2830
     14 H          -0.2864  -18.3608   20.7989 H       1  UNL1        0.2922
     15 H          -5.4291  -21.0754   18.7372 H       1  UNL1        0.2922
     16 C          -6.7227  -16.4124   24.8495 C.ar    1  UNL1        0.0379
     17 C          -5.7408  -15.8092   25.8097 C.ar    1  UNL1        0.0062
     18 C          -6.2296  -14.9811   26.9609 C.ar    1  UNL1        0.0367
     19 C          -7.7003  -14.7562   27.1519 C.ar    1  UNL1        0.1337
     20 O          -8.1891  -13.9280   28.3031 O.3     1  UNL1       -0.5055
     21 C          -8.6822  -15.3594   26.1917 C.ar    1  UNL1        0.0367
     22 C          -8.1934  -16.1874   25.0405 C.ar    1  UNL1        0.0062
     23 H          -7.5757  -13.5513   28.9030 H       1  UNL1        0.2922
     24 O          -8.6561  -18.0789   23.2731 O.3     1  UNL1       -0.4441
     25 C          -9.9011  -14.5046   19.7130 C.3     1  UNL1        0.0349
     26 C         -10.2849  -15.6772   20.5659 C.3     1  UNL1        0.1482
     27 O          -9.2785  -16.2917   21.4930 O.3     1  UNL1       -0.3186
     28 C          -9.6625  -17.4644   22.3460 C.3     1  UNL1        0.3181
     29 C         -11.0527  -18.0226   22.2718 C.3     1  UNL1        0.2105
     30 O         -11.4366  -19.1952   23.1247 O.3     1  UNL1       -0.3766
     31 C         -12.0591  -17.4081   21.3446 C.3     1  UNL1        0.1727
     32 O         -13.4494  -17.9663   21.2704 O.3     1  UNL1       -0.3793
     33 C         -11.6753  -16.2355   20.4917 C.3     1  UNL1        0.1669
     34 O         -12.6817  -15.6210   19.5646 O.3     1  UNL1       -0.3795
     35 H         -10.6757  -19.4678   23.6610 H       1  UNL1        0.2107
     36 H         -13.9682  -17.4575   20.6279 H       1  UNL1        0.2105
     37 H         -12.2741  -14.8793   19.0906 H       1  UNL1        0.2105
@<TRIPOS>BOND
     1    26    25    1
     2    26    27    1
     3    27    28    1
     4    28    24    1
     5    24     1    1
     6     1     2   ar
     7     2    16    1
     8    16    17   ar
     9    17    18   ar
    10    18    19   ar
    11    19    20    1
    12    19    21   ar
    13    21    22   ar
    14     2     3   ar
    15     3     4   ar
    16     4     5   ar
    17     5     6   ar
    18     6     7    1
    19     6     8   ar
    20     8     9   ar
    21     9    10    1
    22     9    11   ar
    23    11    12   ar
    24    12    13    2
    25    28    29    1
    26    29    30    1
    27    29    31    1
    28    31    32    1
    29    31    33    1
    30    33    34    1
    31    33    26    1
    32    12     1   ar
    33    22    16   ar
    34    11     4   ar
    35    20    23    1
    36     7    14    1
    37    10    15    1
    38    30    35    1
    39    32    36    1
    40    34    37    1
@<TRIPOS>MOLECULE
*****
 37 40 0 0 0
SMALL
GASTEIGER

@<TRIPOS>ATOM
      1 C           6.0235   -1.2283   30.1043 C.ar    1  UNL1        0.2144
      2 C           6.1204   -2.1388   31.2924 C.ar    1  UNL1        0.1822
      3 O           6.4395   -3.5918   31.0997 O.2     1  UNL1       -0.4500
      4 C           6.6616   -4.1342   29.7189 C.ar    1  UNL1        0.1545
      5 C           6.9807   -5.5871   29.5262 C.ar    1  UNL1        0.0744
      6 C           7.2028   -6.1294   28.1455 C.ar    1  UNL1        0.1397
      7 O           7.5219   -7.5824   27.9527 O.3     1  UNL1       -0.5053
      8 C           7.1059   -5.2189   26.9574 C.ar    1  UNL1        0.0735
      9 C           6.7868   -3.7660   27.1501 C.ar    1  UNL1        0.1428
     10 O           6.6899   -2.8554   25.9621 O.3     1  UNL1       -0.5052
     11 C           6.5647   -3.2236   28.5308 C.ar    1  UNL1        0.1104
     12 C           6.2456   -1.7706   28.7236 C.ar    1  UNL1        0.2382
     13 O           6.1487   -0.8600   27.5355 O.2     1  UNL1       -0.2830
     14 H           7.5824   -8.1513   28.6948 H       1  UNL1        0.2922
     15 H           6.8287   -3.1942   25.0995 H       1  UNL1        0.2922
     16 C           5.8982   -1.5964   32.6731 C.ar    1  UNL1        0.0379
     17 C           6.9556   -0.7587   33.3290 C.ar    1  UNL1        0.0062
     18 C           6.7334   -0.2164   34.7097 C.ar    1  UNL1        0.0367
     19 C           5.4539   -0.5117   35.4346 C.ar    1  UNL1        0.1337
     20 O           5.2317    0.0307   36.8154 O.3     1  UNL1       -0.5055
     21 C           4.3965   -1.3494   34.7787 C.ar    1  UNL1        0.0367
     22 C           4.6187   -1.8917   33.3980 C.ar    1  UNL1        0.0062
     23 H           5.8922    0.5540   37.2250 H       1  UNL1        0.2922
     24 O           5.7044    0.2247   30.2971 O.3     1  UNL1       -0.4441
     25 C           2.4385    2.0452   33.9054 C.3     1  UNL1        0.0349
     26 C           2.6901    1.5515   32.5115 C.3     1  UNL1        0.1482
     27 O           4.0715    1.1350   32.1013 O.3     1  UNL1       -0.3186
     28 C           4.3230    0.6412   30.7073 C.3     1  UNL1        0.3181
     29 C           3.1932    0.5640   29.7237 C.3     1  UNL1        0.2105
     30 O           3.4448    0.0702   28.3299 O.3     1  UNL1       -0.3766
     31 C           1.8118    0.9804   30.1340 C.3     1  UNL1        0.1727
     32 O           0.6820    0.9032   29.1504 O.3     1  UNL1       -0.3793
     33 C           1.5603    1.4742   31.5279 C.3     1  UNL1        0.1669
     34 O           0.1789    1.8907   31.9381 O.3     1  UNL1       -0.3795
     35 H           4.3829   -0.1556   28.2313 H       1  UNL1        0.2107
     36 H          -0.1363    1.2069   29.5735 H       1  UNL1        0.2105
     37 H           0.1903    2.1815   32.8634 H       1  UNL1        0.2105
@<TRIPOS>BOND
     1    26    25    1
     2    26    27    1
     3    27    28    1
     4    28    24    1
     5    24     1    1
     6     1     2   ar
     7     2    16    1
     8    16    17   ar
     9    17    18   ar
    10    18    19   ar
    11    19    20    1
    12    19    21   ar
    13    21    22   ar
    14     2     3   ar
    15     3     4   ar
    16     4     5   ar
    17     5     6   ar
    18     6     7    1
    19     6     8   ar
    20     8     9   ar
    21     9    10    1
    22     9    11   ar
    23    11    12   ar
    24    12    13    2
    25    28    29    1
    26    29    30    1
    27    29    31    1
    28    31    32    1
    29    31    33    1
    30    33    34    1
    31    33    26    1
    32    12     1   ar
    33    22    16   ar
    34    11     4   ar
    35    20    23    1
    36     7    14    1
    37    10    15    1
    38    30    35    1
    39    32    36    1
    40    34    37    1
@<TRIPOS>MOLECULE
*****
 37 40 0 0 0
SMALL
GASTEIGER

@<TRIPOS>ATOM
      1 C           4.1579    1.6130   33.6348 C.ar    1  UNL1        0.2144
      2 C           4.6225    0.4538   34.4657 C.ar    1  UNL1        0.1822
      3 O           4.2594    0.3796   35.9192 O.2     1  UNL1       -0.4500
      4 C           3.4317    1.4647   36.5418 C.ar    1  UNL1        0.1545
      5 C           3.0686    1.3905   37.9953 C.ar    1  UNL1        0.0744
      6 C           2.2409    2.4755   38.6178 C.ar    1  UNL1        0.1397
      7 O           1.8777    2.4014   40.0713 O.3     1  UNL1       -0.5053
      8 C           1.7763    3.6347   37.7869 C.ar    1  UNL1        0.0735
      9 C           2.1394    3.7089   36.3334 C.ar    1  UNL1        0.1428
     10 O           1.6748    4.8681   35.5025 O.3     1  UNL1       -0.5052
     11 C           2.9671    2.6239   35.7109 C.ar    1  UNL1        0.1104
     12 C           3.3302    2.6980   34.2573 C.ar    1  UNL1        0.2382
     13 O           2.8656    3.8572   33.4264 O.2     1  UNL1       -0.2830
     14 H           2.1679    1.6773   40.5904 H       1  UNL1        0.2922
     15 H           1.1577    5.5459   35.8914 H       1  UNL1        0.2922
     16 C           5.4503   -0.6312   33.8431 C.ar    1  UNL1        0.0379
     17 C           6.9314   -0.4504   33.6902 C.ar    1  UNL1        0.0062
     18 C           7.7591   -1.5355   33.0676 C.ar    1  UNL1        0.0367
     19 C           7.1056   -2.8013   32.5979 C.ar    1  UNL1        0.1337
     20 O           7.9333   -3.8863   31.9753 O.3     1  UNL1       -0.5055
     21 C           5.6244   -2.9820   32.7507 C.ar    1  UNL1        0.0367
     22 C           4.7967   -1.8970   33.3733 C.ar    1  UNL1        0.0062
     23 H           8.8586   -3.7734   31.8798 H       1  UNL1        0.2922
     24 O           4.5211    1.6872   32.1812 O.3     1  UNL1       -0.4441
     25 C          -0.1850    1.6028   29.9799 C.3     1  UNL1        0.0349
     26 C           1.2282    1.1041   30.0442 C.3     1  UNL1        0.1482
     27 O           2.1680    1.6450   31.0806 O.3     1  UNL1       -0.3186
     28 C           3.5812    1.1462   31.1449 C.3     1  UNL1        0.3181
     29 C           4.0546    0.1066   30.1728 C.3     1  UNL1        0.2105
     30 O           5.4677   -0.3922   30.2371 O.3     1  UNL1       -0.3766
     31 C           3.1147   -0.4344   29.1364 C.3     1  UNL1        0.1727
     32 O           3.5880   -1.4740   28.1643 O.3     1  UNL1       -0.3793
     33 C           1.7015    0.0644   29.0721 C.3     1  UNL1        0.1669
     34 O           0.7617   -0.4766   28.0357 O.3     1  UNL1       -0.3795
     35 H           5.9365    0.0567   30.9579 H       1  UNL1        0.2107
     36 H           2.8618   -1.7130   27.5673 H       1  UNL1        0.2105
     37 H          -0.1050   -0.0516   28.1319 H       1  UNL1        0.2105
@<TRIPOS>BOND
     1    26    25    1
     2    26    27    1
     3    27    28    1
     4    28    24    1
     5    24     1    1
     6     1     2   ar
     7     2    16    1
     8    16    17   ar
     9    17    18   ar
    10    18    19   ar
    11    19    20    1
    12    19    21   ar
    13    21    22   ar
    14     2     3   ar
    15     3     4   ar
    16     4     5   ar
    17     5     6   ar
    18     6     7    1
    19     6     8   ar
    20     8     9   ar
    21     9    10    1
    22     9    11   ar
    23    11    12   ar
    24    12    13    2
    25    28    29    1
    26    29    30    1
    27    29    31    1
    28    31    32    1
    29    31    33    1
    30    33    34    1
    31    33    26    1
    32    12     1   ar
    33    22    16   ar
    34    11     4   ar
    35    20    23    1
    36     7    14    1
    37    10    15    1
    38    30    35    1
    39    32    36    1
    40    34    37    1
@<TRIPOS>MOLECULE
*****
 37 40 0 0 0
SMALL
GASTEIGER

@<TRIPOS>ATOM
      1 C          -6.8732  -18.0856   23.0420 C.ar    1  UNL1        0.2144
      2 C          -6.0557  -17.1113   23.8372 C.ar    1  UNL1        0.1822
      3 O          -4.6087  -16.8987   23.5039 O.2     1  UNL1       -0.4500
      4 C          -3.9793  -17.6604   22.3753 C.ar    1  UNL1        0.1545
      5 C          -2.5324  -17.4479   22.0419 C.ar    1  UNL1        0.0744
      6 C          -1.9030  -18.2096   20.9134 C.ar    1  UNL1        0.1397
      7 O          -0.4560  -17.9970   20.5800 O.3     1  UNL1       -0.5053
      8 C          -2.7206  -19.1839   20.1183 C.ar    1  UNL1        0.0735
      9 C          -4.1675  -19.3965   20.4516 C.ar    1  UNL1        0.1428
     10 O          -4.9850  -20.3708   19.6564 O.3     1  UNL1       -0.5052
     11 C          -4.7968  -18.6348   21.5801 C.ar    1  UNL1        0.1104
     12 C          -6.2438  -18.8473   21.9135 C.ar    1  UNL1        0.2382
     13 O          -7.0614  -19.8216   21.1184 O.2     1  UNL1       -0.2830
     14 H           0.0547  -17.3884   21.0767 H       1  UNL1        0.2922
     15 H          -4.5919  -20.8467   18.9515 H       1  UNL1        0.2922
     16 C          -6.6851  -16.3495   24.9658 C.ar    1  UNL1        0.0379
     17 C          -8.1557  -16.0551   24.9437 C.ar    1  UNL1        0.0062
     18 C          -8.7851  -15.2934   26.0723 C.ar    1  UNL1        0.0367
     19 C          -7.9438  -14.8260   27.2228 C.ar    1  UNL1        0.1337
     20 O          -8.5733  -14.0643   28.3514 O.3     1  UNL1       -0.5055
     21 C          -6.4732  -15.1204   27.2449 C.ar    1  UNL1        0.0367
     22 C          -5.8438  -15.8821   26.1164 C.ar    1  UNL1        0.0062
     23 H          -9.4919  -13.8804   28.3376 H       1  UNL1        0.2922
     24 O          -8.3202  -18.2981   23.3755 O.3     1  UNL1       -0.4441
     25 C         -13.2160  -18.2156   21.6363 C.3     1  UNL1        0.0349
     26 C         -11.8336  -17.6339   21.6534 C.3     1  UNL1        0.1482
     27 O         -10.7681  -18.2569   22.5059 O.3     1  UNL1       -0.3186
     28 C          -9.3856  -17.6751   22.5230 C.3     1  UNL1        0.3181
     29 C          -9.0686  -16.4703   21.6876 C.3     1  UNL1        0.2105
     30 O          -7.6861  -15.8885   21.7047 O.3     1  UNL1       -0.3766
     31 C         -10.1340  -15.8472   20.8351 C.3     1  UNL1        0.1727
     32 O          -9.8170  -14.6424   19.9998 O.3     1  UNL1       -0.3793
     33 C         -11.5164  -16.4290   20.8180 C.3     1  UNL1        0.1669
     34 O         -12.5819  -15.8060   19.9655 O.3     1  UNL1       -0.3795
     35 H          -7.1247  -16.4065   22.3025 H       1  UNL1        0.2107
     36 H         -10.6103  -14.3682   19.5136 H       1  UNL1        0.2105
     37 H         -13.4098  -16.3006   20.0698 H       1  UNL1        0.2105
@<TRIPOS>BOND
     1    26    25    1
     2    26    27    1
     3    27    28    1
     4    28    24    1
     5    24     1    1
     6     1     2   ar
     7     2    16    1
     8    16    17   ar
     9    17    18   ar
    10    18    19   ar
    11    19    20    1
    12    19    21   ar
    13    21    22   ar
    14     2     3   ar
    15     3     4   ar
    16     4     5   ar
    17     5     6   ar
    18     6     7    1
    19     6     8   ar
    20     8     9   ar
    21     9    10    1
    22     9    11   ar
    23    11    12   ar
    24    12    13    2
    25    28    29    1
    26    29    30    1
    27    29    31    1
    28    31    32    1
    29    31    33    1
    30    33    34    1
    31    33    26    1
    32    12     1   ar
    33    22    16   ar
    34    11     4   ar
    35    20    23    1
    36     7    14    1
    37    10    15    1
    38    30    35    1
    39    32    36    1
    40    34    37    1
@<TRIPOS>MOLECULE
*****
 37 40 0 0 0
SMALL
GASTEIGER

@<TRIPOS>ATOM
      1 C           4.2073    1.7464   33.9148 C.ar    1  UNL1        0.2144
      2 C           4.5820    0.4973   34.6559 C.ar    1  UNL1        0.1822
      3 O           4.1168    0.2945   36.0674 O.2     1  UNL1       -0.4500
      4 C           3.2768    1.3409   36.7379 C.ar    1  UNL1        0.1545
      5 C           2.8115    1.1381   38.1494 C.ar    1  UNL1        0.0744
      6 C           1.9716    2.1845   38.8198 C.ar    1  UNL1        0.1397
      7 O           1.5063    1.9818   40.2314 O.3     1  UNL1       -0.5053
      8 C           1.5969    3.4337   38.0787 C.ar    1  UNL1        0.0735
      9 C           2.0622    3.6365   36.6672 C.ar    1  UNL1        0.1428
     10 O           1.6875    4.8856   35.9262 O.3     1  UNL1       -0.5052
     11 C           2.9021    2.5901   35.9968 C.ar    1  UNL1        0.1104
     12 C           3.3674    2.7928   34.5852 C.ar    1  UNL1        0.2382
     13 O           2.9927    4.0420   33.8442 O.2     1  UNL1       -0.2830
     14 H           1.7404    1.2015   40.6943 H       1  UNL1        0.2922
     15 H           1.1628    5.5393   36.3450 H       1  UNL1        0.2922
     16 C           5.4220   -0.5492   33.9854 C.ar    1  UNL1        0.0379
     17 C           4.7815   -1.7955   33.4502 C.ar    1  UNL1        0.0062
     18 C           5.6215   -2.8418   32.7798 C.ar    1  UNL1        0.0367
     19 C           7.1020   -2.6418   32.6445 C.ar    1  UNL1        0.1337
     20 O           7.9419   -3.6882   31.9740 O.3     1  UNL1       -0.5055
     21 C           7.7424   -1.3955   33.1796 C.ar    1  UNL1        0.0367
     22 C           6.9024   -0.3492   33.8501 C.ar    1  UNL1        0.0062
     23 H           7.5419   -4.4668   31.6397 H       1  UNL1        0.2922
     24 O           4.6726    1.9492   32.5032 O.3     1  UNL1       -0.4441
     25 C           5.2555   -1.4489   28.6156 C.3     1  UNL1        0.0349
     26 C           4.3731   -0.5685   29.4501 C.3     1  UNL1        0.1482
     27 O           4.9641    0.2501   30.5594 O.3     1  UNL1       -0.3186
     28 C           4.0817    1.1306   31.3939 C.3     1  UNL1        0.3181
     29 C           2.6084    1.1923   31.1190 C.3     1  UNL1        0.2105
     30 O           1.7261    2.0727   31.9534 O.3     1  UNL1       -0.3766
     31 C           2.0175    0.3737   30.0096 C.3     1  UNL1        0.1727
     32 O           0.5442    0.4355   29.7347 O.3     1  UNL1       -0.3793
     33 C           2.8998   -0.5067   29.1752 C.3     1  UNL1        0.1669
     34 O           2.3088   -1.3253   28.0659 O.3     1  UNL1       -0.3795
     35 H           2.2625    2.5289   32.6205 H       1  UNL1        0.2107
     36 H           0.3292   -0.1492   28.9913 H       1  UNL1        0.2105
     37 H           3.0107   -1.8334   27.6298 H       1  UNL1        0.2105
@<TRIPOS>BOND
     1    26    25    1
     2    26    27    1
     3    27    28    1
     4    28    24    1
     5    24     1    1
     6     1     2   ar
     7     2    16    1
     8    16    17   ar
     9    17    18   ar
    10    18    19   ar
    11    19    20    1
    12    19    21   ar
    13    21    22   ar
    14     2     3   ar
    15     3     4   ar
    16     4     5   ar
    17     5     6   ar
    18     6     7    1
    19     6     8   ar
    20     8     9   ar
    21     9    10    1
    22     9    11   ar
    23    11    12   ar
    24    12    13    2
    25    28    29    1
    26    29    30    1
    27    29    31    1
    28    31    32    1
    29    31    33    1
    30    33    34    1
    31    33    26    1
    32    12     1   ar
    33    22    16   ar
    34    11     4   ar
    35    20    23    1
    36     7    14    1
    37    10    15    1
    38    30    35    1
    39    32    36    1
    40    34    37    1
