@<TRIPOS>MOLECULE
*****
 30 33 0 0 0
SMALL
GASTEIGER

@<TRIPOS>ATOM
      1 N           0.3781    1.9862   18.6574 N.pl3   1  UNL1       -0.2926
      2 H           0.1426    2.2378   17.7352 H       1  UNL1        0.1541
      3 C           1.3218    0.8471   18.9063 C.ar    1  UNL1        0.0529
      4 C           1.1346   -0.0335   20.1061 C.ar    1  UNL1        0.0163
      5 C           2.0783   -1.1725   20.3549 C.ar    1  UNL1        0.0219
      6 C           3.2092   -1.4309   19.4040 C.ar    1  UNL1        0.0995
      7 C           3.3964   -0.5504   18.2043 C.ar    1  UNL1        0.1559
      8 C           2.4527    0.5887   17.9554 C.ar    1  UNL1        0.0530
      9 N           4.1530   -2.5700   19.6529 N.ar    1  UNL1       -0.2839
     10 C           3.8973   -4.0130   19.3326 C.ar    1  UNL1        0.1826
     11 N           5.1044   -4.8008   19.7475 N.ar    1  UNL1       -0.2280
     12 C           6.1061   -3.8448   20.3241 C.ar    1  UNL1        0.0786
     13 C           7.4585   -4.2044   20.8644 C.3     1  UNL1        0.0538
     14 C           5.5182   -2.4661   20.2656 C.ar    1  UNL1        0.0963
     15 O           4.5274   -0.8089   17.2533 O.3     1  UNL1       -0.4699
     16 C           5.8060   -0.0350   17.3808 C.3     1  UNL1        0.2525
     17 C          -1.6988    3.4444   21.5943 C.ar    1  UNL1        0.0927
     18 C          -0.5148    4.3652   21.5914 C.ar    1  UNL1        0.0573
     19 S           0.4074    3.9311   20.4909 S.2     1  UNL1       -0.0509
     20 C          -0.2068    2.7419   19.8136 C.ar    1  UNL1        0.1635
     21 N          -1.5085    2.4411   20.4956 N.ar    1  UNL1       -0.2239
     22 C          -4.2652    3.4032   21.9971 C.ar    1  UNL1        0.1401
     23 C          -5.4343    3.4733   22.9342 C.ar    1  UNL1        0.0375
     24 C          -5.2062    3.6547   24.4057 C.ar    1  UNL1        0.0098
     25 C          -3.8091    3.7660   24.9400 C.ar    1  UNL1        0.0348
     26 BR         -3.5811    3.9473   26.4114 Br      1  UNL1       -0.0490
     27 C          -2.6400    3.6959   24.0029 C.ar    1  UNL1        0.0112
     28 C          -2.8680    3.5145   22.5314 C.ar    1  UNL1        0.0527
     29 C          -5.7977    3.6362   19.9122 C.3     1  UNL1        0.2525
     30 O          -4.4932    3.2218   20.5257 O.3     1  UNL1       -0.4714
@<TRIPOS>BOND
     1    29    30    1
     2    30    22    1
     3    22    23   ar
     4    23    24   ar
     5    24    25   ar
     6    25    26    1
     7    25    27   ar
     8    27    28   ar
     9    28    17    1
    10    17    18   ar
    11    18    19   ar
    12    19    20   ar
    13    20     1    1
    14     1     3    1
    15     3     4   ar
    16     4     5   ar
    17     5     6   ar
    18     6     9    1
    19     9    10   ar
    20    10    11   ar
    21    11    12   ar
    22    12    13    1
    23    12    14   ar
    24     6     7   ar
    25     7    15    1
    26    15    16    1
    27     7     8   ar
    28    20    21   ar
    29    28    22   ar
    30    21    17   ar
    31     8     3   ar
    32    14     9   ar
    33     1     2    1
@<TRIPOS>MOLECULE
*****
 30 33 0 0 0
SMALL
GASTEIGER

@<TRIPOS>ATOM
      1 N          -5.4483  -16.2596   25.0325 N.pl3   1  UNL1       -0.2926
      2 H          -5.0426  -16.1083   25.9167 H       1  UNL1        0.1541
      3 C          -4.5780  -16.5734   23.8518 C.ar    1  UNL1        0.0529
      4 C          -3.8704  -15.4673   23.1266 C.ar    1  UNL1        0.0163
      5 C          -3.0001  -15.7811   21.9459 C.ar    1  UNL1        0.0219
      6 C          -2.8374  -17.2010   21.4904 C.ar    1  UNL1        0.0995
      7 C          -3.5450  -18.3070   22.2156 C.ar    1  UNL1        0.1559
      8 C          -4.4153  -17.9932   23.3963 C.ar    1  UNL1        0.0530
      9 N          -1.9671  -17.5148   20.3096 N.ar    1  UNL1       -0.2839
     10 C          -0.5314  -17.9460   20.3624 C.ar    1  UNL1        0.1826
     11 N          -0.0568  -18.1502   18.9542 N.ar    1  UNL1       -0.2280
     12 C          -1.1990  -17.8453   18.0312 C.ar    1  UNL1        0.0786
     13 C          -1.1665  -17.9199   16.5334 C.3     1  UNL1        0.0538
     14 C          -2.3797  -17.4525   18.8689 C.ar    1  UNL1        0.0963
     15 O          -3.3822  -19.7269   21.7600 O.3     1  UNL1       -0.4699
     16 C          -4.1724  -20.2345   20.5904 C.3     1  UNL1        0.2525
     17 C          -9.1760  -16.4261   23.9642 C.ar    1  UNL1        0.0927
     18 C          -9.2782  -15.6701   25.2557 C.ar    1  UNL1        0.0573
     19 S          -7.8942  -15.5157   25.8131 S.2     1  UNL1       -0.0509
     20 C          -6.9367  -16.1763   24.8661 C.ar    1  UNL1        0.1635
     21 N          -7.7289  -16.7389   23.7234 N.ar    1  UNL1       -0.2239
     22 C         -11.2865  -17.8678   23.4976 C.ar    1  UNL1        0.1401
     23 C         -12.4305  -18.2447   22.6037 C.ar    1  UNL1        0.0375
     24 C         -12.6083  -17.5569   21.2826 C.ar    1  UNL1        0.0098
     25 C         -11.6420  -16.4922   20.8553 C.ar    1  UNL1        0.0348
     26 BR        -11.8197  -15.8044   19.5342 Br      1  UNL1       -0.0490
     27 C         -10.4979  -16.1153   21.7492 C.ar    1  UNL1        0.0112
     28 C         -10.3202  -16.8031   23.0703 C.ar    1  UNL1        0.0527
     29 C         -10.2202  -19.7594   24.9240 C.3     1  UNL1        0.2525
     30 O         -11.1087  -18.5555   24.8187 O.3     1  UNL1       -0.4714
@<TRIPOS>BOND
     1    29    30    1
     2    30    22    1
     3    22    23   ar
     4    23    24   ar
     5    24    25   ar
     6    25    26    1
     7    25    27   ar
     8    27    28   ar
     9    28    17    1
    10    17    18   ar
    11    18    19   ar
    12    19    20   ar
    13    20     1    1
    14     1     3    1
    15     3     4   ar
    16     4     5   ar
    17     5     6   ar
    18     6     9    1
    19     9    10   ar
    20    10    11   ar
    21    11    12   ar
    22    12    13    1
    23    12    14   ar
    24     6     7   ar
    25     7    15    1
    26    15    16    1
    27     7     8   ar
    28    20    21   ar
    29    28    22   ar
    30    21    17   ar
    31     8     3   ar
    32    14     9   ar
    33     1     2    1
@<TRIPOS>MOLECULE
*****
 30 33 0 0 0
SMALL
GASTEIGER

@<TRIPOS>ATOM
      1 N           0.1868    2.1038   18.8861 N.pl3   1  UNL1       -0.2926
      2 H          -0.0889    2.3372   17.9703 H       1  UNL1        0.1541
      3 C           1.1466    0.9742   19.1156 C.ar    1  UNL1        0.0529
      4 C           1.0233    0.1232   20.3447 C.ar    1  UNL1        0.0163
      5 C           1.9831   -1.0064   20.5741 C.ar    1  UNL1        0.0219
      6 C           3.0662   -1.2851   19.5745 C.ar    1  UNL1        0.0995
      7 C           3.1895   -0.4341   18.3455 C.ar    1  UNL1        0.1559
      8 C           2.2297    0.6955   18.1160 C.ar    1  UNL1        0.0530
      9 N           4.0260   -2.4148   19.8039 N.ar    1  UNL1       -0.2839
     10 C           3.8888   -3.8103   19.2714 C.ar    1  UNL1        0.1826
     11 N           5.0696   -4.6052   19.7446 N.ar    1  UNL1       -0.2280
     12 C           5.9366   -3.7009   20.5694 C.ar    1  UNL1        0.0786
     13 C           7.2228   -4.0833   21.2399 C.3     1  UNL1        0.0538
     14 C           5.2917   -2.3471   20.6061 C.ar    1  UNL1        0.0963
     15 O           4.2726   -0.7128   17.3458 O.3     1  UNL1       -0.4699
     16 C           5.6198   -0.0717   17.5015 C.3     1  UNL1        0.2525
     17 C          -1.7817    3.6172   21.8695 C.ar    1  UNL1        0.0927
     18 C          -0.5855    4.5210   21.8232 C.ar    1  UNL1        0.0573
     19 S           0.2975    4.0641   20.7000 S.2     1  UNL1       -0.0509
     20 C          -0.3530    2.8779   20.0521 C.ar    1  UNL1        0.1635
     21 N          -1.6380    2.6017   20.7748 N.ar    1  UNL1       -0.2239
     22 C          -2.6627    3.6065   24.3136 C.ar    1  UNL1        0.1401
     23 C          -3.8025    3.7015   25.2840 C.ar    1  UNL1        0.0375
     24 C          -5.2013    3.9020   24.7807 C.ar    1  UNL1        0.0098
     25 C          -5.4602    4.0076   23.3070 C.ar    1  UNL1        0.0348
     26 BR         -6.8589    4.2082   22.8038 Br      1  UNL1       -0.0490
     27 C          -4.3204    3.9127   22.3367 C.ar    1  UNL1        0.0112
     28 C          -2.9216    3.7121   22.8399 C.ar    1  UNL1        0.0527
     29 C          -0.9384    2.2191   25.6743 C.3     1  UNL1        0.2525
     30 O          -1.2640    3.4060   24.8169 O.3     1  UNL1       -0.4714
@<TRIPOS>BOND
     1    29    30    1
     2    30    22    1
     3    22    23   ar
     4    23    24   ar
     5    24    25   ar
     6    25    26    1
     7    25    27   ar
     8    27    28   ar
     9    28    17    1
    10    17    18   ar
    11    18    19   ar
    12    19    20   ar
    13    20     1    1
    14     1     3    1
    15     3     4   ar
    16     4     5   ar
    17     5     6   ar
    18     6     9    1
    19     9    10   ar
    20    10    11   ar
    21    11    12   ar
    22    12    13    1
    23    12    14   ar
    24     6     7   ar
    25     7    15    1
    26    15    16    1
    27     7     8   ar
    28    20    21   ar
    29    28    22   ar
    30    21    17   ar
    31     8     3   ar
    32    14     9   ar
    33     1     2    1
@<TRIPOS>MOLECULE
*****
 30 33 0 0 0
SMALL
GASTEIGER

@<TRIPOS>ATOM
      1 N           8.9137   -6.2735   22.3865 N.pl3   1  UNL1       -0.2926
      2 H           9.3128   -7.0371   21.9102 H       1  UNL1        0.1541
      3 C           8.7897   -6.3035   23.8810 C.ar    1  UNL1        0.0529
      4 C           8.4257   -7.5810   24.5779 C.ar    1  UNL1        0.0163
      5 C           8.3018   -7.6110   26.0724 C.ar    1  UNL1        0.0219
      6 C           8.5419   -6.3636   26.8701 C.ar    1  UNL1        0.0995
      7 C           8.9060   -5.0862   26.1733 C.ar    1  UNL1        0.1559
      8 C           9.0299   -5.0561   24.6787 C.ar    1  UNL1        0.0530
      9 N           8.4180   -6.3936   28.3648 N.ar    1  UNL1       -0.2839
     10 C           7.2979   -5.8028   29.1687 C.ar    1  UNL1        0.1826
     11 N           7.5801   -6.0638   30.6185 N.ar    1  UNL1       -0.2280
     12 C           8.8747   -6.8157   30.7108 C.ar    1  UNL1        0.0786
     13 C           9.5354   -7.2820   31.9741 C.3     1  UNL1        0.0538
     14 C           9.3926   -7.0196   29.3178 C.ar    1  UNL1        0.0963
     15 O           9.1461   -3.8388   26.9710 O.3     1  UNL1       -0.4699
     16 C           7.9962   -2.9447   27.3293 C.3     1  UNL1        0.2525
     17 C           6.9988   -3.3344   20.7250 C.ar    1  UNL1        0.0927
     18 C           8.3697   -3.1524   20.1440 C.ar    1  UNL1        0.0573
     19 S           9.2539   -4.2313   20.6957 S.2     1  UNL1       -0.0509
     20 C           8.4294   -5.0800   21.6176 C.ar    1  UNL1        0.1635
     21 N           7.0357   -4.5257   21.6357 N.ar    1  UNL1       -0.2239
     22 C           4.4881   -3.1111   20.0953 C.ar    1  UNL1        0.1401
     23 C           3.2906   -2.2525   19.8148 C.ar    1  UNL1        0.0375
     24 C           3.4062   -0.7585   19.8835 C.ar    1  UNL1        0.0098
     25 C           4.7193   -0.1232   20.2327 C.ar    1  UNL1        0.0348
     26 BR          4.8350    1.3708   20.3014 Br      1  UNL1       -0.0490
     27 C           5.9168   -0.9818   20.5132 C.ar    1  UNL1        0.0112
     28 C           5.8012   -2.4758   20.4445 C.ar    1  UNL1        0.0527
     29 C           4.6077   -5.3165   18.7272 C.3     1  UNL1        0.2525
     30 O           4.3725   -4.6051   20.0266 O.3     1  UNL1       -0.4714
@<TRIPOS>BOND
     1    29    30    1
     2    30    22    1
     3    22    23   ar
     4    23    24   ar
     5    24    25   ar
     6    25    26    1
     7    25    27   ar
     8    27    28   ar
     9    28    17    1
    10    17    18   ar
    11    18    19   ar
    12    19    20   ar
    13    20     1    1
    14     1     3    1
    15     3     4   ar
    16     4     5   ar
    17     5     6   ar
    18     6     9    1
    19     9    10   ar
    20    10    11   ar
    21    11    12   ar
    22    12    13    1
    23    12    14   ar
    24     6     7   ar
    25     7    15    1
    26    15    16    1
    27     7     8   ar
    28    20    21   ar
    29    28    22   ar
    30    21    17   ar
    31     8     3   ar
    32    14     9   ar
    33     1     2    1
@<TRIPOS>MOLECULE
*****
 30 33 0 0 0
SMALL
GASTEIGER

@<TRIPOS>ATOM
      1 N           0.8748    2.3687   22.5899 N.pl3   1  UNL1       -0.2926
      2 H           0.5520    3.2693   22.3577 H       1  UNL1        0.1541
      3 C           1.0726    1.9905   24.0279 C.ar    1  UNL1        0.0529
      4 C          -0.1156    1.7212   24.9029 C.ar    1  UNL1        0.0163
      5 C           0.0823    1.3430   26.3409 C.ar    1  UNL1        0.0219
      6 C           1.4683    1.2341   26.9038 C.ar    1  UNL1        0.0995
      7 C           2.6565    1.5035   26.0289 C.ar    1  UNL1        0.1559
      8 C           2.4587    1.8816   24.5909 C.ar    1  UNL1        0.0530
      9 N           1.6662    0.8559   28.3419 N.ar    1  UNL1       -0.2839
     10 C           1.6702   -0.5386   28.8943 C.ar    1  UNL1        0.1826
     11 N           1.9013   -0.4504   30.3737 N.ar    1  UNL1       -0.2280
     12 C           2.0402    0.9985   30.7357 C.ar    1  UNL1        0.0786
     13 C           2.2820    1.5443   32.1118 C.3     1  UNL1        0.0538
     14 C           1.8950    1.8060   29.4799 C.ar    1  UNL1        0.0963
     15 O           4.0426    1.3946   26.5919 O.3     1  UNL1       -0.4699
     16 C           4.7086    0.0542   26.6910 C.3     1  UNL1        0.2525
     17 C           2.3316   -0.2018   20.0729 C.ar    1  UNL1        0.0927
     18 C           0.9106   -0.1083   19.6018 C.ar    1  UNL1        0.0573
     19 S           0.1919    0.8660   20.4873 S.2     1  UNL1       -0.0509
     20 C           1.1688    1.3746   21.5058 C.ar    1  UNL1        0.1635
     21 N           2.4912    0.7147   21.2496 N.ar    1  UNL1       -0.2239
     22 C           4.5742   -0.4262   18.7802 C.ar    1  UNL1        0.1401
     23 C           5.6472   -1.2853   18.1800 C.ar    1  UNL1        0.0375
     24 C           5.5510   -2.7794   18.2723 C.ar    1  UNL1        0.0098
     25 C           4.3816   -3.4143   18.9647 C.ar    1  UNL1        0.0348
     26 BR          4.2853   -4.9083   19.0570 Br      1  UNL1       -0.0490
     27 C           3.3085   -2.5551   19.5649 C.ar    1  UNL1        0.0112
     28 C           3.4048   -1.0610   19.4727 C.ar    1  UNL1        0.0527
     29 C           5.8761    1.7767   19.2301 C.3     1  UNL1        0.2525
     30 O           4.6704    1.0679   18.6880 O.3     1  UNL1       -0.4714
@<TRIPOS>BOND
     1    29    30    1
     2    30    22    1
     3    22    23   ar
     4    23    24   ar
     5    24    25   ar
     6    25    26    1
     7    25    27   ar
     8    27    28   ar
     9    28    17    1
    10    17    18   ar
    11    18    19   ar
    12    19    20   ar
    13    20     1    1
    14     1     3    1
    15     3     4   ar
    16     4     5   ar
    17     5     6   ar
    18     6     9    1
    19     9    10   ar
    20    10    11   ar
    21    11    12   ar
    22    12    13    1
    23    12    14   ar
    24     6     7   ar
    25     7    15    1
    26    15    16    1
    27     7     8   ar
    28    20    21   ar
    29    28    22   ar
    30    21    17   ar
    31     8     3   ar
    32    14     9   ar
    33     1     2    1
@<TRIPOS>MOLECULE
*****
 30 33 0 0 0
SMALL
GASTEIGER

@<TRIPOS>ATOM
      1 N           1.1743    2.9188   22.0110 N.pl3   1  UNL1       -0.2926
      2 H           1.1681    3.8573   21.7135 H       1  UNL1        0.1541
      3 C           0.9644    2.5898   23.4593 C.ar    1  UNL1        0.0529
      4 C           2.0623    1.9387   24.2473 C.ar    1  UNL1        0.0163
      5 C           1.8523    1.6097   25.6955 C.ar    1  UNL1        0.0219
      6 C           0.5446    1.9318   26.3559 C.ar    1  UNL1        0.0995
      7 C          -0.5532    2.5828   25.5680 C.ar    1  UNL1        0.1559
      8 C          -0.3433    2.9118   24.1197 C.ar    1  UNL1        0.0530
      9 N           0.3346    1.6027   27.8043 N.ar    1  UNL1       -0.2839
     10 C          -0.3690    0.3912   28.3403 C.ar    1  UNL1        0.1826
     11 N          -0.3470    0.4673   29.8381 N.ar    1  UNL1       -0.2280
     12 C           0.3701    1.7257   30.2280 C.ar    1  UNL1        0.0786
     13 C           0.6218    2.1992   31.6288 C.3     1  UNL1        0.0538
     14 C           0.7914    2.4275   28.9710 C.ar    1  UNL1        0.0963
     15 O          -1.8610    2.9048   26.2284 O.3     1  UNL1       -0.4699
     16 C          -2.1547    4.3095   26.6652 C.3     1  UNL1        0.2525
     17 C           2.4329    0.0376   19.7351 C.ar    1  UNL1        0.0927
     18 C           1.0295    0.2104   19.2344 C.ar    1  UNL1        0.0573
     19 S           0.3872    1.3108   20.0260 S.2     1  UNL1       -0.0509
     20 C           1.3936    1.8180   21.0160 C.ar    1  UNL1        0.1635
     21 N           2.6579    1.0311   20.8361 N.ar    1  UNL1       -0.2239
     22 C           4.6206   -0.4845   18.4346 C.ar    1  UNL1        0.1401
     23 C           5.6229   -1.4767   17.9239 C.ar    1  UNL1        0.0375
     24 C           5.4399   -2.9391   18.2030 C.ar    1  UNL1        0.0098
     25 C           4.2545   -3.4093   18.9928 C.ar    1  UNL1        0.0348
     26 BR          4.0714   -4.8717   19.2718 Br      1  UNL1       -0.0490
     27 C           3.2522   -2.4171   19.5034 C.ar    1  UNL1        0.0112
     28 C           3.4353   -0.9547   19.2243 C.ar    1  UNL1        0.0527
     29 C           5.7881    1.7769   18.9570 C.3     1  UNL1        0.2525
     30 O           4.8037    0.9779   18.1555 O.3     1  UNL1       -0.4714
@<TRIPOS>BOND
     1    29    30    1
     2    30    22    1
     3    22    23   ar
     4    23    24   ar
     5    24    25   ar
     6    25    26    1
     7    25    27   ar
     8    27    28   ar
     9    28    17    1
    10    17    18   ar
    11    18    19   ar
    12    19    20   ar
    13    20     1    1
    14     1     3    1
    15     3     4   ar
    16     4     5   ar
    17     5     6   ar
    18     6     9    1
    19     9    10   ar
    20    10    11   ar
    21    11    12   ar
    22    12    13    1
    23    12    14   ar
    24     6     7   ar
    25     7    15    1
    26    15    16    1
    27     7     8   ar
    28    20    21   ar
    29    28    22   ar
    30    21    17   ar
    31     8     3   ar
    32    14     9   ar
    33     1     2    1
@<TRIPOS>MOLECULE
*****
 30 33 0 0 0
SMALL
GASTEIGER

@<TRIPOS>ATOM
      1 N           4.7918   -3.5859   19.4075 N.pl3   1  UNL1       -0.2926
      2 H           4.5627   -4.3714   18.8600 H       1  UNL1        0.1541
      3 C           4.0887   -2.2809   19.1782 C.ar    1  UNL1        0.0529
      4 C           4.2207   -1.5796   17.8589 C.ar    1  UNL1        0.0163
      5 C           3.5176   -0.2746   17.6296 C.ar    1  UNL1        0.0219
      6 C           2.6825    0.3290   18.7197 C.ar    1  UNL1        0.0995
      7 C           2.5505   -0.3723   20.0389 C.ar    1  UNL1        0.1559
      8 C           3.2536   -1.6773   20.2683 C.ar    1  UNL1        0.0530
      9 N           1.9794    1.6341   18.4904 N.ar    1  UNL1       -0.2839
     10 C           2.6283    2.9845   18.4182 C.ar    1  UNL1        0.1826
     11 N           1.5538    4.0028   18.1763 N.ar    1  UNL1       -0.2280
     12 C           0.2408    3.2818   18.0989 C.ar    1  UNL1        0.0786
     13 C          -1.0998    3.9137   17.8679 C.3     1  UNL1        0.0538
     14 C           0.5038    1.8178   18.2930 C.ar    1  UNL1        0.0963
     15 O           1.7154    0.2314   21.1290 O.3     1  UNL1       -0.4699
     16 C           2.3339    1.1878   22.1052 C.3     1  UNL1        0.2525
     17 C           6.9621   -4.1700   22.5721 C.ar    1  UNL1        0.0927
     18 C           7.9644   -3.5514   21.6434 C.ar    1  UNL1        0.0573
     19 S           7.2735   -3.2572   20.3449 S.2     1  UNL1       -0.0509
     20 C           5.8440   -3.6942   20.4711 C.ar    1  UNL1        0.1635
     21 N           5.6516   -4.2583   21.8476 N.ar    1  UNL1       -0.2239
     22 C           6.9739   -3.6869   25.1248 C.ar    1  UNL1        0.1401
     23 C           7.2360   -4.1381   26.5311 C.ar    1  UNL1        0.0375
     24 C           7.7483   -5.5238   26.7910 C.ar    1  UNL1        0.0098
     25 C           7.9986   -6.4582   25.6446 C.ar    1  UNL1        0.0348
     26 BR          8.5109   -7.8438   25.9045 Br      1  UNL1       -0.0490
     27 C           7.7365   -6.0069   24.2383 C.ar    1  UNL1        0.0112
     28 C           7.2242   -4.6213   23.9784 C.ar    1  UNL1        0.0527
     29 C           4.9847   -2.0409   24.8355 C.3     1  UNL1        0.2525
     30 O           6.4616   -2.3012   24.8649 O.3     1  UNL1       -0.4714
@<TRIPOS>BOND
     1    29    30    1
     2    30    22    1
     3    22    23   ar
     4    23    24   ar
     5    24    25   ar
     6    25    26    1
     7    25    27   ar
     8    27    28   ar
     9    28    17    1
    10    17    18   ar
    11    18    19   ar
    12    19    20   ar
    13    20     1    1
    14     1     3    1
    15     3     4   ar
    16     4     5   ar
    17     5     6   ar
    18     6     9    1
    19     9    10   ar
    20    10    11   ar
    21    11    12   ar
    22    12    13    1
    23    12    14   ar
    24     6     7   ar
    25     7    15    1
    26    15    16    1
    27     7     8   ar
    28    20    21   ar
    29    28    22   ar
    30    21    17   ar
    31     8     3   ar
    32    14     9   ar
    33     1     2    1
@<TRIPOS>MOLECULE
*****
 30 33 0 0 0
SMALL
GASTEIGER

@<TRIPOS>ATOM
      1 N          -7.8357  -20.1299   19.3397 N.pl3   1  UNL1       -0.2926
      2 H          -8.0555  -20.4717   18.4430 H       1  UNL1        0.1541
      3 C          -8.9322  -19.6925   20.2651 C.ar    1  UNL1        0.0529
      4 C         -10.3561  -19.6915   19.7932 C.ar    1  UNL1        0.0163
      5 C         -11.4525  -19.2541   20.7187 C.ar    1  UNL1        0.0219
      6 C         -11.1251  -18.8179   22.1160 C.ar    1  UNL1        0.0995
      7 C          -9.7014  -18.8189   22.5878 C.ar    1  UNL1        0.1559
      8 C          -8.6049  -19.2563   21.6624 C.ar    1  UNL1        0.0530
      9 N         -12.2216  -18.3805   23.0415 N.ar    1  UNL1       -0.2839
     10 C         -13.1529  -17.2253   22.8214 C.ar    1  UNL1        0.1826
     11 N         -14.0861  -17.1525   23.9934 N.ar    1  UNL1       -0.2280
     12 C         -13.7317  -18.2625   24.9379 C.ar    1  UNL1        0.0786
     13 C         -14.4104  -18.5613   26.2417 C.3     1  UNL1        0.0538
     14 C         -12.5794  -19.0215   24.3495 C.ar    1  UNL1        0.0963
     15 O          -9.3740  -18.3826   23.9852 O.3     1  UNL1       -0.4699
     16 C          -9.1796  -16.9269   24.2901 C.3     1  UNL1        0.2525
     17 C          -4.2357  -19.1694   20.4273 C.ar    1  UNL1        0.0927
     18 C          -4.1679  -20.6665   20.4906 C.ar    1  UNL1        0.0573
     19 S          -5.5082  -21.2085   20.0908 S.2     1  UNL1       -0.0509
     20 C          -6.4044  -20.0464   19.7805 C.ar    1  UNL1        0.1635
     21 N          -5.6180  -18.7861   19.9885 N.ar    1  UNL1       -0.2239
     22 C          -3.2751  -17.2220   21.8539 C.ar    1  UNL1        0.1401
     23 C          -2.1570  -16.2745   22.1733 C.ar    1  UNL1        0.0375
     24 C          -0.8815  -16.3267   21.3857 C.ar    1  UNL1        0.0098
     25 C          -0.7241  -17.3264   20.2786 C.ar    1  UNL1        0.0348
     26 BR          0.5514  -17.3786   19.4909 Br      1  UNL1       -0.0490
     27 C          -1.8422  -18.2740   19.9591 C.ar    1  UNL1        0.0112
     28 C          -3.1176  -18.2218   20.7468 C.ar    1  UNL1        0.0527
     29 C          -4.6535  -16.2791   23.8440 C.3     1  UNL1        0.2525
     30 O          -4.5505  -17.1698   22.6416 O.3     1  UNL1       -0.4714
@<TRIPOS>BOND
     1    29    30    1
     2    30    22    1
     3    22    23   ar
     4    23    24   ar
     5    24    25   ar
     6    25    26    1
     7    25    27   ar
     8    27    28   ar
     9    28    17    1
    10    17    18   ar
    11    18    19   ar
    12    19    20   ar
    13    20     1    1
    14     1     3    1
    15     3     4   ar
    16     4     5   ar
    17     5     6   ar
    18     6     9    1
    19     9    10   ar
    20    10    11   ar
    21    11    12   ar
    22    12    13    1
    23    12    14   ar
    24     6     7   ar
    25     7    15    1
    26    15    16    1
    27     7     8   ar
    28    20    21   ar
    29    28    22   ar
    30    21    17   ar
    31     8     3   ar
    32    14     9   ar
    33     1     2    1
@<TRIPOS>MOLECULE
*****
 30 33 0 0 0
SMALL
GASTEIGER

@<TRIPOS>ATOM
      1 N           6.3948   -4.3615   23.2201 N.pl3   1  UNL1       -0.2926
      2 H           6.6569   -5.2074   22.7900 H       1  UNL1        0.1541
      3 C           5.4543   -3.4247   22.5214 C.ar    1  UNL1        0.0529
      4 C           4.6078   -2.4781   23.3198 C.ar    1  UNL1        0.0163
      5 C           3.6675   -1.5414   22.6212 C.ar    1  UNL1        0.0219
      6 C           3.5736   -1.5513   21.1242 C.ar    1  UNL1        0.0995
      7 C           4.4200   -2.4978   20.3258 C.ar    1  UNL1        0.1559
      8 C           5.3604   -3.4346   21.0244 C.ar    1  UNL1        0.0530
      9 N           2.6331   -0.6145   20.4254 N.ar    1  UNL1       -0.2839
     10 C           1.1790   -0.8643   20.1546 C.ar    1  UNL1        0.1826
     11 N           0.6290    0.3323   19.4368 N.ar    1  UNL1       -0.2280
     12 C           1.7430    1.3217   19.2638 C.ar    1  UNL1        0.0786
     13 C           1.6370    2.6611   18.5970 C.3     1  UNL1        0.0538
     14 C           2.9816    0.7366   19.8749 C.ar    1  UNL1        0.0963
     15 O           4.3260   -2.5077   18.8287 O.3     1  UNL1       -0.4699
     16 C           5.3145   -1.7311   18.0102 C.3     1  UNL1        0.2525
     17 C           7.3661   -4.0220   26.9626 C.ar    1  UNL1        0.0927
     18 C           8.1710   -2.9130   26.3526 C.ar    1  UNL1        0.0573
     19 S           7.9051   -2.9052   24.8764 S.2     1  UNL1       -0.0509
     20 C           6.9358   -4.0094   24.5740 C.ar    1  UNL1        0.1635
     21 N           6.6027   -4.6996   25.8634 N.ar    1  UNL1       -0.2239
     22 C           7.9334   -5.6826   28.8785 C.ar    1  UNL1        0.1401
     23 C           7.8980   -6.0496   30.3325 C.ar    1  UNL1        0.0375
     24 C           7.2598   -5.1230   31.3246 C.ar    1  UNL1        0.0098
     25 C           6.6571   -3.8295   30.8627 C.ar    1  UNL1        0.0348
     26 BR          6.0189   -2.9029   31.8548 Br      1  UNL1       -0.0490
     27 C           6.6925   -3.4625   29.4087 C.ar    1  UNL1        0.0112
     28 C           7.3307   -4.3891   28.4167 C.ar    1  UNL1        0.0527
     29 C           8.3948   -8.0924   28.0240 C.3     1  UNL1        0.2525
     30 O           8.5716   -6.6092   27.8865 O.3     1  UNL1       -0.4714
@<TRIPOS>BOND
     1    29    30    1
     2    30    22    1
     3    22    23   ar
     4    23    24   ar
     5    24    25   ar
     6    25    26    1
     7    25    27   ar
     8    27    28   ar
     9    28    17    1
    10    17    18   ar
    11    18    19   ar
    12    19    20   ar
    13    20     1    1
    14     1     3    1
    15     3     4   ar
    16     4     5   ar
    17     5     6   ar
    18     6     9    1
    19     9    10   ar
    20    10    11   ar
    21    11    12   ar
    22    12    13    1
    23    12    14   ar
    24     6     7   ar
    25     7    15    1
    26    15    16    1
    27     7     8   ar
    28    20    21   ar
    29    28    22   ar
    30    21    17   ar
    31     8     3   ar
    32    14     9   ar
    33     1     2    1
