@<TRIPOS>MOLECULE
*****
 39 42 0 0 0
SMALL
GASTEIGER

@<TRIPOS>ATOM
      1 N          -5.3751  -15.2416   22.9550 N.am    1  UNL1       -0.2683
      2 C          -4.4119  -16.3337   22.5951 C.2     1  UNL1        0.3044
      3 O          -4.8383  -17.7691   22.6840 O.2     1  UNL1       -0.2525
      4 N          -3.0225  -15.9904   22.1463 N.am    1  UNL1       -0.2903
      5 H          -5.0953  -14.2995   22.8966 H       1  UNL1        0.1564
      6 H          -2.7426  -15.0484   22.0879 H       1  UNL1        0.1509
      7 C          -8.4343  -16.1708   25.3062 C.ar    1  UNL1        0.0360
      8 C          -7.0449  -15.8275   24.8573 C.ar    1  UNL1        0.0176
      9 C          -6.7647  -15.5849   23.4038 C.ar    1  UNL1        0.0518
     10 C          -7.8740  -15.6855   22.3992 C.ar    1  UNL1        0.0178
     11 C          -9.2634  -16.0288   22.8480 C.ar    1  UNL1        0.0387
     12 C          -9.5436  -16.2715   24.3015 C.ar    1  UNL1        0.0060
     13 C         -10.3728  -16.1295   21.8434 C.ar    1  UNL1        0.1839
     14 N         -10.2943  -15.7284   20.4001 N.ar    1  UNL1       -0.1081
     15 N         -11.6283  -15.9999   19.7704 N.ar    1  UNL1       -0.0227
     16 N         -12.5313  -16.5689   20.8244 N.ar    1  UNL1       -0.0429
     17 N         -11.7553  -16.6490   22.1056 N.ar    1  UNL1       -0.2113
     18 C         -12.2713  -17.1590   23.4185 C.3     1  UNL1        0.1573
     19 C          -8.5126  -15.3111   27.7566 C.3     1  UNL1        0.0773
     20 C          -8.7145  -16.4135   26.7596 C.2     1  UNL1        0.1735
     21 O          -9.1966  -17.7585   27.2162 O.2     1  UNL1       -0.2913
     22 C          -2.0593  -17.0826   21.7864 C.3     1  UNL1        0.0745
     23 C          -1.6205  -18.0689   22.8279 C.3     1  UNL1        0.0214
     24 C          -1.5348  -17.1884   20.3851 C.3     1  UNL1        0.0369
     25 C          -2.4124  -17.7273   19.2945 C.3     1  UNL1        0.0738
     26 N          -3.4773  -18.7334   19.6170 N.3     1  UNL1       -0.2726
     27 C          -3.0948  -20.1157   20.0560 C.3     1  UNL1        0.0721
     28 C          -4.1596  -21.1217   20.3785 C.3     1  UNL1        0.0174
     29 C          -5.6070  -20.7454   20.2620 C.3     1  UNL1        0.0031
     30 C          -5.9895  -19.3630   19.8231 C.3     1  UNL1        0.0204
     31 C          -4.9246  -18.3570   19.5006 C.3     1  UNL1        0.0724
     32 C          -7.4368  -18.9867   19.7066 C.3     1  UNL1        0.0277
     33 C          -8.3931  -19.3342   20.8087 C.ar    1  UNL1       -0.0220
     34 C          -9.8328  -19.6127   20.4924 C.ar    1  UNL1       -0.0020
     35 C         -10.7891  -19.9602   21.5945 C.ar    1  UNL1        0.0293
     36 C         -10.3059  -20.0292   23.0128 C.ar    1  UNL1        0.1401
     37 F         -11.2623  -20.3767   24.1149 F       1  UNL1       -0.2042
     38 C          -8.8664  -19.7507   23.3291 C.ar    1  UNL1        0.0293
     39 C          -7.9099  -19.4032   22.2270 C.ar    1  UNL1       -0.0020
@<TRIPOS>BOND
     1    19    20    1
     2    20    21    2
     3    20     7    1
     4     7     8   ar
     5     8     9   ar
     6     9     1    1
     7     1     2   am
     8     2     3    2
     9     2     4   am
    10     4    22    1
    11    22    23    1
    12    22    24    1
    13    24    25    1
    14    25    26    1
    15    26    27    1
    16    27    28    1
    17    28    29    1
    18    29    30    1
    19    30    32    1
    20    32    33    1
    21    33    34   ar
    22    34    35   ar
    23    35    36   ar
    24    36    37    1
    25    36    38   ar
    26    38    39   ar
    27    30    31    1
    28     9    10   ar
    29    10    11   ar
    30    11    13    1
    31    13    14   ar
    32    14    15   ar
    33    15    16   ar
    34    16    17   ar
    35    17    18    1
    36    11    12   ar
    37    12     7   ar
    38    31    26    1
    39    17    13   ar
    40    39    33   ar
    41     1     5    1
    42     4     6    1
@<TRIPOS>MOLECULE
*****
 39 42 0 0 0
SMALL
GASTEIGER

@<TRIPOS>ATOM
      1 N          -9.3803  -17.8312   25.3526 N.am    1  UNL1       -0.2683
      2 C          -8.4950  -16.6425   25.5832 C.2     1  UNL1        0.3044
      3 O          -8.8609  -15.3102   24.9989 O.2     1  UNL1       -0.2525
      4 N          -7.2438  -16.7860   26.3980 N.am    1  UNL1       -0.2903
      5 H          -9.1402  -18.7056   25.7360 H       1  UNL1        0.1564
      6 H          -7.0037  -17.6604   26.7814 H       1  UNL1        0.1509
      7 C         -13.1903  -18.0436   24.2621 C.ar    1  UNL1        0.0360
      8 C         -11.9391  -18.1871   25.0769 C.ar    1  UNL1        0.0176
      9 C         -10.6315  -17.6876   24.5377 C.ar    1  UNL1        0.0518
     10 C         -10.5751  -17.0446   23.1838 C.ar    1  UNL1        0.0178
     11 C         -11.8263  -16.9010   22.3690 C.ar    1  UNL1        0.0387
     12 C         -13.1339  -17.4005   22.9082 C.ar    1  UNL1        0.0060
     13 C         -11.7699  -16.2579   21.0149 C.ar    1  UNL1        0.1839
     14 N         -12.8892  -16.2027   20.0178 N.ar    1  UNL1       -0.1081
     15 N         -12.3955  -15.4678   18.8070 N.ar    1  UNL1       -0.0227
     16 N         -10.9710  -15.0690   19.0557 N.ar    1  UNL1       -0.0429
     17 N         -10.5844  -15.5573   20.4203 N.ar    1  UNL1       -0.2113
     18 C          -9.2471  -15.3766   21.0752 C.3     1  UNL1        0.1573
     19 C         -15.6767  -18.6968   23.8866 C.3     1  UNL1        0.0773
     20 C         -14.4979  -18.5431   24.8013 C.2     1  UNL1        0.1735
     21 O         -14.6267  -18.8888   26.2552 O.2     1  UNL1       -0.2913
     22 C          -6.3585  -15.5973   26.6286 C.3     1  UNL1        0.0745
     23 C          -6.6800  -14.6239   27.7237 C.3     1  UNL1        0.0214
     24 C          -5.1517  -15.3820   25.7642 C.3     1  UNL1        0.0369
     25 C          -5.2864  -15.3996   24.2703 C.3     1  UNL1        0.0738
     26 N          -4.7010  -16.5307   23.4778 N.3     1  UNL1       -0.2726
     27 C          -3.2679  -16.4758   23.0385 C.3     1  UNL1        0.0721
     28 C          -2.6825  -17.6068   22.2460 C.3     1  UNL1        0.0174
     29 C          -3.5304  -18.7928   21.8928 C.3     1  UNL1        0.0031
     30 C          -4.9635  -18.8477   22.3321 C.3     1  UNL1        0.0204
     31 C          -5.5488  -17.7167   23.1246 C.3     1  UNL1        0.0724
     32 C          -5.8113  -20.0337   21.9789 C.3     1  UNL1        0.0277
     33 C          -7.1545  -19.8325   21.3422 C.ar    1  UNL1       -0.0220
     34 C          -8.3971  -19.8827   22.1809 C.ar    1  UNL1       -0.0020
     35 C          -9.7403  -19.6815   21.5442 C.ar    1  UNL1        0.0293
     36 C          -9.8408  -19.4301   20.0688 C.ar    1  UNL1        0.1401
     37 F         -11.1841  -19.2289   19.4321 F       1  UNL1       -0.2042
     38 C          -8.5982  -19.3799   19.2302 C.ar    1  UNL1        0.0293
     39 C          -7.2550  -19.5811   19.8669 C.ar    1  UNL1       -0.0020
@<TRIPOS>BOND
     1    19    20    1
     2    20    21    2
     3    20     7    1
     4     7     8   ar
     5     8     9   ar
     6     9     1    1
     7     1     2   am
     8     2     3    2
     9     2     4   am
    10     4    22    1
    11    22    23    1
    12    22    24    1
    13    24    25    1
    14    25    26    1
    15    26    27    1
    16    27    28    1
    17    28    29    1
    18    29    30    1
    19    30    32    1
    20    32    33    1
    21    33    34   ar
    22    34    35   ar
    23    35    36   ar
    24    36    37    1
    25    36    38   ar
    26    38    39   ar
    27    30    31    1
    28     9    10   ar
    29    10    11   ar
    30    11    13    1
    31    13    14   ar
    32    14    15   ar
    33    15    16   ar
    34    16    17   ar
    35    17    18    1
    36    11    12   ar
    37    12     7   ar
    38    31    26    1
    39    17    13   ar
    40    39    33   ar
    41     1     5    1
    42     4     6    1
@<TRIPOS>MOLECULE
*****
 39 42 0 0 0
SMALL
GASTEIGER

@<TRIPOS>ATOM
      1 N          -4.7730  -20.2960   20.4727 N.am    1  UNL1       -0.2683
      2 C          -3.9682  -19.1948   19.8484 C.2     1  UNL1        0.3044
      3 O          -4.6583  -17.9866   19.2879 O.2     1  UNL1       -0.2525
      4 N          -2.4734  -19.3018   19.7847 N.am    1  UNL1       -0.2903
      5 H          -4.3201  -21.0890   20.8406 H       1  UNL1        0.1564
      6 H          -2.0205  -20.0948   20.1525 H       1  UNL1        0.1509
      7 C          -8.5837  -20.3026   19.3644 C.ar    1  UNL1        0.0360
      8 C          -7.0889  -20.4096   19.3007 C.ar    1  UNL1        0.0176
      9 C          -6.2678  -20.1890   20.5365 C.ar    1  UNL1        0.0518
     10 C          -6.9415  -19.8614   21.8360 C.ar    1  UNL1        0.0178
     11 C          -8.4363  -19.7544   21.8997 C.ar    1  UNL1        0.0387
     12 C          -9.2574  -19.9750   20.6639 C.ar    1  UNL1        0.0060
     13 C          -9.1101  -19.4267   23.1993 C.ar    1  UNL1        0.1839
     14 N          -9.1738  -20.3134   24.4075 N.ar    1  UNL1       -0.1081
     15 N          -9.9415  -19.5897   25.4737 N.ar    1  UNL1       -0.0227
     16 N         -10.3523  -18.2557   24.9244 N.ar    1  UNL1       -0.0429
     17 N          -9.8385  -18.1550   23.5187 N.ar    1  UNL1       -0.2113
     18 C         -10.0210  -16.9875   22.5948 C.3     1  UNL1        0.1573
     19 C          -8.8910  -21.4128   17.0357 C.3     1  UNL1        0.0773
     20 C          -9.4048  -20.5232   18.1286 C.2     1  UNL1        0.1735
     21 O         -10.7397  -19.8541   17.9858 O.2     1  UNL1       -0.2913
     22 C          -1.6686  -18.2006   19.1604 C.3     1  UNL1        0.0745
     23 C          -1.9442  -17.7785   17.7476 C.3     1  UNL1        0.0214
     24 C          -0.5882  -17.5216   19.9488 C.3     1  UNL1        0.0369
     25 C          -0.9488  -16.5443   21.0281 C.3     1  UNL1        0.0738
     26 N          -2.0740  -16.8504   21.9717 N.3     1  UNL1       -0.2726
     27 C          -2.1661  -18.2019   22.6157 C.3     1  UNL1        0.0721
     28 C          -3.2913  -18.5080   23.5592 C.3     1  UNL1        0.0174
     29 C          -4.3243  -17.4625   23.8588 C.3     1  UNL1        0.0031
     30 C          -4.2322  -16.1109   23.2148 C.3     1  UNL1        0.0204
     31 C          -3.1071  -15.8049   22.2712 C.3     1  UNL1        0.0724
     32 C          -5.2653  -15.0654   23.5143 C.3     1  UNL1        0.0277
     33 C          -6.1719  -15.2245   24.6986 C.ar    1  UNL1       -0.0220
     34 C          -7.6600  -15.2247   24.5093 C.ar    1  UNL1       -0.0020
     35 C          -8.5667  -15.3839   25.6936 C.ar    1  UNL1        0.0293
     36 C          -7.9854  -15.5428   27.0672 C.ar    1  UNL1        0.1401
     37 F          -8.8922  -15.7020   28.2515 F       1  UNL1       -0.2042
     38 C          -6.4974  -15.5427   27.2565 C.ar    1  UNL1        0.0293
     39 C          -5.5907  -15.3835   26.0722 C.ar    1  UNL1       -0.0020
@<TRIPOS>BOND
     1    19    20    1
     2    20    21    2
     3    20     7    1
     4     7     8   ar
     5     8     9   ar
     6     9     1    1
     7     1     2   am
     8     2     3    2
     9     2     4   am
    10     4    22    1
    11    22    23    1
    12    22    24    1
    13    24    25    1
    14    25    26    1
    15    26    27    1
    16    27    28    1
    17    28    29    1
    18    29    30    1
    19    30    32    1
    20    32    33    1
    21    33    34   ar
    22    34    35   ar
    23    35    36   ar
    24    36    37    1
    25    36    38   ar
    26    38    39   ar
    27    30    31    1
    28     9    10   ar
    29    10    11   ar
    30    11    13    1
    31    13    14   ar
    32    14    15   ar
    33    15    16   ar
    34    16    17   ar
    35    17    18    1
    36    11    12   ar
    37    12     7   ar
    38    31    26    1
    39    17    13   ar
    40    39    33   ar
    41     1     5    1
    42     4     6    1
@<TRIPOS>MOLECULE
*****
 39 42 0 0 0
SMALL
GASTEIGER

@<TRIPOS>ATOM
      1 N          -6.8354  -19.9155   19.8966 N.am    1  UNL1       -0.2683
      2 C          -5.4619  -19.4276   20.2511 C.2     1  UNL1        0.3044
      3 O          -5.2707  -18.5127   21.4243 O.2     1  UNL1       -0.2525
      4 N          -4.2798  -19.8547   19.4325 N.am    1  UNL1       -0.2903
      5 H          -6.9609  -20.5160   19.1266 H       1  UNL1        0.1564
      6 H          -4.4054  -20.4552   18.6626 H       1  UNL1        0.1509
      7 C          -9.3975  -19.6178   22.9127 C.ar    1  UNL1        0.0360
      8 C          -8.2154  -20.0449   22.0941 C.ar    1  UNL1        0.0176
      9 C          -8.0175  -19.4884   20.7152 C.ar    1  UNL1        0.0518
     10 C          -9.0017  -18.5047   20.1551 C.ar    1  UNL1        0.0178
     11 C         -10.1838  -18.0777   20.9737 C.ar    1  UNL1        0.0387
     12 C         -10.3817  -18.6342   22.3525 C.ar    1  UNL1        0.0060
     13 C         -11.1681  -17.0940   20.4136 C.ar    1  UNL1        0.1839
     14 N         -10.9278  -16.1662   19.2597 N.ar    1  UNL1       -0.1081
     15 N         -12.1766  -15.3642   19.0419 N.ar    1  UNL1       -0.0227
     16 N         -13.1887  -15.7964   20.0613 N.ar    1  UNL1       -0.0429
     17 N         -12.5653  -16.8655   20.9090 N.ar    1  UNL1       -0.2113
     18 C         -13.2238  -17.5805   22.0514 C.3     1  UNL1        0.1573
     19 C         -10.2636  -19.3438   25.3468 C.3     1  UNL1        0.0773
     20 C          -9.5954  -20.1743   24.2915 C.2     1  UNL1        0.1735
     21 O          -9.1251  -21.5614   24.6151 O.2     1  UNL1       -0.2913
     22 C          -2.9064  -19.3669   19.7871 C.3     1  UNL1        0.0745
     23 C          -1.9732  -20.2504   20.5608 C.3     1  UNL1        0.0214
     24 C          -2.4662  -17.9956   19.3680 C.3     1  UNL1        0.0369
     25 C          -2.0281  -17.0001   20.4010 C.3     1  UNL1        0.0738
     26 N          -2.6311  -17.0296   21.7742 N.3     1  UNL1       -0.2726
     27 C          -2.1849  -18.0614   22.7672 C.3     1  UNL1        0.0721
     28 C          -2.7878  -18.0909   24.1403 C.3     1  UNL1        0.0174
     29 C          -3.8371  -17.0886   24.5204 C.3     1  UNL1        0.0031
     30 C          -4.2833  -16.0568   23.5274 C.3     1  UNL1        0.0204
     31 C          -3.6803  -16.0273   22.1542 C.3     1  UNL1        0.0724
     32 C          -5.3325  -15.0544   23.9074 C.3     1  UNL1        0.0277
     33 C          -6.2902  -15.3570   25.0215 C.ar    1  UNL1       -0.0220
     34 C          -5.8888  -15.1053   26.4448 C.ar    1  UNL1       -0.0020
     35 C          -6.8465  -15.4079   27.5588 C.ar    1  UNL1        0.0293
     36 C          -8.2057  -15.9621   27.2498 C.ar    1  UNL1        0.1401
     37 F          -9.1634  -16.2647   28.3639 F       1  UNL1       -0.2042
     38 C          -8.6071  -16.2138   25.8266 C.ar    1  UNL1        0.0293
     39 C          -7.6494  -15.9112   24.7124 C.ar    1  UNL1       -0.0020
@<TRIPOS>BOND
     1    19    20    1
     2    20    21    2
     3    20     7    1
     4     7     8   ar
     5     8     9   ar
     6     9     1    1
     7     1     2   am
     8     2     3    2
     9     2     4   am
    10     4    22    1
    11    22    23    1
    12    22    24    1
    13    24    25    1
    14    25    26    1
    15    26    27    1
    16    27    28    1
    17    28    29    1
    18    29    30    1
    19    30    32    1
    20    32    33    1
    21    33    34   ar
    22    34    35   ar
    23    35    36   ar
    24    36    37    1
    25    36    38   ar
    26    38    39   ar
    27    30    31    1
    28     9    10   ar
    29    10    11   ar
    30    11    13    1
    31    13    14   ar
    32    14    15   ar
    33    15    16   ar
    34    16    17   ar
    35    17    18    1
    36    11    12   ar
    37    12     7   ar
    38    31    26    1
    39    17    13   ar
    40    39    33   ar
    41     1     5    1
    42     4     6    1
@<TRIPOS>MOLECULE
*****
 39 42 0 0 0
SMALL
GASTEIGER

@<TRIPOS>ATOM
      1 N          -9.5392  -17.8794   25.4874 N.am    1  UNL1       -0.2683
      2 C          -8.6973  -16.6763   25.7940 C.2     1  UNL1        0.3044
      3 O          -9.0852  -15.3319   25.2535 O.2     1  UNL1       -0.2525
      4 N          -7.4675  -16.8177   26.6411 N.am    1  UNL1       -0.2903
      5 H          -9.2846  -18.7617   25.8421 H       1  UNL1        0.1564
      6 H          -7.2129  -17.7001   26.9958 H       1  UNL1        0.1509
      7 C         -13.3192  -18.0982   24.2983 C.ar    1  UNL1        0.0360
      8 C         -12.0893  -18.2395   25.1454 C.ar    1  UNL1        0.0176
      9 C         -10.7690  -17.7379   24.6403 C.ar    1  UNL1        0.0518
     10 C         -10.6785  -17.0950   23.2881 C.ar    1  UNL1        0.0178
     11 C         -11.9083  -16.9536   22.4411 C.ar    1  UNL1        0.0387
     12 C         -13.2286  -17.4552   22.9462 C.ar    1  UNL1        0.0060
     13 C         -11.8178  -16.3105   21.0889 C.ar    1  UNL1        0.1839
     14 N         -12.9160  -16.2435   20.0692 N.ar    1  UNL1       -0.1081
     15 N         -12.3902  -15.5133   18.8691 N.ar    1  UNL1       -0.0227
     16 N         -10.9671  -15.1289   19.1471 N.ar    1  UNL1       -0.0429
     17 N         -10.6134  -15.6217   20.5190 N.ar    1  UNL1       -0.2113
     18 C          -9.2880  -15.4548   21.2011 C.3     1  UNL1        0.1573
     19 C         -15.7932  -18.7578   23.8580 C.3     1  UNL1        0.0773
     20 C         -14.6395  -18.5998   24.8034 C.2     1  UNL1        0.1735
     21 O         -14.8061  -18.9433   26.2540 O.2     1  UNL1       -0.2913
     22 C          -6.6256  -15.6147   26.9477 C.3     1  UNL1        0.0745
     23 C          -7.0081  -14.6984   28.0721 C.3     1  UNL1        0.0214
     24 C          -5.4013  -15.3279   26.1299 C.3     1  UNL1        0.0369
     25 C          -5.5113  -15.1807   24.6412 C.3     1  UNL1        0.0738
     26 N          -5.6069  -16.3995   23.7720 N.3     1  UNL1       -0.2726
     27 C          -6.9475  -16.8863   23.3077 C.3     1  UNL1        0.0721
     28 C          -7.0431  -18.1050   22.4386 C.3     1  UNL1        0.0174
     29 C          -5.7980  -18.8370   22.0337 C.3     1  UNL1        0.0031
     30 C          -4.4573  -18.3502   22.4980 C.3     1  UNL1        0.0204
     31 C          -4.3617  -17.1314   23.3671 C.3     1  UNL1        0.0724
     32 C          -3.2122  -19.0821   22.0931 C.3     1  UNL1        0.0277
     33 C          -2.5183  -18.7295   20.8109 C.ar    1  UNL1       -0.0220
     34 C          -1.0793  -18.3062   20.8286 C.ar    1  UNL1       -0.0020
     35 C          -0.3854  -17.9535   19.5464 C.ar    1  UNL1        0.0293
     36 C          -1.1304  -18.0242   18.2464 C.ar    1  UNL1        0.1401
     37 F          -0.4364  -17.6715   16.9642 F       1  UNL1       -0.2042
     38 C          -2.5693  -18.4474   18.2286 C.ar    1  UNL1        0.0293
     39 C          -3.2633  -18.8001   19.5109 C.ar    1  UNL1       -0.0020
@<TRIPOS>BOND
     1    19    20    1
     2    20    21    2
     3    20     7    1
     4     7     8   ar
     5     8     9   ar
     6     9     1    1
     7     1     2   am
     8     2     3    2
     9     2     4   am
    10     4    22    1
    11    22    23    1
    12    22    24    1
    13    24    25    1
    14    25    26    1
    15    26    27    1
    16    27    28    1
    17    28    29    1
    18    29    30    1
    19    30    32    1
    20    32    33    1
    21    33    34   ar
    22    34    35   ar
    23    35    36   ar
    24    36    37    1
    25    36    38   ar
    26    38    39   ar
    27    30    31    1
    28     9    10   ar
    29    10    11   ar
    30    11    13    1
    31    13    14   ar
    32    14    15   ar
    33    15    16   ar
    34    16    17   ar
    35    17    18    1
    36    11    12   ar
    37    12     7   ar
    38    31    26    1
    39    17    13   ar
    40    39    33   ar
    41     1     5    1
    42     4     6    1
@<TRIPOS>MOLECULE
*****
 39 42 0 0 0
SMALL
GASTEIGER

@<TRIPOS>ATOM
      1 N           5.1849   -3.5197   32.8905 N.am    1  UNL1       -0.2683
      2 C           6.3474   -3.8198   31.9915 C.2     1  UNL1        0.3044
      3 O           6.9566   -2.7276   31.1632 O.2     1  UNL1       -0.2525
      4 N           6.9009   -5.2122   31.9206 N.am    1  UNL1       -0.2903
      5 H           4.7851   -4.2365   33.4341 H       1  UNL1        0.1564
      6 H           6.5011   -5.9290   32.4643 H       1  UNL1        0.1509
      7 C           4.2767    0.0891   34.2697 C.ar    1  UNL1        0.0360
      8 C           4.8301   -1.3033   34.1989 C.ar    1  UNL1        0.0176
      9 C           4.6314   -2.1272   32.9613 C.ar    1  UNL1        0.0518
     10 C           3.8794   -1.5589   31.7945 C.ar    1  UNL1        0.0178
     11 C           3.3260   -0.1665   31.8654 C.ar    1  UNL1        0.0387
     12 C           3.5247    0.6575   33.1029 C.ar    1  UNL1        0.0060
     13 C           2.5740    0.4019   30.6986 C.ar    1  UNL1        0.1839
     14 N           1.2467   -0.0754   30.1880 N.ar    1  UNL1       -0.1081
     15 N           0.8695    0.7751   29.0114 N.ar    1  UNL1       -0.0227
     16 N           1.9637    1.7781   28.7948 N.ar    1  UNL1       -0.0429
     17 N           3.0170    1.5475   29.8375 N.ar    1  UNL1       -0.2113
     18 C           4.2900    2.3258   29.9921 C.3     1  UNL1        0.1573
     19 C           4.5857    0.2430   36.8447 C.3     1  UNL1        0.0773
     20 C           4.4753    0.9131   35.5073 C.2     1  UNL1        0.1735
     21 O           4.5636    2.4071   35.4074 O.2     1  UNL1       -0.2913
     22 C           8.0635   -5.5123   31.0216 C.3     1  UNL1        0.0745
     23 C           9.4453   -5.0786   31.4123 C.3     1  UNL1        0.0214
     24 C           7.8443   -6.2462   29.7319 C.3     1  UNL1        0.0369
     25 C           7.0638   -5.6013   28.6252 C.3     1  UNL1        0.0738
     26 N           7.3826   -5.9243   27.1955 N.3     1  UNL1       -0.2726
     27 C           7.6193   -7.3469   26.7828 C.3     1  UNL1        0.0721
     28 C           7.9381   -7.6699   25.3532 C.3     1  UNL1        0.0174
     29 C           8.0204   -6.5703   24.3362 C.3     1  UNL1        0.0031
     30 C           7.7837   -5.1478   24.7488 C.3     1  UNL1        0.0204
     31 C           7.4649   -4.8248   26.1785 C.3     1  UNL1        0.0724
     32 C           7.8660   -4.0483   23.7319 C.3     1  UNL1        0.0277
     33 C           6.7916   -3.9036   22.6952 C.ar    1  UNL1       -0.0220
     34 C           7.1365   -4.0021   21.2387 C.ar    1  UNL1       -0.0020
     35 C           6.0621   -3.8574   20.2021 C.ar    1  UNL1        0.0293
     36 C           4.6427   -3.6142   20.6219 C.ar    1  UNL1        0.1401
     37 F           3.5683   -3.4695   19.5851 F       1  UNL1       -0.2042
     38 C           4.2978   -3.5156   22.0783 C.ar    1  UNL1        0.0293
     39 C           5.3722   -3.6603   23.1150 C.ar    1  UNL1       -0.0020
@<TRIPOS>BOND
     1    19    20    1
     2    20    21    2
     3    20     7    1
     4     7     8   ar
     5     8     9   ar
     6     9     1    1
     7     1     2   am
     8     2     3    2
     9     2     4   am
    10     4    22    1
    11    22    23    1
    12    22    24    1
    13    24    25    1
    14    25    26    1
    15    26    27    1
    16    27    28    1
    17    28    29    1
    18    29    30    1
    19    30    32    1
    20    32    33    1
    21    33    34   ar
    22    34    35   ar
    23    35    36   ar
    24    36    37    1
    25    36    38   ar
    26    38    39   ar
    27    30    31    1
    28     9    10   ar
    29    10    11   ar
    30    11    13    1
    31    13    14   ar
    32    14    15   ar
    33    15    16   ar
    34    16    17   ar
    35    17    18    1
    36    11    12   ar
    37    12     7   ar
    38    31    26    1
    39    17    13   ar
    40    39    33   ar
    41     1     5    1
    42     4     6    1
@<TRIPOS>MOLECULE
*****
 39 42 0 0 0
SMALL
GASTEIGER

@<TRIPOS>ATOM
      1 N           5.0431   -3.4053   32.9333 N.am    1  UNL1       -0.2683
      2 C           6.2201   -3.7110   32.0550 C.2     1  UNL1        0.3044
      3 O           6.9510   -2.5971   31.3658 O.2     1  UNL1       -0.2525
      4 N           6.6661   -5.1306   31.8661 N.am    1  UNL1       -0.2903
      5 H           4.5634   -4.1363   33.3857 H       1  UNL1        0.1564
      6 H           6.1864   -5.8617   32.3185 H       1  UNL1        0.1509
      7 C           3.4385    0.1502   32.2023 C.ar    1  UNL1        0.0360
      8 C           3.8846   -1.2694   32.0134 C.ar    1  UNL1        0.0176
      9 C           4.5971   -1.9856   33.1222 C.ar    1  UNL1        0.0518
     10 C           4.8636   -1.2821   34.4199 C.ar    1  UNL1        0.0178
     11 C           4.4176    0.1375   34.6088 C.ar    1  UNL1        0.0387
     12 C           3.7051    0.8536   33.5000 C.ar    1  UNL1        0.0060
     13 C           4.6841    0.8411   35.9065 C.ar    1  UNL1        0.1839
     14 N           3.8975    0.6815   37.1737 N.ar    1  UNL1       -0.1081
     15 N           4.5112    1.5694   38.2152 N.ar    1  UNL1       -0.0227
     16 N           5.6771    2.2779   37.5917 N.ar    1  UNL1       -0.0429
     17 N           5.7840    1.8278   36.1649 N.ar    1  UNL1       -0.2113
     18 C           6.8105    2.2842   35.1709 C.3     1  UNL1        0.1573
     19 C           3.4391    1.9231   30.3032 C.3     1  UNL1        0.0773
     20 C           2.7260    0.8663   31.0935 C.2     1  UNL1        0.1735
     21 O           1.3004    0.5256   30.7749 O.2     1  UNL1       -0.2913
     22 C           7.8431   -5.4364   30.9879 C.3     1  UNL1        0.0745
     23 C           9.2239   -5.0394   31.4191 C.3     1  UNL1        0.0214
     24 C           7.6393   -6.1392   29.6785 C.3     1  UNL1        0.0369
     25 C           7.0038   -5.4145   28.5292 C.3     1  UNL1        0.0738
     26 N           7.3421   -5.8006   27.1198 N.3     1  UNL1       -0.2726
     27 C           7.5808   -7.2403   26.7733 C.3     1  UNL1        0.0721
     28 C           7.9191   -7.6264   25.3639 C.3     1  UNL1        0.0174
     29 C           8.0187   -6.5727   24.3010 C.3     1  UNL1        0.0031
     30 C           7.7799   -5.1330   24.6474 C.3     1  UNL1        0.0204
     31 C           7.4417   -4.7469   26.0568 C.3     1  UNL1        0.0724
     32 C           7.8795   -4.0793   23.5845 C.3     1  UNL1        0.0277
     33 C           6.7788   -3.9235   22.5774 C.ar    1  UNL1       -0.0220
     34 C           7.0808   -4.0380   21.1125 C.ar    1  UNL1       -0.0020
     35 C           5.9801   -3.8822   20.1055 C.ar    1  UNL1        0.0293
     36 C           4.5774   -3.6120   20.5632 C.ar    1  UNL1        0.1401
     37 F           3.4767   -3.4562   19.5561 F       1  UNL1       -0.2042
     38 C           4.2755   -3.4975   22.0280 C.ar    1  UNL1        0.0293
     39 C           5.3762   -3.6533   23.0351 C.ar    1  UNL1       -0.0020
@<TRIPOS>BOND
     1    19    20    1
     2    20    21    2
     3    20     7    1
     4     7     8   ar
     5     8     9   ar
     6     9     1    1
     7     1     2   am
     8     2     3    2
     9     2     4   am
    10     4    22    1
    11    22    23    1
    12    22    24    1
    13    24    25    1
    14    25    26    1
    15    26    27    1
    16    27    28    1
    17    28    29    1
    18    29    30    1
    19    30    32    1
    20    32    33    1
    21    33    34   ar
    22    34    35   ar
    23    35    36   ar
    24    36    37    1
    25    36    38   ar
    26    38    39   ar
    27    30    31    1
    28     9    10   ar
    29    10    11   ar
    30    11    13    1
    31    13    14   ar
    32    14    15   ar
    33    15    16   ar
    34    16    17   ar
    35    17    18    1
    36    11    12   ar
    37    12     7   ar
    38    31    26    1
    39    17    13   ar
    40    39    33   ar
    41     1     5    1
    42     4     6    1
@<TRIPOS>MOLECULE
*****
 39 42 0 0 0
SMALL
GASTEIGER

@<TRIPOS>ATOM
      1 N          -0.3075    0.7916   20.7839 N.am    1  UNL1       -0.2683
      2 C          -0.4754    2.2724   20.6135 C.2     1  UNL1        0.3044
      3 O           0.6999    3.1864   20.7964 O.2     1  UNL1       -0.2525
      4 N          -1.8184    2.8391   20.2602 N.am    1  UNL1       -0.2903
      5 H          -1.0788    0.1917   20.6639 H       1  UNL1        0.1564
      6 H          -2.5898    2.2393   20.1402 H       1  UNL1        0.1509
      7 C           2.8014   -0.4298   22.9271 C.ar    1  UNL1        0.0360
      8 C           1.4583    0.1369   22.5738 C.ar    1  UNL1        0.0176
      9 C           1.0357    0.2248   21.1372 C.ar    1  UNL1        0.0518
     10 C           1.9561   -0.2541   20.0540 C.ar    1  UNL1        0.0178
     11 C           3.2992   -0.8208   20.4074 C.ar    1  UNL1        0.0387
     12 C           3.7218   -0.9087   21.8439 C.ar    1  UNL1        0.0060
     13 C           4.2198   -1.2997   19.3241 C.ar    1  UNL1        0.1839
     14 N           5.2146   -0.4611   18.5779 N.ar    1  UNL1       -0.1081
     15 N           5.9168   -1.3443   17.5895 N.ar    1  UNL1       -0.0227
     16 N           5.3558   -2.7289   17.7250 N.ar    1  UNL1       -0.0429
     17 N           4.3070   -2.7013   18.7970 N.ar    1  UNL1       -0.2113
     18 C           3.4891   -3.8702   19.2605 C.3     1  UNL1        0.1573
     19 C           2.7237    0.4901   25.3556 C.3     1  UNL1        0.0773
     20 C           3.2240   -0.5177   24.3637 C.2     1  UNL1        0.1735
     21 O           4.1470   -1.6133   24.8083 O.2     1  UNL1       -0.2913
     22 C          -1.9863    4.3199   20.0898 C.3     1  UNL1        0.0745
     23 C          -1.7638    4.9504   18.7470 C.3     1  UNL1        0.0214
     24 C          -2.3767    5.1703   21.2621 C.3     1  UNL1        0.0369
     25 C          -3.5540    4.7860   22.1085 C.3     1  UNL1        0.0738
     26 N          -3.3454    4.3402   23.5255 N.3     1  UNL1       -0.2726
     27 C          -4.3422    4.7114   24.5830 C.3     1  UNL1        0.0721
     28 C          -4.1335    4.2656   25.9999 C.3     1  UNL1        0.0174
     29 C          -2.9280    3.4485   26.3593 C.3     1  UNL1        0.0031
     30 C          -1.9312    3.0773   25.3017 C.3     1  UNL1        0.0204
     31 C          -2.1398    3.5231   23.8848 C.3     1  UNL1        0.0724
     32 C          -0.7256    2.2603   25.6611 C.3     1  UNL1        0.0277
     33 C          -0.3312    2.0979   27.0991 C.ar    1  UNL1       -0.0220
     34 C           0.4811    3.1602   27.7787 C.ar    1  UNL1       -0.0020
     35 C           0.8755    2.9978   29.2167 C.ar    1  UNL1        0.0293
     36 C           0.4578    1.7730   29.9753 C.ar    1  UNL1        0.1401
     37 F           0.8523    1.6107   31.4134 F       1  UNL1       -0.2042
     38 C          -0.3544    0.7107   29.2958 C.ar    1  UNL1        0.0293
     39 C          -0.7489    0.8731   27.8577 C.ar    1  UNL1       -0.0020
@<TRIPOS>BOND
     1    19    20    1
     2    20    21    2
     3    20     7    1
     4     7     8   ar
     5     8     9   ar
     6     9     1    1
     7     1     2   am
     8     2     3    2
     9     2     4   am
    10     4    22    1
    11    22    23    1
    12    22    24    1
    13    24    25    1
    14    25    26    1
    15    26    27    1
    16    27    28    1
    17    28    29    1
    18    29    30    1
    19    30    32    1
    20    32    33    1
    21    33    34   ar
    22    34    35   ar
    23    35    36   ar
    24    36    37    1
    25    36    38   ar
    26    38    39   ar
    27    30    31    1
    28     9    10   ar
    29    10    11   ar
    30    11    13    1
    31    13    14   ar
    32    14    15   ar
    33    15    16   ar
    34    16    17   ar
    35    17    18    1
    36    11    12   ar
    37    12     7   ar
    38    31    26    1
    39    17    13   ar
    40    39    33   ar
    41     1     5    1
    42     4     6    1
@<TRIPOS>MOLECULE
*****
 39 42 0 0 0
SMALL
GASTEIGER

@<TRIPOS>ATOM
      1 N          -2.7515    4.5813   24.3885 N.am    1  UNL1       -0.2683
      2 C          -3.9320    4.1821   23.5536 C.2     1  UNL1        0.3044
      3 O          -4.0451    2.7783   23.0372 O.2     1  UNL1       -0.2525
      4 N          -4.9994    5.1867   23.2352 N.am    1  UNL1       -0.2903
      5 H          -2.6772    5.5026   24.7274 H       1  UNL1        0.1564
      6 H          -4.9252    6.1080   23.5741 H       1  UNL1        0.1509
      7 C           0.3979    2.2004   23.9848 C.ar    1  UNL1        0.0360
      8 C          -0.6695    3.2050   23.6665 C.ar    1  UNL1        0.0176
      9 C          -1.6840    3.5766   24.7069 C.ar    1  UNL1        0.0518
     10 C          -1.6312    2.9437   26.0658 C.ar    1  UNL1        0.0178
     11 C          -0.5638    1.9391   26.3842 C.ar    1  UNL1        0.0387
     12 C           0.4508    1.5674   25.3437 C.ar    1  UNL1        0.0060
     13 C          -0.5109    1.3061   27.7431 C.ar    1  UNL1        0.1839
     14 N          -1.0172   -0.0601   28.0996 N.ar    1  UNL1       -0.1081
     15 N          -0.7617   -0.2825   29.5609 N.ar    1  UNL1       -0.0227
     16 N          -0.0974    0.9464   30.1074 N.ar    1  UNL1       -0.0429
     17 N           0.0576    1.9281   28.9840 N.ar    1  UNL1       -0.2113
     18 C           0.6731    3.2924   29.0839 C.3     1  UNL1        0.1573
     19 C           2.3645    2.8634   22.4218 C.3     1  UNL1        0.0773
     20 C           1.4125    1.8287   22.9444 C.2     1  UNL1        0.1735
     21 O           1.4750    0.4224   22.4264 O.2     1  UNL1       -0.2913
     22 C          -6.1799    4.7875   22.4003 C.3     1  UNL1        0.0745
     23 C          -7.4329    4.2935   23.0607 C.3     1  UNL1        0.0214
     24 C          -6.1076    4.8824   20.9051 C.3     1  UNL1        0.0369
     25 C          -5.6514    3.7019   20.0999 C.3     1  UNL1        0.0738
     26 N          -4.4176    3.8036   19.2527 N.3     1  UNL1       -0.2726
     27 C          -4.5353    3.8409   17.7578 C.3     1  UNL1        0.0721
     28 C          -3.3016    3.9426   16.9107 C.3     1  UNL1        0.0174
     29 C          -1.9502    4.0070   17.5585 C.3     1  UNL1        0.0031
     30 C          -1.8326    3.9697   19.0534 C.3     1  UNL1        0.0204
     31 C          -3.0662    3.8680   19.9005 C.3     1  UNL1        0.0724
     32 C          -0.4812    4.0341   19.7012 C.3     1  UNL1        0.0277
     33 C           0.6119    3.1117   19.2492 C.ar    1  UNL1       -0.0220
     34 C           1.9192    3.6737   18.7747 C.ar    1  UNL1       -0.0020
     35 C           3.0123    2.7513   18.3228 C.ar    1  UNL1        0.0293
     36 C           2.7981    1.2668   18.3454 C.ar    1  UNL1        0.1401
     37 F           3.8913    0.3444   17.8935 F       1  UNL1       -0.2042
     38 C           1.4909    0.7048   18.8199 C.ar    1  UNL1        0.0293
     39 C           0.3977    1.6272   19.2719 C.ar    1  UNL1       -0.0020
@<TRIPOS>BOND
     1    19    20    1
     2    20    21    2
     3    20     7    1
     4     7     8   ar
     5     8     9   ar
     6     9     1    1
     7     1     2   am
     8     2     3    2
     9     2     4   am
    10     4    22    1
    11    22    23    1
    12    22    24    1
    13    24    25    1
    14    25    26    1
    15    26    27    1
    16    27    28    1
    17    28    29    1
    18    29    30    1
    19    30    32    1
    20    32    33    1
    21    33    34   ar
    22    34    35   ar
    23    35    36   ar
    24    36    37    1
    25    36    38   ar
    26    38    39   ar
    27    30    31    1
    28     9    10   ar
    29    10    11   ar
    30    11    13    1
    31    13    14   ar
    32    14    15   ar
    33    15    16   ar
    34    16    17   ar
    35    17    18    1
    36    11    12   ar
    37    12     7   ar
    38    31    26    1
    39    17    13   ar
    40    39    33   ar
    41     1     5    1
    42     4     6    1
