@<TRIPOS>MOLECULE
*****
 35 39 0 0 0
SMALL
GASTEIGER

@<TRIPOS>ATOM
      1 C           7.3412   -5.4414   24.2229 C.ar    1  UNL1        0.2299
      2 N           6.5303   -4.2600   24.6663 N.ar    1  UNL1       -0.2102
      3 C           6.3528   -3.3505   23.4868 C.ar    1  UNL1        0.1186
      4 C           7.0541   -3.9699   22.3143 C.ar    1  UNL1        0.1645
      5 O           7.6649   -5.2621   22.7692 O.2     1  UNL1       -0.4360
      6 O           8.1646   -7.1154   23.7347 O.3     1  UNL1       -0.3779
      7 C           7.7556   -6.5989   25.0823 C.3     1  UNL1        0.1587
      8 C           7.2026   -5.6804   26.1314 C.3     1  UNL1        0.0531
      9 C           7.2062   -6.0988   27.5719 C.3     1  UNL1        0.0715
     10 N           7.7627   -7.4357   27.9632 N.3     1  UNL1       -0.2973
     11 C           8.3156   -8.3541   26.9141 C.3     1  UNL1        0.0715
     12 C           8.3120   -7.9358   25.4736 C.3     1  UNL1        0.0531
     13 H           7.9522   -6.4546   23.0571 H       1  UNL1        0.2109
     14 H           7.0110   -7.9419   28.4312 H       1  UNL1        0.1233
     15 C           5.6054   -2.0500   23.4807 C.ar    1  UNL1        0.0209
     16 C           6.3523   -0.7551   23.6040 C.ar    1  UNL1        0.0039
     17 C           5.6048    0.5454   23.5979 C.ar    1  UNL1        0.0297
     18 C           4.1104    0.5509   23.4685 C.ar    1  UNL1        0.1401
     19 F           3.3630    1.8515   23.4624 F       1  UNL1       -0.2042
     20 C           3.3635   -0.7440   23.3452 C.ar    1  UNL1        0.0297
     21 C           4.1110   -2.0444   23.3513 C.ar    1  UNL1        0.0039
     22 C           7.1310   -3.3975   20.9300 C.ar    1  UNL1        0.0404
     23 C           8.4590   -3.0066   20.3527 C.ar    1  UNL1        0.0239
     24 C           8.5359   -2.4342   18.9683 C.ar    1  UNL1        0.1004
     25 N           7.2847   -2.2528   18.1612 N.ar    1  UNL1       -0.2294
     26 C           5.9565   -2.6438   18.7384 C.ar    1  UNL1        0.1286
     27 C           5.8797   -3.2161   20.1228 C.ar    1  UNL1        0.0372
     28 N           4.7053   -2.4624   17.9313 N.pl3   1  UNL1       -0.3197
     29 H           4.5885   -2.9550   17.0870 H       1  UNL1        0.1481
     30 C           3.6320   -1.5304   18.4106 C.3     1  UNL1        0.0704
     31 C           3.3895   -0.2347   17.6950 C.3     1  UNL1        0.0195
     32 C           2.3163    0.6973   18.1743 C.3     1  UNL1        0.0017
     33 C           1.4856    0.3335   19.3691 C.3     1  UNL1        0.0001
     34 C           1.7282   -0.9623   20.0847 C.3     1  UNL1        0.0017
     35 C           2.8014   -1.8943   19.6054 C.3     1  UNL1        0.0195
@<TRIPOS>BOND
     1     6     7    1
     2     7     1    1
     3     1     2   ar
     4     2     3   ar
     5     3    15    1
     6    15    16   ar
     7    16    17   ar
     8    17    18   ar
     9    18    19    1
    10    18    20   ar
    11    20    21   ar
    12     3     4   ar
    13     4    22    1
    14    22    23   ar
    15    23    24   ar
    16    24    25   ar
    17    25    26   ar
    18    26    28    1
    19    28    30    1
    20    30    31    1
    21    31    32    1
    22    32    33    1
    23    33    34    1
    24    34    35    1
    25    26    27   ar
    26     4     5   ar
    27     7     8    1
    28     8     9    1
    29     9    10    1
    30    10    11    1
    31    11    12    1
    32    12     7    1
    33     5     1   ar
    34    21    15   ar
    35    27    22   ar
    36    35    30    1
    37     6    13    1
    38    28    29    1
    39    10    14    1
@<TRIPOS>MOLECULE
*****
 35 39 0 0 0
SMALL
GASTEIGER

@<TRIPOS>ATOM
      1 C         -13.4660   -6.3236   18.8924 C.ar    1  UNL1        0.2299
      2 N         -14.1843   -7.4955   18.2918 N.ar    1  UNL1       -0.2102
      3 C         -15.6585   -7.2591   18.4360 C.ar    1  UNL1        0.1186
      4 C         -15.8513   -5.9410   19.1257 C.ar    1  UNL1        0.1645
      5 O         -14.4963   -5.3629   19.4077 O.2     1  UNL1       -0.4360
      6 O         -12.0626   -7.6409   19.0105 O.3     1  UNL1       -0.3779
      7 C         -11.9785   -6.1439   18.9648 C.3     1  UNL1        0.1587
      8 C         -12.4111   -4.7093   18.8940 C.3     1  UNL1        0.0531
      9 C         -11.3853   -3.6150   18.9115 C.3     1  UNL1        0.0715
     10 N          -9.9271   -3.9553   18.9999 N.3     1  UNL1       -0.2973
     11 C          -9.4946   -5.3898   19.0707 C.3     1  UNL1        0.0715
     12 C         -10.5203   -6.4841   19.0532 C.3     1  UNL1        0.0531
     13 H         -12.9926   -7.9138   18.9706 H       1  UNL1        0.2109
     14 H          -9.5682   -3.4978   19.8379 H       1  UNL1        0.1233
     15 C         -16.7486   -8.1791   17.9719 C.ar    1  UNL1        0.0209
     16 C         -17.5202   -7.8593   16.7261 C.ar    1  UNL1        0.0039
     17 C         -18.6103   -8.7793   16.2621 C.ar    1  UNL1        0.0297
     18 C         -18.9286  -10.0192   17.0439 C.ar    1  UNL1        0.1401
     19 F         -20.0187  -10.9393   16.5799 F       1  UNL1       -0.2042
     20 C         -18.1569  -10.3391   18.2898 C.ar    1  UNL1        0.0297
     21 C         -17.0669   -9.4190   18.7538 C.ar    1  UNL1        0.0039
     22 C         -17.1680   -5.3117   19.4724 C.ar    1  UNL1        0.0404
     23 C         -18.4301   -6.1178   19.3876 C.ar    1  UNL1        0.0239
     24 C         -19.7468   -5.4884   19.7344 C.ar    1  UNL1        0.1004
     25 N         -19.8014   -4.0529   20.1659 N.ar    1  UNL1       -0.2294
     26 C         -18.5392   -3.2466   20.2507 C.ar    1  UNL1        0.1286
     27 C         -17.2226   -3.8761   19.9039 C.ar    1  UNL1        0.0372
     28 N         -18.5938   -1.8112   20.6822 N.pl3   1  UNL1       -0.3197
     29 H         -19.0825   -1.5611   21.4994 H       1  UNL1        0.1481
     30 C         -17.9036   -0.7566   19.8687 C.3     1  UNL1        0.0704
     31 C         -18.3417   -0.4907   18.4590 C.3     1  UNL1        0.0195
     32 C         -17.6516    0.5638   17.6454 C.3     1  UNL1        0.0017
     33 C         -16.5234    1.3523   18.2416 C.3     1  UNL1        0.0001
     34 C         -16.0854    1.0864   19.6514 C.3     1  UNL1        0.0017
     35 C         -16.7755    0.0319   20.4649 C.3     1  UNL1        0.0195
@<TRIPOS>BOND
     1     6     7    1
     2     7     1    1
     3     1     2   ar
     4     2     3   ar
     5     3    15    1
     6    15    16   ar
     7    16    17   ar
     8    17    18   ar
     9    18    19    1
    10    18    20   ar
    11    20    21   ar
    12     3     4   ar
    13     4    22    1
    14    22    23   ar
    15    23    24   ar
    16    24    25   ar
    17    25    26   ar
    18    26    28    1
    19    28    30    1
    20    30    31    1
    21    31    32    1
    22    32    33    1
    23    33    34    1
    24    34    35    1
    25    26    27   ar
    26     4     5   ar
    27     7     8    1
    28     8     9    1
    29     9    10    1
    30    10    11    1
    31    11    12    1
    32    12     7    1
    33     5     1   ar
    34    21    15   ar
    35    27    22   ar
    36    35    30    1
    37     6    13    1
    38    28    29    1
    39    10    14    1
@<TRIPOS>MOLECULE
*****
 35 39 0 0 0
SMALL
GASTEIGER

@<TRIPOS>ATOM
      1 C         -11.6949  -18.0466   23.2097 C.ar    1  UNL1        0.2299
      2 N         -10.8465  -17.1291   24.0394 N.ar    1  UNL1       -0.2102
      3 C          -9.4202  -17.2995   23.6074 C.ar    1  UNL1        0.1186
      4 C          -9.3872  -18.3223   22.5107 C.ar    1  UNL1        0.1645
      5 O         -10.7930  -18.7841   22.2649 O.2     1  UNL1       -0.4360
      6 O         -13.0412  -17.9799   21.8307 O.3     1  UNL1       -0.3779
      7 C         -13.1839  -18.1997   23.3076 C.3     1  UNL1        0.1587
      8 C         -12.8094  -18.3663   24.7506 C.3     1  UNL1        0.0531
      9 C         -13.8744  -18.6098   25.7785 C.3     1  UNL1        0.0715
     10 N         -15.3138  -18.6866   25.3634 N.3     1  UNL1       -0.2973
     11 C         -15.6882  -18.5199   23.9206 C.3     1  UNL1        0.0715
     12 C         -14.6233  -18.2765   22.8926 C.3     1  UNL1        0.0531
     13 H         -12.1040  -17.8613   21.6105 H       1  UNL1        0.2109
     14 H         -15.8088  -17.9608   25.8818 H       1  UNL1        0.1233
     15 C          -8.2350  -16.5744   24.1728 C.ar    1  UNL1        0.0209
     16 C          -7.2296  -15.9485   23.2523 C.ar    1  UNL1        0.0039
     17 C          -6.0445  -15.2234   23.8177 C.ar    1  UNL1        0.0297
     18 C          -5.8648  -15.1242   25.3036 C.ar    1  UNL1        0.1401
     19 F          -4.6796  -14.3991   25.8690 F       1  UNL1       -0.2042
     20 C          -6.8703  -15.7501   26.2241 C.ar    1  UNL1        0.0297
     21 C          -8.0554  -16.4751   25.6587 C.ar    1  UNL1        0.0039
     22 C          -8.1631  -18.7997   21.7868 C.ar    1  UNL1        0.0404
     23 C          -8.2779  -19.3309   20.3888 C.ar    1  UNL1        0.0239
     24 C          -7.0539  -19.8082   19.6650 C.ar    1  UNL1        0.1004
     25 N          -5.7150  -19.7543   20.3392 N.ar    1  UNL1       -0.2294
     26 C          -5.6002  -19.2230   21.7373 C.ar    1  UNL1        0.1286
     27 C          -6.8243  -18.7457   22.4611 C.ar    1  UNL1        0.0372
     28 N          -4.2614  -19.1690   22.4115 N.pl3   1  UNL1       -0.3197
     29 H          -4.1288  -19.6153   23.2790 H       1  UNL1        0.1481
     30 C          -3.1246  -18.4351   21.7641 C.3     1  UNL1        0.0704
     31 C          -2.8455  -17.0084   22.1340 C.3     1  UNL1        0.0195
     32 C          -1.7088  -16.2745   21.4866 C.3     1  UNL1        0.0017
     33 C          -0.8511  -16.9671   20.4695 C.3     1  UNL1        0.0001
     34 C          -1.1302  -18.3938   20.0996 C.3     1  UNL1        0.0017
     35 C          -2.2670  -19.1277   20.7470 C.3     1  UNL1        0.0195
@<TRIPOS>BOND
     1     6     7    1
     2     7     1    1
     3     1     2   ar
     4     2     3   ar
     5     3    15    1
     6    15    16   ar
     7    16    17   ar
     8    17    18   ar
     9    18    19    1
    10    18    20   ar
    11    20    21   ar
    12     3     4   ar
    13     4    22    1
    14    22    23   ar
    15    23    24   ar
    16    24    25   ar
    17    25    26   ar
    18    26    28    1
    19    28    30    1
    20    30    31    1
    21    31    32    1
    22    32    33    1
    23    33    34    1
    24    34    35    1
    25    26    27   ar
    26     4     5   ar
    27     7     8    1
    28     8     9    1
    29     9    10    1
    30    10    11    1
    31    11    12    1
    32    12     7    1
    33     5     1   ar
    34    21    15   ar
    35    27    22   ar
    36    35    30    1
    37     6    13    1
    38    28    29    1
    39    10    14    1
@<TRIPOS>MOLECULE
*****
 35 39 0 0 0
SMALL
GASTEIGER

@<TRIPOS>ATOM
      1 C           6.9325   -4.9379   23.9670 C.ar    1  UNL1        0.2299
      2 N           6.6751   -4.7224   22.5050 N.ar    1  UNL1       -0.2102
      3 C           5.8644   -3.4691   22.3569 C.ar    1  UNL1        0.1186
      4 C           5.6207   -2.9100   23.7273 C.ar    1  UNL1        0.1645
      5 O           6.2808   -3.8177   24.7224 O.2     1  UNL1       -0.4360
      6 O           8.0184   -6.2853   23.1163 O.3     1  UNL1       -0.3779
      7 C           7.7058   -6.0740   24.5681 C.3     1  UNL1        0.1587
      8 C           7.1245   -5.4680   25.8111 C.3     1  UNL1        0.0531
      9 C           7.4252   -6.0716   27.1510 C.3     1  UNL1        0.0715
     10 N           8.3071   -7.2811   27.2479 N.3     1  UNL1       -0.2973
     11 C           8.8882   -7.8871   26.0049 C.3     1  UNL1        0.0715
     12 C           8.5876   -7.2835   24.6650 C.3     1  UNL1        0.0531
     13 H           7.5734   -5.6048   22.5873 H       1  UNL1        0.2109
     14 H           7.7574   -8.0107   27.7018 H       1  UNL1        0.1233
     15 C           5.3820   -2.8786   21.0651 C.ar    1  UNL1        0.0209
     16 C           6.0666   -1.6749   20.4887 C.ar    1  UNL1        0.0039
     17 C           5.5842   -1.0845   19.1970 C.ar    1  UNL1        0.0297
     18 C           4.4171   -1.6978   18.4816 C.ar    1  UNL1        0.1401
     19 F           3.9347   -1.1072   17.1898 F       1  UNL1       -0.2042
     20 C           3.7325   -2.9015   19.0580 C.ar    1  UNL1        0.0297
     21 C           4.2149   -3.4919   20.3497 C.ar    1  UNL1        0.0039
     22 C           4.8519   -1.6622   24.0465 C.ar    1  UNL1        0.0404
     23 C           5.2612   -0.8054   25.2077 C.ar    1  UNL1        0.0239
     24 C           4.4925    0.4424   25.5269 C.ar    1  UNL1        0.1004
     25 N           3.3143    0.8335   24.6849 N.ar    1  UNL1       -0.2294
     26 C           2.9049   -0.0233   23.5236 C.ar    1  UNL1        0.1286
     27 C           3.6738   -1.2710   23.2045 C.ar    1  UNL1        0.0372
     28 N           1.7268    0.3678   22.6817 N.pl3   1  UNL1       -0.3197
     29 H           0.8274    0.4049   23.0804 H       1  UNL1        0.1481
     30 C           1.9189    0.7024   21.2321 C.3     1  UNL1        0.0704
     31 C           0.9679    0.1624   20.2054 C.3     1  UNL1        0.0195
     32 C           1.1599    0.4969   18.7559 C.3     1  UNL1        0.0017
     33 C           2.3029    1.3714   18.3330 C.3     1  UNL1        0.0001
     34 C           3.2539    1.9114   19.3596 C.3     1  UNL1        0.0017
     35 C           3.0618    1.5768   20.8092 C.3     1  UNL1        0.0195
@<TRIPOS>BOND
     1     6     7    1
     2     7     1    1
     3     1     2   ar
     4     2     3   ar
     5     3    15    1
     6    15    16   ar
     7    16    17   ar
     8    17    18   ar
     9    18    19    1
    10    18    20   ar
    11    20    21   ar
    12     3     4   ar
    13     4    22    1
    14    22    23   ar
    15    23    24   ar
    16    24    25   ar
    17    25    26   ar
    18    26    28    1
    19    28    30    1
    20    30    31    1
    21    31    32    1
    22    32    33    1
    23    33    34    1
    24    34    35    1
    25    26    27   ar
    26     4     5   ar
    27     7     8    1
    28     8     9    1
    29     9    10    1
    30    10    11    1
    31    11    12    1
    32    12     7    1
    33     5     1   ar
    34    21    15   ar
    35    27    22   ar
    36    35    30    1
    37     6    13    1
    38    28    29    1
    39    10    14    1
@<TRIPOS>MOLECULE
*****
 35 39 0 0 0
SMALL
GASTEIGER

@<TRIPOS>ATOM
      1 C          -5.7733  -16.3070   24.8299 C.ar    1  UNL1        0.2299
      2 N          -4.3857  -16.3562   24.2622 N.ar    1  UNL1       -0.2102
      3 C          -4.4079  -17.2540   23.0608 C.ar    1  UNL1        0.1186
      4 C          -5.8092  -17.7597   22.8859 C.ar    1  UNL1        0.1645
      5 O          -6.6531  -17.1745   23.9792 O.2     1  UNL1       -0.4360
      6 O          -4.7221  -15.3137   26.1054 O.3     1  UNL1       -0.3779
      7 C          -6.2052  -15.5273   26.0363 C.3     1  UNL1        0.1587
      8 C          -7.5383  -16.0118   25.5482 C.3     1  UNL1        0.0531
      9 C          -8.7883  -15.6423   26.2905 C.3     1  UNL1        0.0715
     10 N          -8.7052  -14.7884   27.5210 N.3     1  UNL1       -0.2973
     11 C          -7.3722  -14.3040   28.0090 C.3     1  UNL1        0.0715
     12 C          -6.1222  -14.6734   27.2667 C.3     1  UNL1        0.0531
     13 H          -4.2945  -15.7733   25.3659 H       1  UNL1        0.2109
     14 H          -9.1193  -15.3271   28.2817 H       1  UNL1        0.1233
     15 C          -3.2347  -17.5875   22.1875 C.ar    1  UNL1        0.0209
     16 C          -2.8133  -19.0162   22.0110 C.ar    1  UNL1        0.0039
     17 C          -1.6402  -19.3497   21.1378 C.ar    1  UNL1        0.0297
     18 C          -0.8885  -18.2545   20.4411 C.ar    1  UNL1        0.1401
     19 F           0.2846  -18.5880   19.5678 F       1  UNL1       -0.2042
     20 C          -1.3099  -16.8258   20.6176 C.ar    1  UNL1        0.0297
     21 C          -2.4830  -16.4923   21.4908 C.ar    1  UNL1        0.0039
     22 C          -6.2834  -18.6877   21.8071 C.ar    1  UNL1        0.0404
     23 C          -5.4267  -19.8432   21.3816 C.ar    1  UNL1        0.0239
     24 C          -5.9009  -20.7712   20.3028 C.ar    1  UNL1        0.1004
     25 N          -7.2319  -20.5438   19.6494 N.ar    1  UNL1       -0.2294
     26 C          -8.0887  -19.3884   20.0749 C.ar    1  UNL1        0.1286
     27 C          -7.6143  -18.4604   21.1537 C.ar    1  UNL1        0.0372
     28 N          -9.4195  -19.1610   19.4215 N.pl3   1  UNL1       -0.3197
     29 H          -9.5603  -19.4294   18.4848 H       1  UNL1        0.1481
     30 C         -10.5360  -18.5247   20.1953 C.3     1  UNL1        0.0704
     31 C         -11.0644  -17.1827   19.7832 C.3     1  UNL1        0.0195
     32 C         -12.1808  -16.5463   20.5569 C.3     1  UNL1        0.0017
     33 C         -12.7689  -17.2520   21.7427 C.3     1  UNL1        0.0001
     34 C         -12.2405  -18.5940   22.1549 C.3     1  UNL1        0.0017
     35 C         -11.1241  -19.2303   21.3811 C.3     1  UNL1        0.0195
@<TRIPOS>BOND
     1     6     7    1
     2     7     1    1
     3     1     2   ar
     4     2     3   ar
     5     3    15    1
     6    15    16   ar
     7    16    17   ar
     8    17    18   ar
     9    18    19    1
    10    18    20   ar
    11    20    21   ar
    12     3     4   ar
    13     4    22    1
    14    22    23   ar
    15    23    24   ar
    16    24    25   ar
    17    25    26   ar
    18    26    28    1
    19    28    30    1
    20    30    31    1
    21    31    32    1
    22    32    33    1
    23    33    34    1
    24    34    35    1
    25    26    27   ar
    26     4     5   ar
    27     7     8    1
    28     8     9    1
    29     9    10    1
    30    10    11    1
    31    11    12    1
    32    12     7    1
    33     5     1   ar
    34    21    15   ar
    35    27    22   ar
    36    35    30    1
    37     6    13    1
    38    28    29    1
    39    10    14    1
@<TRIPOS>MOLECULE
*****
 35 39 0 0 0
SMALL
GASTEIGER

@<TRIPOS>ATOM
      1 C           6.3959   -3.8675   27.2071 C.ar    1  UNL1        0.2299
      2 N           5.7521   -2.5339   26.9687 N.ar    1  UNL1       -0.2102
      3 C           5.6360   -2.3335   25.4867 C.ar    1  UNL1        0.1186
      4 C           6.2081   -3.5433   24.8092 C.ar    1  UNL1        0.1645
      5 O           6.6778   -4.4914   25.8724 O.2     1  UNL1       -0.4360
      6 O           5.7926   -5.5243   27.9878 O.3     1  UNL1       -0.3779
      7 C           6.7039   -4.4713   28.5453 C.3     1  UNL1        0.1587
      8 C           7.5083   -3.2085   28.6379 C.3     1  UNL1        0.0531
      9 C           8.3041   -2.9153   29.8751 C.3     1  UNL1        0.0715
     10 N           8.2955   -3.8849   31.0197 N.3     1  UNL1       -0.2973
     11 C           7.4912   -5.1475   30.9270 C.3     1  UNL1        0.0715
     12 C           6.6954   -5.4408   29.6898 C.3     1  UNL1        0.0531
     13 H           5.5035   -5.2643   27.0992 H       1  UNL1        0.2109
     14 H           7.9519   -3.3759   31.8341 H       1  UNL1        0.1233
     15 C           5.0506   -1.1339   24.8024 C.ar    1  UNL1        0.0209
     16 C           5.9536   -0.0818   24.2301 C.ar    1  UNL1        0.0039
     17 C           5.3682    1.1177   23.5457 C.ar    1  UNL1        0.0297
     18 C           3.8796    1.2652   23.4337 C.ar    1  UNL1        0.1401
     19 F           3.2942    2.4648   22.7494 F       1  UNL1       -0.2042
     20 C           2.9766    0.2131   24.0060 C.ar    1  UNL1        0.0297
     21 C           3.5620   -0.9864   24.6903 C.ar    1  UNL1        0.0039
     22 C           6.2953   -3.7659   23.3284 C.ar    1  UNL1        0.0404
     23 C           7.6013   -4.1601   22.7047 C.ar    1  UNL1        0.0239
     24 C           7.6884   -4.3827   21.2239 C.ar    1  UNL1        0.1004
     25 N           6.4695   -4.2112   20.3666 N.ar    1  UNL1       -0.2294
     26 C           5.1634   -3.8170   20.9903 C.ar    1  UNL1        0.1286
     27 C           5.0764   -3.5944   22.4711 C.ar    1  UNL1        0.0372
     28 N           3.9445   -3.6455   20.1331 N.pl3   1  UNL1       -0.3197
     29 H           3.3926   -4.4268   19.9002 H       1  UNL1        0.1481
     30 C           3.5665   -2.2836   19.6307 C.3     1  UNL1        0.0704
     31 C           2.7900   -1.3487   20.5100 C.3     1  UNL1        0.0195
     32 C           2.4120    0.0131   20.0077 C.3     1  UNL1        0.0017
     33 C           2.8104    0.4402   18.6260 C.3     1  UNL1        0.0001
     34 C           3.5868   -0.4946   17.7467 C.3     1  UNL1        0.0017
     35 C           3.9649   -1.8565   18.2491 C.3     1  UNL1        0.0195
@<TRIPOS>BOND
     1     6     7    1
     2     7     1    1
     3     1     2   ar
     4     2     3   ar
     5     3    15    1
     6    15    16   ar
     7    16    17   ar
     8    17    18   ar
     9    18    19    1
    10    18    20   ar
    11    20    21   ar
    12     3     4   ar
    13     4    22    1
    14    22    23   ar
    15    23    24   ar
    16    24    25   ar
    17    25    26   ar
    18    26    28    1
    19    28    30    1
    20    30    31    1
    21    31    32    1
    22    32    33    1
    23    33    34    1
    24    34    35    1
    25    26    27   ar
    26     4     5   ar
    27     7     8    1
    28     8     9    1
    29     9    10    1
    30    10    11    1
    31    11    12    1
    32    12     7    1
    33     5     1   ar
    34    21    15   ar
    35    27    22   ar
    36    35    30    1
    37     6    13    1
    38    28    29    1
    39    10    14    1
@<TRIPOS>MOLECULE
*****
 35 39 0 0 0
SMALL
GASTEIGER

@<TRIPOS>ATOM
      1 C           0.2926    1.6983   24.7452 C.ar    1  UNL1        0.2299
      2 N           0.4950    1.7090   23.2589 N.ar    1  UNL1       -0.2102
      3 C           1.7076    0.8819   22.9502 C.ar    1  UNL1        0.1186
      4 C           2.2547    0.3599   24.2457 C.ar    1  UNL1        0.1645
      5 O           1.3802    0.8645   25.3551 O.2     1  UNL1       -0.4360
      6 O          -0.3424    1.4396   26.5475 O.3     1  UNL1       -0.3779
      7 C          -0.8048    2.3984   25.4906 C.3     1  UNL1        0.1587
      8 C          -0.8860    3.1140   24.1748 C.3     1  UNL1        0.0531
      9 C          -1.9041    4.1967   23.9715 C.3     1  UNL1        0.0715
     10 N          -2.8408    4.5639   25.0841 N.3     1  UNL1       -0.2973
     11 C          -2.7595    3.8483   26.3998 C.3     1  UNL1        0.0715
     12 C          -1.7415    2.7656   26.6031 C.3     1  UNL1        0.0531
     13 H           0.3869    0.9026   26.2002 H       1  UNL1        0.2109
     14 H          -3.7873    4.4235   24.7306 H       1  UNL1        0.1233
     15 C           2.2738    0.6223   21.5856 C.ar    1  UNL1        0.0209
     16 C           3.3755    1.4899   21.0533 C.ar    1  UNL1        0.0039
     17 C           3.9417    1.2303   19.6887 C.ar    1  UNL1        0.0297
     18 C           3.4062    0.1030   18.8566 C.ar    1  UNL1        0.1401
     19 F           3.9724   -0.1566   17.4920 F       1  UNL1       -0.2042
     20 C           2.3045   -0.7646   19.3889 C.ar    1  UNL1        0.0297
     21 C           1.7383   -0.5050   20.7535 C.ar    1  UNL1        0.0039
     22 C           3.4640   -0.5133   24.4041 C.ar    1  UNL1        0.0404
     23 C           4.4768   -0.2063   25.4671 C.ar    1  UNL1        0.0239
     24 C           5.6861   -1.0795   25.6254 C.ar    1  UNL1        0.1004
     25 N           5.8826   -2.2597   24.7208 N.ar    1  UNL1       -0.2294
     26 C           4.8698   -2.5668   23.6577 C.ar    1  UNL1        0.1286
     27 C           3.6605   -1.6935   23.4995 C.ar    1  UNL1        0.0372
     28 N           5.0663   -3.7470   22.7531 N.pl3   1  UNL1       -0.3197
     29 H           5.1687   -4.6485   23.1353 H       1  UNL1        0.1481
     30 C           5.1068   -3.5537   21.2661 C.3     1  UNL1        0.0704
     31 C           6.0747   -2.5797   20.6625 C.3     1  UNL1        0.0195
     32 C           6.1152   -2.3865   19.1756 C.3     1  UNL1        0.0017
     33 C           5.1877   -3.1672   18.2922 C.3     1  UNL1        0.0001
     34 C           4.2198   -4.1412   18.8958 C.3     1  UNL1        0.0017
     35 C           4.1793   -4.3344   20.3828 C.3     1  UNL1        0.0195
@<TRIPOS>BOND
     1     6     7    1
     2     7     1    1
     3     1     2   ar
     4     2     3   ar
     5     3    15    1
     6    15    16   ar
     7    16    17   ar
     8    17    18   ar
     9    18    19    1
    10    18    20   ar
    11    20    21   ar
    12     3     4   ar
    13     4    22    1
    14    22    23   ar
    15    23    24   ar
    16    24    25   ar
    17    25    26   ar
    18    26    28    1
    19    28    30    1
    20    30    31    1
    21    31    32    1
    22    32    33    1
    23    33    34    1
    24    34    35    1
    25    26    27   ar
    26     4     5   ar
    27     7     8    1
    28     8     9    1
    29     9    10    1
    30    10    11    1
    31    11    12    1
    32    12     7    1
    33     5     1   ar
    34    21    15   ar
    35    27    22   ar
    36    35    30    1
    37     6    13    1
    38    28    29    1
    39    10    14    1
@<TRIPOS>MOLECULE
*****
 35 39 0 0 0
SMALL
GASTEIGER

@<TRIPOS>ATOM
      1 C           4.1347   -0.9219   27.2994 C.ar    1  UNL1        0.2299
      2 N           5.1349   -1.6701   26.4688 N.ar    1  UNL1       -0.2102
      3 C           4.8234   -1.4124   25.0243 C.ar    1  UNL1        0.1186
      4 C           3.6306   -0.5049   24.9621 C.ar    1  UNL1        0.1645
      5 O           3.2050   -0.2018   26.3682 O.2     1  UNL1       -0.4360
      6 O           5.5249   -1.2266   28.6005 O.3     1  UNL1       -0.3779
      7 C           4.0747   -0.8980   28.7980 C.3     1  UNL1        0.1587
      8 C           2.6453   -0.5777   28.4749 C.3     1  UNL1        0.0531
      9 C           1.6596   -0.3476   29.5820 C.3     1  UNL1        0.0715
     10 N           2.1034   -0.4378   31.0120 N.3     1  UNL1       -0.2973
     11 C           3.5327   -0.7581   31.3350 C.3     1  UNL1        0.0715
     12 C           4.5184   -0.9882   30.2280 C.3     1  UNL1        0.0531
     13 H           5.7187   -1.2769   27.6514 H       1  UNL1        0.2109
     14 H           1.5331   -1.1599   31.4522 H       1  UNL1        0.1233
     15 C           5.5730   -1.9651   23.8484 C.ar    1  UNL1        0.0209
     16 C           5.3588   -3.3877   23.4239 C.ar    1  UNL1        0.0039
     17 C           6.1084   -3.9404   22.2480 C.ar    1  UNL1        0.0297
     18 C           7.0721   -3.0704   21.4968 C.ar    1  UNL1        0.1401
     19 F           7.8218   -3.6231   20.3209 F       1  UNL1       -0.2042
     20 C           7.2863   -1.6478   21.9214 C.ar    1  UNL1        0.0297
     21 C           6.5367   -1.0952   23.0972 C.ar    1  UNL1        0.0039
     22 C           2.9780    0.0091   23.7132 C.ar    1  UNL1        0.0404
     23 C           2.4761    1.4215   23.6559 C.ar    1  UNL1        0.0239
     24 C           1.8236    1.9355   22.4070 C.ar    1  UNL1        0.1004
     25 N           1.6729    1.0372   21.2152 N.ar    1  UNL1       -0.2294
     26 C           2.1747   -0.3753   21.2724 C.ar    1  UNL1        0.1286
     27 C           2.8273   -0.8892   22.5214 C.ar    1  UNL1        0.0372
     28 N           2.0240   -1.2736   20.0807 N.pl3   1  UNL1       -0.3197
     29 H           1.1276   -1.4793   19.7296 H       1  UNL1        0.1481
     30 C           3.2392   -1.8585   19.4239 C.3     1  UNL1        0.0704
     31 C           4.2589   -0.9564   18.7944 C.3     1  UNL1        0.0195
     32 C           5.4741   -1.5413   18.1376 C.3     1  UNL1        0.0017
     33 C           5.6695   -3.0282   18.1103 C.3     1  UNL1        0.0001
     34 C           4.6497   -3.9304   18.7399 C.3     1  UNL1        0.0017
     35 C           3.4346   -3.3454   19.3967 C.3     1  UNL1        0.0195
@<TRIPOS>BOND
     1     6     7    1
     2     7     1    1
     3     1     2   ar
     4     2     3   ar
     5     3    15    1
     6    15    16   ar
     7    16    17   ar
     8    17    18   ar
     9    18    19    1
    10    18    20   ar
    11    20    21   ar
    12     3     4   ar
    13     4    22    1
    14    22    23   ar
    15    23    24   ar
    16    24    25   ar
    17    25    26   ar
    18    26    28    1
    19    28    30    1
    20    30    31    1
    21    31    32    1
    22    32    33    1
    23    33    34    1
    24    34    35    1
    25    26    27   ar
    26     4     5   ar
    27     7     8    1
    28     8     9    1
    29     9    10    1
    30    10    11    1
    31    11    12    1
    32    12     7    1
    33     5     1   ar
    34    21    15   ar
    35    27    22   ar
    36    35    30    1
    37     6    13    1
    38    28    29    1
    39    10    14    1
@<TRIPOS>MOLECULE
*****
 35 39 0 0 0
SMALL
GASTEIGER

@<TRIPOS>ATOM
      1 C           6.5327   -3.3405   28.0888 C.ar    1  UNL1        0.2299
      2 N           5.8548   -2.3196   27.2239 N.ar    1  UNL1       -0.2102
      3 C           6.1099   -2.6830   25.7911 C.ar    1  UNL1        0.1186
      4 C           6.9455   -3.9286   25.7706 C.ar    1  UNL1        0.1645
      5 O           7.2068   -4.3350   27.1906 O.2     1  UNL1       -0.4360
      6 O           6.3096   -1.8995   29.3507 O.3     1  UNL1       -0.3779
      7 C           6.5359   -3.3631   29.5887 C.3     1  UNL1        0.1587
      8 C           6.7612   -4.8189   29.3057 C.3     1  UNL1        0.0531
      9 C           6.9110   -5.7890   30.4400 C.3     1  UNL1        0.0715
     10 N           6.8357   -5.3033   31.8572 N.3     1  UNL1       -0.2973
     11 C           6.6105   -3.8476   32.1401 C.3     1  UNL1        0.0715
     12 C           6.4606   -2.8775   31.0059 C.3     1  UNL1        0.0531
     13 H           6.2831   -1.7274   28.3964 H       1  UNL1        0.2109
     14 H           7.7176   -5.5568   32.3026 H       1  UNL1        0.1233
     15 C           5.6162   -1.9326   24.5898 C.ar    1  UNL1        0.0209
     16 C           4.4025   -2.4139   23.8515 C.ar    1  UNL1        0.0039
     17 C           3.9088   -1.6635   22.6502 C.ar    1  UNL1        0.0297
     18 C           4.6288   -0.4318   22.1872 C.ar    1  UNL1        0.1401
     19 F           4.1350    0.3187   20.9859 F       1  UNL1       -0.2042
     20 C           5.8425    0.0496   22.9256 C.ar    1  UNL1        0.0297
     21 C           6.3362   -0.7008   24.1268 C.ar    1  UNL1        0.0039
     22 C           7.4340   -4.6424   24.5451 C.ar    1  UNL1        0.0404
     23 C           7.9463   -6.0483   24.6502 C.ar    1  UNL1        0.0239
     24 C           8.4348   -6.7621   23.4247 C.ar    1  UNL1        0.1004
     25 N           8.4110   -6.0701   22.0941 N.ar    1  UNL1       -0.2294
     26 C           7.8986   -4.6641   21.9889 C.ar    1  UNL1        0.1286
     27 C           7.4102   -3.9504   23.2145 C.ar    1  UNL1        0.0372
     28 N           7.8748   -3.9722   20.6584 N.pl3   1  UNL1       -0.3197
     29 H           8.7125   -3.8356   20.1595 H       1  UNL1        0.1481
     30 C           6.5747   -3.4882   20.0878 C.3     1  UNL1        0.0704
     31 C           5.3226   -4.2890   20.2901 C.3     1  UNL1        0.0195
     32 C           4.0224   -3.8051   19.7196 C.3     1  UNL1        0.0017
     33 C           3.9744   -2.5205   18.9467 C.3     1  UNL1        0.0001
     34 C           5.2265   -1.7197   18.7444 C.3     1  UNL1        0.0017
     35 C           6.5267   -2.2036   19.3150 C.3     1  UNL1        0.0195
@<TRIPOS>BOND
     1     6     7    1
     2     7     1    1
     3     1     2   ar
     4     2     3   ar
     5     3    15    1
     6    15    16   ar
     7    16    17   ar
     8    17    18   ar
     9    18    19    1
    10    18    20   ar
    11    20    21   ar
    12     3     4   ar
    13     4    22    1
    14    22    23   ar
    15    23    24   ar
    16    24    25   ar
    17    25    26   ar
    18    26    28    1
    19    28    30    1
    20    30    31    1
    21    31    32    1
    22    32    33    1
    23    33    34    1
    24    34    35    1
    25    26    27   ar
    26     4     5   ar
    27     7     8    1
    28     8     9    1
    29     9    10    1
    30    10    11    1
    31    11    12    1
    32    12     7    1
    33     5     1   ar
    34    21    15   ar
    35    27    22   ar
    36    35    30    1
    37     6    13    1
    38    28    29    1
    39    10    14    1
