@<TRIPOS>MOLECULE
*****
 33 36 0 0 0
SMALL
GASTEIGER

@<TRIPOS>ATOM
      1 C         -10.6418  -16.7762   20.1921 C.3     1  UNL1        0.1602
      2 O          -9.7242  -16.0996   21.1668 O.3     1  UNL1       -0.3459
      3 C          -9.8577  -16.3721   22.6358 C.3     1  UNL1        0.1598
      4 F          -5.3445  -15.0369   26.3571 F       1  UNL1       -0.2042
      5 C          -6.4728  -15.3707   25.4267 C.ar    1  UNL1        0.1401
      6 C          -7.8847  -15.3796   25.9331 C.ar    1  UNL1        0.0294
      7 C          -9.0130  -15.7134   25.0027 C.ar    1  UNL1        0.0007
      8 C          -8.7294  -16.0383   23.5661 C.ar    1  UNL1        0.0089
      9 C          -7.3175  -16.0294   23.0598 C.ar    1  UNL1        0.0007
     10 C          -6.1892  -15.6956   23.9901 C.ar    1  UNL1        0.0294
     11 C         -11.1196  -16.9783   23.1744 C.ar    1  UNL1        0.0089
     12 C         -12.4497  -16.3857   22.8141 C.ar    1  UNL1        0.0007
     13 C         -13.7115  -16.9920   23.3528 C.ar    1  UNL1        0.0294
     14 C         -13.6433  -18.1908   24.2517 C.ar    1  UNL1        0.1401
     15 F         -14.9052  -18.7971   24.7903 F       1  UNL1       -0.2042
     16 C         -12.3133  -18.7835   24.6120 C.ar    1  UNL1        0.0294
     17 C         -11.0514  -18.1772   24.0733 C.ar    1  UNL1        0.0007
     18 C         -10.5893  -18.2657   20.0223 C.3     1  UNL1        0.1046
     19 N          -9.2801  -18.9882   20.1405 N.3     1  UNL1       -0.2706
     20 C          -8.5798  -19.0596   21.4652 C.3     1  UNL1        0.0722
     21 C          -7.2706  -19.7822   21.5834 C.3     1  UNL1        0.0174
     22 C          -6.6617  -20.4333   20.3770 C.3     1  UNL1        0.0028
     23 C          -7.3620  -20.3619   19.0524 C.3     1  UNL1        0.0174
     24 C          -8.6712  -19.6393   18.9342 C.3     1  UNL1        0.0722
     25 C          -5.3525  -21.1558   20.4952 C.3     1  UNL1        0.0004
     26 C          -4.1340  -20.6179   19.8053 C.3     1  UNL1        0.0047
     27 C          -2.8996  -20.3057   20.5982 C.3     1  UNL1        0.0264
     28 C          -2.6182  -18.8951   21.0235 C.ar    1  UNL1       -0.0222
     29 C          -1.6287  -18.0651   20.2607 C.ar    1  UNL1       -0.0043
     30 C          -1.3472  -16.6543   20.6859 C.ar    1  UNL1       -0.0003
     31 C          -2.0554  -16.0737   21.8740 C.ar    1  UNL1       -0.0000
     32 C          -3.0449  -16.9038   22.6368 C.ar    1  UNL1       -0.0003
     33 C          -3.3263  -18.3144   22.2115 C.ar    1  UNL1       -0.0043
@<TRIPOS>BOND
     1     4     5    1
     2     5     6   ar
     3     6     7   ar
     4     7     8   ar
     5     8     3    1
     6     3     2    1
     7     2     1    1
     8     1    18    1
     9    18    19    1
    10    19    20    1
    11    20    21    1
    12    21    22    1
    13    22    25    1
    14    25    26    1
    15    26    27    1
    16    27    28    1
    17    28    29   ar
    18    29    30   ar
    19    30    31   ar
    20    31    32   ar
    21    32    33   ar
    22    22    23    1
    23    23    24    1
    24     3    11    1
    25    11    12   ar
    26    12    13   ar
    27    13    14   ar
    28    14    15    1
    29    14    16   ar
    30    16    17   ar
    31     8     9   ar
    32     9    10   ar
    33    10     5   ar
    34    24    19    1
    35    17    11   ar
    36    33    28   ar
@<TRIPOS>MOLECULE
*****
 33 36 0 0 0
SMALL
GASTEIGER

@<TRIPOS>ATOM
      1 C         -10.6167  -16.8326   20.1686 C.3     1  UNL1        0.1602
      2 O          -9.7760  -16.0674   21.1472 O.3     1  UNL1       -0.3459
      3 C          -9.8790  -16.3606   22.6146 C.3     1  UNL1        0.1598
      4 F         -14.8780  -18.8237   24.8381 F       1  UNL1       -0.2042
      5 C         -13.6282  -18.2079   24.2822 C.ar    1  UNL1        0.1401
      6 C         -12.2880  -18.7804   24.6372 C.ar    1  UNL1        0.0294
      7 C         -11.0383  -18.1646   24.0814 C.ar    1  UNL1        0.0007
      8 C         -11.1287  -16.9764   23.1705 C.ar    1  UNL1        0.0089
      9 C         -12.4689  -16.4039   22.8154 C.ar    1  UNL1        0.0007
     10 C         -13.7187  -17.0196   23.3713 C.ar    1  UNL1        0.0294
     11 C          -8.7323  -16.0381   23.5261 C.ar    1  UNL1        0.0089
     12 C          -7.3270  -16.0658   23.0022 C.ar    1  UNL1        0.0007
     13 C          -6.1802  -15.7433   23.9138 C.ar    1  UNL1        0.0294
     14 C          -6.4387  -15.3930   25.3492 C.ar    1  UNL1        0.1401
     15 F          -5.2919  -15.0705   26.2608 F       1  UNL1       -0.2042
     16 C          -7.8440  -15.3653   25.8731 C.ar    1  UNL1        0.0294
     17 C          -8.9908  -15.6878   24.9616 C.ar    1  UNL1        0.0007
     18 C         -10.5720  -18.3319   20.1529 C.3     1  UNL1        0.1046
     19 N          -9.2537  -19.0437   20.2264 N.3     1  UNL1       -0.2706
     20 C          -8.5333  -19.1547   21.5375 C.3     1  UNL1        0.0722
     21 C          -7.2150  -19.8664   21.6110 C.3     1  UNL1        0.0174
     22 C          -6.6170  -20.4673   20.3734 C.3     1  UNL1        0.0028
     23 C          -7.3374  -20.3563   19.0624 C.3     1  UNL1        0.0174
     24 C          -8.6557  -19.6445   18.9889 C.3     1  UNL1        0.0722
     25 C          -5.2987  -21.1791   20.4469 C.3     1  UNL1        0.0004
     26 C          -4.0864  -20.5815   19.7961 C.3     1  UNL1        0.0047
     27 C          -2.8682  -20.2767   20.6165 C.3     1  UNL1        0.0264
     28 C          -2.5721  -18.8635   21.0229 C.ar    1  UNL1       -0.0222
     29 C          -3.2750  -18.2593   22.2022 C.ar    1  UNL1       -0.0043
     30 C          -2.9789  -16.8461   22.6087 C.ar    1  UNL1       -0.0003
     31 C          -1.9797  -16.0372   21.8359 C.ar    1  UNL1       -0.0000
     32 C          -1.2767  -16.6414   20.6565 C.ar    1  UNL1       -0.0003
     33 C          -1.5729  -18.0546   20.2501 C.ar    1  UNL1       -0.0043
@<TRIPOS>BOND
     1     4     5    1
     2     5     6   ar
     3     6     7   ar
     4     7     8   ar
     5     8     3    1
     6     3     2    1
     7     2     1    1
     8     1    18    1
     9    18    19    1
    10    19    20    1
    11    20    21    1
    12    21    22    1
    13    22    25    1
    14    25    26    1
    15    26    27    1
    16    27    28    1
    17    28    29   ar
    18    29    30   ar
    19    30    31   ar
    20    31    32   ar
    21    32    33   ar
    22    22    23    1
    23    23    24    1
    24     3    11    1
    25    11    12   ar
    26    12    13   ar
    27    13    14   ar
    28    14    15    1
    29    14    16   ar
    30    16    17   ar
    31     8     9   ar
    32     9    10   ar
    33    10     5   ar
    34    24    19    1
    35    17    11   ar
    36    33    28   ar
@<TRIPOS>MOLECULE
*****
 33 36 0 0 0
SMALL
GASTEIGER

@<TRIPOS>ATOM
      1 C         -11.2557  -16.1663   19.5735 C.3     1  UNL1        0.1602
      2 O         -11.4665  -17.6457   19.7040 O.3     1  UNL1       -0.3459
      3 C         -10.8587  -18.3913   20.8549 C.3     1  UNL1        0.1598
      4 F          -5.4596  -20.9405   20.2624 F       1  UNL1       -0.2042
      5 C          -6.8094  -20.3032   20.4106 C.ar    1  UNL1        0.1401
      6 C          -7.8291  -20.4440   19.3195 C.ar    1  UNL1        0.0294
      7 C          -9.1788  -19.8067   19.4676 C.ar    1  UNL1        0.0007
      8 C          -9.5089  -19.0286   20.7068 C.ar    1  UNL1        0.0089
      9 C          -8.4893  -18.8878   21.7978 C.ar    1  UNL1        0.0007
     10 C          -7.1395  -19.5251   21.6497 C.ar    1  UNL1        0.0294
     11 C         -11.6007  -18.4995   22.1540 C.ar    1  UNL1        0.0089
     12 C         -12.9695  -17.9006   22.2881 C.ar    1  UNL1        0.0007
     13 C         -13.7115  -18.0089   23.5871 C.ar    1  UNL1        0.0294
     14 C         -13.0849  -18.7160   24.7522 C.ar    1  UNL1        0.1401
     15 F         -13.8270  -18.8242   26.0513 F       1  UNL1       -0.2042
     16 C         -11.7162  -19.3148   24.6181 C.ar    1  UNL1        0.0294
     17 C         -10.9741  -19.2066   23.3190 C.ar    1  UNL1        0.0007
     18 C         -11.1815  -15.3082   20.8016 C.3     1  UNL1        0.1046
     19 N         -10.0079  -15.4251   21.7284 N.3     1  UNL1       -0.2706
     20 C          -8.6222  -15.1544   21.2218 C.3     1  UNL1        0.0722
     21 C          -7.4486  -15.2713   22.1486 C.3     1  UNL1        0.0174
     22 C          -7.6607  -15.6589   23.5821 C.3     1  UNL1        0.0028
     23 C          -9.0463  -15.9296   24.0887 C.3     1  UNL1        0.0174
     24 C         -10.2199  -15.8127   23.1619 C.3     1  UNL1        0.0722
     25 C          -6.4871  -15.7758   24.5089 C.3     1  UNL1        0.0004
     26 C          -5.0973  -15.8654   23.9516 C.3     1  UNL1        0.0047
     27 C          -4.3649  -17.1743   23.9697 C.3     1  UNL1        0.0264
     28 C          -3.4777  -17.5533   22.8211 C.ar    1  UNL1       -0.0222
     29 C          -2.5858  -16.5249   22.1913 C.ar    1  UNL1       -0.0043
     30 C          -1.6986  -16.9039   21.0427 C.ar    1  UNL1       -0.0003
     31 C          -1.7033  -18.3113   20.5240 C.ar    1  UNL1       -0.0000
     32 C          -2.5953  -19.3398   21.1539 C.ar    1  UNL1       -0.0003
     33 C          -3.4824  -18.9608   22.3025 C.ar    1  UNL1       -0.0043
@<TRIPOS>BOND
     1     4     5    1
     2     5     6   ar
     3     6     7   ar
     4     7     8   ar
     5     8     3    1
     6     3     2    1
     7     2     1    1
     8     1    18    1
     9    18    19    1
    10    19    20    1
    11    20    21    1
    12    21    22    1
    13    22    25    1
    14    25    26    1
    15    26    27    1
    16    27    28    1
    17    28    29   ar
    18    29    30   ar
    19    30    31   ar
    20    31    32   ar
    21    32    33   ar
    22    22    23    1
    23    23    24    1
    24     3    11    1
    25    11    12   ar
    26    12    13   ar
    27    13    14   ar
    28    14    15    1
    29    14    16   ar
    30    16    17   ar
    31     8     9   ar
    32     9    10   ar
    33    10     5   ar
    34    24    19    1
    35    17    11   ar
    36    33    28   ar
@<TRIPOS>MOLECULE
*****
 33 36 0 0 0
SMALL
GASTEIGER

@<TRIPOS>ATOM
      1 C         -11.1293  -16.1395   19.6134 C.3     1  UNL1        0.1602
      2 O         -11.3198  -17.6239   19.7141 O.3     1  UNL1       -0.3459
      3 C         -10.7427  -18.3770   20.8759 C.3     1  UNL1        0.1598
      4 F         -13.8367  -18.8233   25.9972 F       1  UNL1       -0.2042
      5 C         -13.0632  -18.7118   24.7168 C.ar    1  UNL1        0.1401
      6 C         -13.6530  -17.9842   23.5452 C.ar    1  UNL1        0.0294
      7 C         -12.8795  -17.8727   22.2649 C.ar    1  UNL1        0.0007
      8 C         -11.5162  -18.4886   22.1562 C.ar    1  UNL1        0.0089
      9 C         -10.9264  -19.2161   23.3278 C.ar    1  UNL1        0.0007
     10 C         -11.6999  -19.3277   24.6081 C.ar    1  UNL1        0.0294
     11 C          -9.3921  -19.0186   20.7572 C.ar    1  UNL1        0.0089
     12 C          -9.0408  -19.8058   19.5296 C.ar    1  UNL1        0.0007
     13 C          -7.6902  -20.4473   19.4110 C.ar    1  UNL1        0.0294
     14 C          -6.6907  -20.3018   20.5200 C.ar    1  UNL1        0.1401
     15 F          -5.3400  -20.9434   20.4013 F       1  UNL1       -0.2042
     16 C          -7.0419  -19.5147   21.7476 C.ar    1  UNL1        0.0294
     17 C          -8.3926  -18.8731   21.8663 C.ar    1  UNL1        0.0007
     18 C         -11.0736  -15.3043   20.8582 C.3     1  UNL1        0.1046
     19 N          -9.8963  -15.4119   21.7815 N.3     1  UNL1       -0.2706
     20 C          -8.5185  -15.0950   21.2801 C.3     1  UNL1        0.0722
     21 C          -7.3413  -15.2026   22.2034 C.3     1  UNL1        0.0174
     22 C          -7.5418  -15.6270   23.6281 C.3     1  UNL1        0.0028
     23 C          -8.9195  -15.9439   24.1295 C.3     1  UNL1        0.0174
     24 C         -10.0968  -15.8363   23.2062 C.3     1  UNL1        0.0722
     25 C          -6.3645  -15.7346   24.5514 C.3     1  UNL1        0.0004
     26 C          -4.9826  -15.8919   23.9895 C.3     1  UNL1        0.0047
     27 C          -4.3607  -17.2538   23.8981 C.3     1  UNL1        0.0264
     28 C          -3.4284  -17.5783   22.7687 C.ar    1  UNL1       -0.0222
     29 C          -3.3557  -18.9782   22.2349 C.ar    1  UNL1       -0.0043
     30 C          -2.4234  -19.3028   21.1055 C.ar    1  UNL1       -0.0003
     31 C          -1.5639  -18.2274   20.5099 C.ar    1  UNL1       -0.0000
     32 C          -1.6367  -16.8274   21.0437 C.ar    1  UNL1       -0.0003
     33 C          -2.5689  -16.5029   22.1731 C.ar    1  UNL1       -0.0043
@<TRIPOS>BOND
     1     4     5    1
     2     5     6   ar
     3     6     7   ar
     4     7     8   ar
     5     8     3    1
     6     3     2    1
     7     2     1    1
     8     1    18    1
     9    18    19    1
    10    19    20    1
    11    20    21    1
    12    21    22    1
    13    22    25    1
    14    25    26    1
    15    26    27    1
    16    27    28    1
    17    28    29   ar
    18    29    30   ar
    19    30    31   ar
    20    31    32   ar
    21    32    33   ar
    22    22    23    1
    23    23    24    1
    24     3    11    1
    25    11    12   ar
    26    12    13   ar
    27    13    14   ar
    28    14    15    1
    29    14    16   ar
    30    16    17   ar
    31     8     9   ar
    32     9    10   ar
    33    10     5   ar
    34    24    19    1
    35    17    11   ar
    36    33    28   ar
@<TRIPOS>MOLECULE
*****
 33 36 0 0 0
SMALL
GASTEIGER

@<TRIPOS>ATOM
      1 C          -9.1208  -15.5435   22.8836 C.3     1  UNL1        0.1602
      2 O          -9.4892  -16.2007   21.5866 O.3     1  UNL1       -0.3459
      3 C         -10.1539  -17.5454   21.5895 C.3     1  UNL1        0.1598
      4 F          -8.6394  -21.6492   17.4828 F       1  UNL1       -0.2042
      5 C          -9.0180  -20.6233   18.5094 C.ar    1  UNL1        0.1401
      6 C          -8.0161  -20.1839   19.5356 C.ar    1  UNL1        0.0294
      7 C          -8.3947  -19.1580   20.5623 C.ar    1  UNL1        0.0007
      8 C          -9.7752  -18.5714   20.5628 C.ar    1  UNL1        0.0089
      9 C         -10.7771  -19.0107   19.5366 C.ar    1  UNL1        0.0007
     10 C         -10.3985  -20.0367   18.5099 C.ar    1  UNL1        0.0294
     11 C         -11.1971  -17.8642   22.6190 C.ar    1  UNL1        0.0089
     12 C         -12.5943  -17.3428   22.4573 C.ar    1  UNL1        0.0007
     13 C         -13.6376  -17.6615   23.4869 C.ar    1  UNL1        0.0294
     14 C         -13.2837  -18.5016   24.6781 C.ar    1  UNL1        0.1401
     15 F         -14.3271  -18.8203   25.7077 F       1  UNL1       -0.2042
     16 C         -11.8866  -19.0230   24.8398 C.ar    1  UNL1        0.0294
     17 C         -10.8433  -18.7042   23.8102 C.ar    1  UNL1        0.0007
     18 C          -8.2503  -16.2651   23.8694 C.3     1  UNL1        0.1046
     19 N          -6.7776  -16.3947   23.6153 N.3     1  UNL1       -0.2706
     20 C          -6.2117  -17.6972   23.1324 C.3     1  UNL1        0.0722
     21 C          -4.7390  -17.8268   22.8784 C.3     1  UNL1        0.0174
     22 C          -3.8324  -16.6539   23.1073 C.3     1  UNL1        0.0028
     23 C          -4.3984  -15.3515   23.5902 C.3     1  UNL1        0.0174
     24 C          -5.8710  -15.2219   23.8442 C.3     1  UNL1        0.0722
     25 C          -2.3597  -16.7835   22.8532 C.3     1  UNL1        0.0004
     26 C          -1.7600  -16.2046   21.6061 C.3     1  UNL1        0.0047
     27 C          -1.6616  -17.0395   20.3638 C.3     1  UNL1        0.0264
     28 C          -2.5567  -18.2302   20.1875 C.ar    1  UNL1       -0.0222
     29 C          -3.8378  -18.0981   19.4186 C.ar    1  UNL1       -0.0043
     30 C          -4.7329  -19.2888   19.2423 C.ar    1  UNL1       -0.0003
     31 C          -4.3469  -20.6116   19.8350 C.ar    1  UNL1       -0.0000
     32 C          -3.0657  -20.7437   20.6039 C.ar    1  UNL1       -0.0003
     33 C          -2.1706  -19.5530   20.7802 C.ar    1  UNL1       -0.0043
@<TRIPOS>BOND
     1     4     5    1
     2     5     6   ar
     3     6     7   ar
     4     7     8   ar
     5     8     3    1
     6     3     2    1
     7     2     1    1
     8     1    18    1
     9    18    19    1
    10    19    20    1
    11    20    21    1
    12    21    22    1
    13    22    25    1
    14    25    26    1
    15    26    27    1
    16    27    28    1
    17    28    29   ar
    18    29    30   ar
    19    30    31   ar
    20    31    32   ar
    21    32    33   ar
    22    22    23    1
    23    23    24    1
    24     3    11    1
    25    11    12   ar
    26    12    13   ar
    27    13    14   ar
    28    14    15    1
    29    14    16   ar
    30    16    17   ar
    31     8     9   ar
    32     9    10   ar
    33    10     5   ar
    34    24    19    1
    35    17    11   ar
    36    33    28   ar
@<TRIPOS>MOLECULE
*****
 33 36 0 0 0
SMALL
GASTEIGER

@<TRIPOS>ATOM
      1 C          -9.0030  -15.5803   22.9286 C.3     1  UNL1        0.1602
      2 O          -9.5222  -16.1556   21.6443 O.3     1  UNL1       -0.3459
      3 C         -10.1800  -17.5037   21.6382 C.3     1  UNL1        0.1598
      4 F         -14.3853  -18.8084   25.7141 F       1  UNL1       -0.2042
      5 C         -13.3340  -18.4822   24.6951 C.ar    1  UNL1        0.1401
      6 C         -13.6723  -17.6134   23.5202 C.ar    1  UNL1        0.0294
      7 C         -12.6210  -17.2872   22.5012 C.ar    1  UNL1        0.0007
      8 C         -11.2313  -17.8298   22.6572 C.ar    1  UNL1        0.0089
      9 C         -10.8930  -18.6987   23.8321 C.ar    1  UNL1        0.0007
     10 C         -11.9444  -19.0249   24.8511 C.ar    1  UNL1        0.0294
     11 C          -9.7865  -18.5255   20.6131 C.ar    1  UNL1        0.0089
     12 C         -10.7826  -18.9825   19.5888 C.ar    1  UNL1        0.0007
     13 C         -10.3890  -20.0043   18.5637 C.ar    1  UNL1        0.0294
     14 C          -8.9995  -20.5692   18.5627 C.ar    1  UNL1        0.1401
     15 F          -8.6060  -21.5911   17.5375 F       1  UNL1       -0.2042
     16 C          -8.0034  -20.1123   19.5869 C.ar    1  UNL1        0.0294
     17 C          -8.3969  -19.0904   20.6122 C.ar    1  UNL1        0.0007
     18 C          -8.1285  -16.4090   23.8223 C.3     1  UNL1        0.1046
     19 N          -6.6546  -16.4964   23.5578 N.3     1  UNL1       -0.2706
     20 C          -6.0444  -17.8001   23.1358 C.3     1  UNL1        0.0722
     21 C          -4.5705  -17.8876   22.8713 C.3     1  UNL1        0.0174
     22 C          -3.7068  -16.6713   23.0289 C.3     1  UNL1        0.0028
     23 C          -4.3170  -15.3677   23.4509 C.3     1  UNL1        0.0174
     24 C          -5.7909  -15.2803   23.7154 C.3     1  UNL1        0.0722
     25 C          -2.2329  -16.7587   22.7644 C.3     1  UNL1        0.0004
     26 C          -1.6687  -16.2283   21.4797 C.3     1  UNL1        0.0047
     27 C          -1.5769  -17.1192   20.2765 C.3     1  UNL1        0.0264
     28 C          -2.5224  -18.2736   20.1241 C.ar    1  UNL1       -0.0222
     29 C          -3.8051  -18.0974   19.3666 C.ar    1  UNL1       -0.0043
     30 C          -4.7508  -19.2518   19.2142 C.ar    1  UNL1       -0.0003
     31 C          -4.4137  -20.5823   19.8192 C.ar    1  UNL1       -0.0000
     32 C          -3.1310  -20.7585   20.5767 C.ar    1  UNL1       -0.0003
     33 C          -2.1854  -19.6041   20.7291 C.ar    1  UNL1       -0.0043
@<TRIPOS>BOND
     1     4     5    1
     2     5     6   ar
     3     6     7   ar
     4     7     8   ar
     5     8     3    1
     6     3     2    1
     7     2     1    1
     8     1    18    1
     9    18    19    1
    10    19    20    1
    11    20    21    1
    12    21    22    1
    13    22    25    1
    14    25    26    1
    15    26    27    1
    16    27    28    1
    17    28    29   ar
    18    29    30   ar
    19    30    31   ar
    20    31    32   ar
    21    32    33   ar
    22    22    23    1
    23    23    24    1
    24     3    11    1
    25    11    12   ar
    26    12    13   ar
    27    13    14   ar
    28    14    15    1
    29    14    16   ar
    30    16    17   ar
    31     8     9   ar
    32     9    10   ar
    33    10     5   ar
    34    24    19    1
    35    17    11   ar
    36    33    28   ar
@<TRIPOS>MOLECULE
*****
 33 36 0 0 0
SMALL
GASTEIGER

@<TRIPOS>ATOM
      1 C         -11.9000   -0.5949   18.0067 C.3     1  UNL1        0.1602
      2 O         -13.3480   -0.5268   17.6214 O.3     1  UNL1       -0.3459
      3 C         -14.4074   -0.8918   18.6186 C.3     1  UNL1        0.1598
      4 F         -15.4382   -6.6562   19.9261 F       1  UNL1       -0.2042
      5 C         -15.1805   -5.2151   19.5992 C.ar    1  UNL1        0.1401
      6 C         -14.2956   -4.3912   20.4871 C.ar    1  UNL1        0.0294
      7 C         -14.0379   -2.9501   20.1602 C.ar    1  UNL1        0.0007
      8 C         -14.6651   -2.3329   18.9455 C.ar    1  UNL1        0.0089
      9 C         -15.5500   -3.1567   18.0576 C.ar    1  UNL1        0.0007
     10 C         -15.8076   -4.5978   18.3845 C.ar    1  UNL1        0.0294
     11 C         -15.2091    0.1843   19.2889 C.ar    1  UNL1        0.0089
     12 C         -16.3328   -0.1827   20.2124 C.ar    1  UNL1        0.0007
     13 C         -17.1345    0.8934   20.8827 C.ar    1  UNL1        0.0294
     14 C         -16.8126    2.3364   20.6295 C.ar    1  UNL1        0.1401
     15 F         -17.6143    3.4125   21.2999 F       1  UNL1       -0.2042
     16 C         -15.6889    2.7034   19.7061 C.ar    1  UNL1        0.0294
     17 C         -14.8872    1.6273   19.0358 C.ar    1  UNL1        0.0007
     18 C         -11.0147   -1.6502   17.4128 C.3     1  UNL1        0.1046
     19 N         -11.3579   -3.1004   17.5839 N.3     1  UNL1       -0.2706
     20 C         -12.2525   -3.7816   16.5911 C.3     1  UNL1        0.0722
     21 C         -12.5957   -5.2318   16.7622 C.3     1  UNL1        0.0174
     22 C         -12.0442   -6.0007   17.9262 C.3     1  UNL1        0.0028
     23 C         -11.1496   -5.3195   18.9189 C.3     1  UNL1        0.0174
     24 C         -10.8065   -3.8693   18.7478 C.3     1  UNL1        0.0722
     25 C         -12.3874   -7.4509   18.0973 C.3     1  UNL1        0.0004
     26 C         -13.5877   -8.0244   17.4041 C.3     1  UNL1        0.0047
     27 C         -14.3979   -9.0962   18.0710 C.3     1  UNL1        0.0264
     28 C         -15.8769   -9.1755   17.8336 C.ar    1  UNL1       -0.0222
     29 C         -16.6667  -10.3193   18.3974 C.ar    1  UNL1       -0.0043
     30 C         -18.1457  -10.3986   18.1600 C.ar    1  UNL1       -0.0003
     31 C         -18.8348   -9.3342   17.3588 C.ar    1  UNL1       -0.0000
     32 C         -18.0450   -8.1903   16.7950 C.ar    1  UNL1       -0.0003
     33 C         -16.5660   -8.1110   17.0323 C.ar    1  UNL1       -0.0043
@<TRIPOS>BOND
     1     4     5    1
     2     5     6   ar
     3     6     7   ar
     4     7     8   ar
     5     8     3    1
     6     3     2    1
     7     2     1    1
     8     1    18    1
     9    18    19    1
    10    19    20    1
    11    20    21    1
    12    21    22    1
    13    22    25    1
    14    25    26    1
    15    26    27    1
    16    27    28    1
    17    28    29   ar
    18    29    30   ar
    19    30    31   ar
    20    31    32   ar
    21    32    33   ar
    22    22    23    1
    23    23    24    1
    24     3    11    1
    25    11    12   ar
    26    12    13   ar
    27    13    14   ar
    28    14    15    1
    29    14    16   ar
    30    16    17   ar
    31     8     9   ar
    32     9    10   ar
    33    10     5   ar
    34    24    19    1
    35    17    11   ar
    36    33    28   ar
@<TRIPOS>MOLECULE
*****
 33 36 0 0 0
SMALL
GASTEIGER

@<TRIPOS>ATOM
      1 C           7.4638   -1.6045   25.3339 C.3     1  UNL1        0.1602
      2 O           8.1325   -2.5675   24.3982 O.3     1  UNL1       -0.3459
      3 C           7.3789   -3.7574   23.8821 C.3     1  UNL1        0.1598
      4 F           7.5980   -8.9663   26.8518 F       1  UNL1       -0.2042
      5 C           7.5432   -7.6641   26.1093 C.ar    1  UNL1        0.1401
      6 C           8.1435   -7.5562   24.7390 C.ar    1  UNL1        0.0294
      7 C           8.0887   -6.2540   23.9965 C.ar    1  UNL1        0.0007
      8 C           7.4337   -5.0596   24.6245 C.ar    1  UNL1        0.0089
      9 C           6.8334   -5.1675   25.9949 C.ar    1  UNL1        0.0007
     10 C           6.8882   -6.4697   26.7373 C.ar    1  UNL1        0.0294
     11 C           6.5707   -3.6450   22.6235 C.ar    1  UNL1        0.0089
     12 C           7.2530   -3.3725   21.3157 C.ar    1  UNL1        0.0007
     13 C           6.4448   -3.2601   20.0572 C.ar    1  UNL1        0.0294
     14 C           4.9542   -3.4202   20.1063 C.ar    1  UNL1        0.1401
     15 F           4.1459   -3.3078   18.8476 F       1  UNL1       -0.2042
     16 C           4.2718   -3.6927   21.4140 C.ar    1  UNL1        0.0294
     17 C           5.0801   -3.8051   22.6726 C.ar    1  UNL1        0.0007
     18 C           6.9272   -0.3038   24.8140 C.3     1  UNL1        0.1046
     19 N           5.7132   -0.2918   23.9331 N.3     1  UNL1       -0.2706
     20 C           5.8499    0.0187   22.4719 C.3     1  UNL1        0.0722
     21 C           4.6358    0.0307   21.5910 C.3     1  UNL1        0.0174
     22 C           3.2852   -0.2679   22.1712 C.3     1  UNL1        0.0028
     23 C           3.1486   -0.5784   23.6324 C.3     1  UNL1        0.0174
     24 C           4.3626   -0.5903   24.5133 C.3     1  UNL1        0.0722
     25 C           2.0712   -0.2559   21.2903 C.3     1  UNL1        0.0004
     26 C           2.0956   -0.9673   19.9699 C.3     1  UNL1        0.0047
     27 C           2.1020   -0.1793   18.6935 C.3     1  UNL1        0.0264
     28 C           3.3702    0.4631   18.2151 C.ar    1  UNL1       -0.0222
     29 C           3.6404    1.9069   18.5187 C.ar    1  UNL1       -0.0043
     30 C           4.9087    2.5494   18.0402 C.ar    1  UNL1       -0.0003
     31 C           5.9067    1.7479   17.2582 C.ar    1  UNL1       -0.0000
     32 C           5.6365    0.3040   16.9546 C.ar    1  UNL1       -0.0003
     33 C           4.3683   -0.3384   17.4331 C.ar    1  UNL1       -0.0043
@<TRIPOS>BOND
     1     4     5    1
     2     5     6   ar
     3     6     7   ar
     4     7     8   ar
     5     8     3    1
     6     3     2    1
     7     2     1    1
     8     1    18    1
     9    18    19    1
    10    19    20    1
    11    20    21    1
    12    21    22    1
    13    22    25    1
    14    25    26    1
    15    26    27    1
    16    27    28    1
    17    28    29   ar
    18    29    30   ar
    19    30    31   ar
    20    31    32   ar
    21    32    33   ar
    22    22    23    1
    23    23    24    1
    24     3    11    1
    25    11    12   ar
    26    12    13   ar
    27    13    14   ar
    28    14    15    1
    29    14    16   ar
    30    16    17   ar
    31     8     9   ar
    32     9    10   ar
    33    10     5   ar
    34    24    19    1
    35    17    11   ar
    36    33    28   ar
@<TRIPOS>MOLECULE
*****
 33 36 0 0 0
SMALL
GASTEIGER

@<TRIPOS>ATOM
      1 C          -0.3892    2.5655   20.0514 C.3     1  UNL1        0.1602
      2 O          -0.3068    1.3566   20.9356 O.3     1  UNL1       -0.3459
      3 C           0.6129    1.3553   22.1205 C.3     1  UNL1        0.1598
      4 F          -1.4792    2.8428   27.5437 F       1  UNL1       -0.2042
      5 C          -0.9562    2.4709   26.1879 C.ar    1  UNL1        0.1401
      6 C           0.0126    1.3349   26.0434 C.ar    1  UNL1        0.0294
      7 C           0.5356    0.9631   24.6877 C.ar    1  UNL1        0.0007
      8 C           0.0898    1.7272   23.4763 C.ar    1  UNL1        0.0089
      9 C          -0.8790    2.8631   23.6208 C.ar    1  UNL1        0.0007
     10 C          -1.4020    3.2350   24.9766 C.ar    1  UNL1        0.0294
     11 C           2.0556    0.9821   21.9497 C.ar    1  UNL1        0.0089
     12 C           3.1223    2.0275   22.0889 C.ar    1  UNL1        0.0007
     13 C           4.5650    1.6543   21.9180 C.ar    1  UNL1        0.0294
     14 C           4.9411    0.2357   21.6080 C.ar    1  UNL1        0.1401
     15 F           6.3839   -0.1374   21.4371 F       1  UNL1       -0.2042
     16 C           3.8745   -0.8097   21.4687 C.ar    1  UNL1        0.0294
     17 C           2.4317   -0.4365   21.6396 C.ar    1  UNL1        0.0007
     18 C           0.2282    2.5384   18.6846 C.3     1  UNL1        0.1046
     19 N           1.6503    2.0933   18.5127 N.3     1  UNL1       -0.2706
     20 C           1.9562    0.6518   18.2319 C.3     1  UNL1        0.0722
     21 C           3.3783    0.2067   18.0600 C.3     1  UNL1        0.0174
     22 C           4.4944    1.2030   18.1689 C.3     1  UNL1        0.0028
     23 C           4.1885    2.6443   18.4496 C.3     1  UNL1        0.0174
     24 C           2.7664    3.0895   18.6215 C.3     1  UNL1        0.0722
     25 C           5.9165    0.7578   17.9970 C.3     1  UNL1        0.0004
     26 C           6.2239   -0.4866   17.2177 C.3     1  UNL1        0.0047
     27 C           6.8348   -1.6709   17.9063 C.3     1  UNL1        0.0264
     28 C           5.9850   -2.5600   18.7649 C.ar    1  UNL1       -0.0222
     29 C           4.6266   -2.9843   18.2912 C.ar    1  UNL1       -0.0043
     30 C           3.7767   -3.8734   19.1499 C.ar    1  UNL1       -0.0003
     31 C           4.2854   -4.3382   20.4823 C.ar    1  UNL1       -0.0000
     32 C           5.6439   -3.9138   20.9560 C.ar    1  UNL1       -0.0003
     33 C           6.4937   -3.0248   20.0973 C.ar    1  UNL1       -0.0043
@<TRIPOS>BOND
     1     4     5    1
     2     5     6   ar
     3     6     7   ar
     4     7     8   ar
     5     8     3    1
     6     3     2    1
     7     2     1    1
     8     1    18    1
     9    18    19    1
    10    19    20    1
    11    20    21    1
    12    21    22    1
    13    22    25    1
    14    25    26    1
    15    26    27    1
    16    27    28    1
    17    28    29   ar
    18    29    30   ar
    19    30    31   ar
    20    31    32   ar
    21    32    33   ar
    22    22    23    1
    23    23    24    1
    24     3    11    1
    25    11    12   ar
    26    12    13   ar
    27    13    14   ar
    28    14    15    1
    29    14    16   ar
    30    16    17   ar
    31     8     9   ar
    32     9    10   ar
    33    10     5   ar
    34    24    19    1
    35    17    11   ar
    36    33    28   ar
