@<TRIPOS>MOLECULE
*****
 30 33 0 0 0
SMALL
GASTEIGER

@<TRIPOS>ATOM
      1 C          -7.6129  -18.5046   22.3204 C.3     1  UNL1        0.2026
      2 C          -8.4402  -18.8635   21.1217 C.ar    1  UNL1        0.0163
      3 C          -8.2968  -19.9427   20.0899 C.ar    1  UNL1        0.0104
      4 C          -9.3010  -20.0590   18.9817 C.ar    1  UNL1        0.0583
      5 CL         -9.1577  -21.1382   17.9498 Cl      1  UNL1       -0.0822
      6 C         -10.4486  -19.0960   18.9054 C.ar    1  UNL1        0.0224
      7 C         -10.5919  -18.0168   19.9373 C.ar    1  UNL1        0.0544
      8 CL        -11.7395  -17.0539   19.8610 Cl      1  UNL1       -0.0826
      9 C          -9.5877  -17.9006   21.0454 C.ar    1  UNL1       -0.0106
     10 C          -9.4696  -16.9466   22.1969 C.3     1  UNL1        0.0470
     11 C          -8.2491  -17.3199   22.9849 C.3     1  UNL1        0.1066
     12 N          -7.7521  -16.6297   24.2204 N.3     1  UNL1       -0.2691
     13 C          -8.6144  -16.7759   25.4391 C.3     1  UNL1        0.0736
     14 C          -8.3960  -16.2130   26.8122 C.3     1  UNL1        0.0344
     15 C          -7.2615  -15.3650   27.3059 C.3     1  UNL1        0.0700
     16 N          -6.0651  -14.8703   26.5483 N.3     1  UNL1       -0.2963
     17 C          -5.7078  -15.1016   25.1099 C.3     1  UNL1        0.0861
     18 C          -6.4585  -15.8845   24.0739 C.3     1  UNL1        0.0895
     19 H          -5.2657  -15.2284   27.0709 H       1  UNL1        0.1233
     20 O          -6.3679  -19.2072   22.7747 O.3     1  UNL1       -0.4734
     21 C          -2.3794  -18.0748   21.0257 C.ar    1  UNL1        0.1059
     22 C          -3.3819  -18.8143   20.1903 C.ar    1  UNL1        0.0215
     23 C          -4.7114  -19.1918   20.7732 C.ar    1  UNL1        0.0382
     24 C          -5.0385  -18.8297   22.1917 C.ar    1  UNL1        0.1390
     25 C          -4.0358  -18.0902   23.0271 C.ar    1  UNL1        0.0382
     26 C          -2.7063  -17.7127   22.4441 C.ar    1  UNL1        0.0215
     27 C           0.2796  -17.3198   19.8597 C.3     1  UNL1        0.1816
     28 S          -1.0499  -17.6973   20.4427 S.O2    1  UNL1        0.0105
     29 O          -0.8833  -19.0929   19.9186 O.2     1  UNL1       -0.1686
     30 O          -1.2163  -16.3017   20.9667 O.2     1  UNL1       -0.1686
@<TRIPOS>BOND
     1    27    28    1
     2    28    29    2
     3    28    30    2
     4    28    21    1
     5    21    22   ar
     6    22    23   ar
     7    23    24   ar
     8    24    20    1
     9     1    20    1
    10     1     2    1
    11     2     3   ar
    12     3     4   ar
    13     4     5    1
    14     4     6   ar
    15     6     7   ar
    16     7     8    1
    17     7     9   ar
    18     9    10    1
    19    10    11    1
    20    11    12    1
    21    12    13    1
    22    13    14    1
    23    14    15    1
    24    15    16    1
    25    16    17    1
    26    17    18    1
    27    24    25   ar
    28    25    26   ar
    29    26    21   ar
    30    11     1    1
    31    18    12    1
    32     9     2   ar
    33    16    19    1
@<TRIPOS>MOLECULE
*****
 30 33 0 0 0
SMALL
GASTEIGER

@<TRIPOS>ATOM
      1 C         -13.6044   -3.7918   19.4539 C.3     1  UNL1        0.2026
      2 C         -14.0508   -2.3664   19.3160 C.ar    1  UNL1        0.0163
      3 C         -15.2058   -1.6146   19.9082 C.ar    1  UNL1        0.0104
      4 C         -15.4028   -0.1639   19.5818 C.ar    1  UNL1        0.0583
      5 CL        -16.5578    0.5880   20.1740 Cl      1  UNL1       -0.0822
      6 C         -14.4447    0.5350   18.6633 C.ar    1  UNL1        0.0224
      7 C         -13.2897   -0.2168   18.0712 C.ar    1  UNL1        0.0544
      8 CL        -12.3316    0.4822   17.1527 Cl      1  UNL1       -0.0826
      9 C         -13.0927   -1.6675   18.3975 C.ar    1  UNL1       -0.0106
     10 C         -12.0543   -2.6610   17.9678 C.3     1  UNL1        0.0470
     11 C         -12.3705   -3.9739   18.6206 C.3     1  UNL1        0.1066
     12 N         -11.5899   -5.2455   18.4672 N.3     1  UNL1       -0.2691
     13 C         -10.2825   -5.2991   19.2005 C.3     1  UNL1        0.0736
     14 C          -9.2822   -6.4159   19.2484 C.3     1  UNL1        0.0344
     15 C          -9.3423   -7.7549   18.5749 C.3     1  UNL1        0.0700
     16 N         -10.4175   -8.3078   17.6871 N.3     1  UNL1       -0.2963
     17 C         -11.6982   -7.6582   17.2535 C.3     1  UNL1        0.0861
     18 C         -12.2200   -6.2954   17.6007 C.3     1  UNL1        0.0895
     19 H         -10.7110   -9.1694   18.1474 H       1  UNL1        0.1233
     20 O         -14.2744   -4.8495   20.2800 O.3     1  UNL1       -0.4734
     21 C         -17.7526   -7.1541   18.5945 C.ar    1  UNL1        0.1059
     22 C         -17.9324   -5.7255   19.0147 C.ar    1  UNL1        0.0215
     23 C         -16.7731   -4.9572   19.5765 C.ar    1  UNL1        0.0382
     24 C         -15.4337   -5.6177   19.7182 C.ar    1  UNL1        0.1390
     25 C         -15.2539   -7.0464   19.2979 C.ar    1  UNL1        0.0382
     26 C         -16.4132   -7.8146   18.7361 C.ar    1  UNL1        0.0215
     27 C         -20.0713   -8.6906   17.4708 C.3     1  UNL1        0.1816
     28 S         -18.9119   -7.9223   18.0326 S.O2    1  UNL1        0.0105
     29 O         -19.5415   -6.6392   17.5771 O.2     1  UNL1       -0.1686
     30 O         -18.2824   -9.2054   18.4881 O.2     1  UNL1       -0.1686
@<TRIPOS>BOND
     1    27    28    1
     2    28    29    2
     3    28    30    2
     4    28    21    1
     5    21    22   ar
     6    22    23   ar
     7    23    24   ar
     8    24    20    1
     9     1    20    1
    10     1     2    1
    11     2     3   ar
    12     3     4   ar
    13     4     5    1
    14     4     6   ar
    15     6     7   ar
    16     7     8    1
    17     7     9   ar
    18     9    10    1
    19    10    11    1
    20    11    12    1
    21    12    13    1
    22    13    14    1
    23    14    15    1
    24    15    16    1
    25    16    17    1
    26    17    18    1
    27    24    25   ar
    28    25    26   ar
    29    26    21   ar
    30    11     1    1
    31    18    12    1
    32     9     2   ar
    33    16    19    1
@<TRIPOS>MOLECULE
*****
 30 33 0 0 0
SMALL
GASTEIGER

@<TRIPOS>ATOM
      1 C         -14.1529   -5.4602   17.9915 C.3     1  UNL1        0.2026
      2 C         -12.8707   -4.6831   18.0357 C.ar    1  UNL1        0.0163
      3 C         -12.5215   -3.2962   17.5836 C.ar    1  UNL1        0.0104
      4 C         -11.1249   -2.7787   17.7616 C.ar    1  UNL1        0.0583
      5 CL        -10.7757   -1.3917   17.3095 Cl      1  UNL1       -0.0822
      6 C         -10.0775   -3.6482   18.3917 C.ar    1  UNL1        0.0224
      7 C         -10.4267   -5.0351   18.8438 C.ar    1  UNL1        0.0544
      8 CL         -9.3793   -5.9046   19.4739 Cl      1  UNL1       -0.0826
      9 C         -11.8233   -5.5526   18.6658 C.ar    1  UNL1       -0.0106
     10 C         -12.4583   -6.8670   19.0110 C.3     1  UNL1        0.0470
     11 C         -13.8981   -6.8099   18.5942 C.3     1  UNL1        0.1066
     12 N         -14.9060   -7.9095   18.7525 N.3     1  UNL1       -0.2691
     13 C         -16.0788   -7.5954   19.6334 C.3     1  UNL1        0.0736
     14 C         -17.2431   -8.4721   19.9882 C.3     1  UNL1        0.0344
     15 C         -17.5223   -9.8792   19.5499 C.3     1  UNL1        0.0700
     16 N         -16.7060  -10.7572   18.6483 N.3     1  UNL1       -0.2963
     17 C         -15.4090  -10.4449   17.9625 C.3     1  UNL1        0.0861
     18 C         -14.6079   -9.1776   18.0088 C.3     1  UNL1        0.0895
     19 H         -17.3418  -11.0072   17.8909 H       1  UNL1        0.1233
     20 O         -15.4605   -4.9731   17.4411 O.3     1  UNL1       -0.4734
     21 C         -17.6238   -1.5783   19.4526 C.ar    1  UNL1        0.1059
     22 C         -17.7066   -2.9632   20.0228 C.ar    1  UNL1        0.0215
     23 C         -16.9855   -4.0948   19.3524 C.ar    1  UNL1        0.0382
     24 C         -16.1816   -3.8416   18.1116 C.ar    1  UNL1        0.1390
     25 C         -16.0988   -2.4566   17.5413 C.ar    1  UNL1        0.0382
     26 C         -16.8198   -1.3250   18.2118 C.ar    1  UNL1        0.0215
     27 C         -19.0659    0.6849   20.7935 C.3     1  UNL1        0.1816
     28 S         -18.3449   -0.4467   20.1230 S.O2    1  UNL1        0.0105
     29 O         -19.1447   -1.4310   20.9241 O.2     1  UNL1       -0.1686
     30 O         -17.5451    0.5375   19.3220 O.2     1  UNL1       -0.1686
@<TRIPOS>BOND
     1    27    28    1
     2    28    29    2
     3    28    30    2
     4    28    21    1
     5    21    22   ar
     6    22    23   ar
     7    23    24   ar
     8    24    20    1
     9     1    20    1
    10     1     2    1
    11     2     3   ar
    12     3     4   ar
    13     4     5    1
    14     4     6   ar
    15     6     7   ar
    16     7     8    1
    17     7     9   ar
    18     9    10    1
    19    10    11    1
    20    11    12    1
    21    12    13    1
    22    13    14    1
    23    14    15    1
    24    15    16    1
    25    16    17    1
    26    17    18    1
    27    24    25   ar
    28    25    26   ar
    29    26    21   ar
    30    11     1    1
    31    18    12    1
    32     9     2   ar
    33    16    19    1
