@<TRIPOS>MOLECULE
*****
 34 37 0 0 0
SMALL
GASTEIGER

@<TRIPOS>ATOM
      1 C         -15.0675   -7.2353   18.1440 C.3     1  UNL1        0.1351
      2 C         -15.2646   -6.0059   18.9805 C.3     1  UNL1        0.0642
      3 C         -14.0849   -5.1622   19.3632 C.3     1  UNL1        0.1020
      4 C         -12.7081   -5.5478   18.9095 C.ar    1  UNL1        0.0319
      5 C         -11.5285   -4.7041   19.2923 C.ar    1  UNL1        0.0005
      6 C         -10.1518   -5.0899   18.8385 C.ar    1  UNL1        0.0022
      7 C          -9.9548   -6.3193   18.0020 C.ar    1  UNL1        0.0328
      8 C         -11.1344   -7.1630   17.6193 C.ar    1  UNL1        0.1735
      9 F         -10.9374   -8.3924   16.7828 F       1  UNL1       -0.2010
     10 C         -12.5111   -6.7773   18.0730 C.ar    1  UNL1        0.1629
     11 O         -13.6908   -7.6210   17.6903 O.3     1  UNL1       -0.4805
     12 N         -14.2820   -3.9327   20.1997 N.am    1  UNL1       -0.2863
     13 C         -15.0443   -2.7646   19.6482 C.2     1  UNL1        0.3047
     14 O         -15.6097   -2.8259   18.2601 O.2     1  UNL1       -0.2525
     15 N         -15.2414   -1.5352   20.4847 N.am    1  UNL1       -0.2683
     16 H         -13.9109   -3.8925   21.1107 H       1  UNL1        0.1512
     17 H         -14.8703   -1.4950   21.3957 H       1  UNL1        0.1564
     18 C         -16.0038   -0.3670   19.9331 C.ar    1  UNL1        0.0516
     19 C         -17.4221   -0.1285   20.3590 C.ar    1  UNL1        0.0147
     20 C         -18.1845    1.0396   19.8074 C.ar    1  UNL1        0.0013
     21 C         -17.5285    1.9692   18.8300 C.ar    1  UNL1        0.0016
     22 C         -16.1101    1.7307   18.4041 C.ar    1  UNL1        0.0204
     23 C         -15.4542    2.6604   17.4266 C.ar    1  UNL1        0.0984
     24 N         -14.0358    2.4219   17.0007 N.ar    1  UNL1       -0.2481
     25 C         -13.2734    1.2537   17.5523 C.ar    1  UNL1        0.0594
     26 C         -11.8551    1.0153   17.1264 C.3     1  UNL1        0.0521
     27 C         -13.9294    0.3241   18.5298 C.ar    1  UNL1        0.0160
     28 C         -15.3478    0.5626   18.9556 C.ar    1  UNL1        0.0162
     29 C         -15.3871   -8.4810   17.3720 C.3     1  UNL1        0.0401
     30 C         -16.3767  -10.6959   18.3023 C.3     1  UNL1        0.0001
     31 C         -15.1908   -9.8267   18.0049 C.3     1  UNL1        0.0036
     32 C         -16.5552   -7.2822   18.3296 C.3     1  UNL1        0.0401
     33 C         -17.1431   -7.1767   19.7056 C.3     1  UNL1        0.0036
     34 C         -18.4130   -7.9032   20.0364 C.3     1  UNL1        0.0001
@<TRIPOS>BOND
     1    30    31    1
     2    31    29    1
     3    29     1    1
     4     1    32    1
     5    32    33    1
     6    33    34    1
     7     1     2    1
     8     2     3    1
     9     3    12    1
    10    12    13   am
    11    13    14    2
    12    13    15   am
    13    15    18    1
    14    18    19   ar
    15    19    20   ar
    16    20    21   ar
    17    21    22   ar
    18    22    23   ar
    19    23    24   ar
    20    24    25   ar
    21    25    26    1
    22    25    27   ar
    23    27    28   ar
    24     3     4    1
    25     4     5   ar
    26     5     6   ar
    27     6     7   ar
    28     7     8   ar
    29     8     9    1
    30     8    10   ar
    31    10    11    1
    32    11     1    1
    33    28    18   ar
    34    10     4   ar
    35    28    22   ar
    36    12    16    1
    37    15    17    1
@<TRIPOS>MOLECULE
*****
 34 37 0 0 0
SMALL
GASTEIGER

@<TRIPOS>ATOM
      1 C           3.4465   -1.0992   19.5116 C.3     1  UNL1        0.1351
      2 C           2.7379    0.2156   19.6492 C.3     1  UNL1        0.0642
      3 C           2.4685    0.7835   21.0111 C.3     1  UNL1        0.1020
      4 C           2.9077    0.0365   22.2355 C.ar    1  UNL1        0.0319
      5 C           2.6383    0.6044   23.5974 C.ar    1  UNL1        0.0005
      6 C           3.0776   -0.1425   24.8218 C.ar    1  UNL1        0.0022
      7 C           3.7862   -1.4574   24.6842 C.ar    1  UNL1        0.0328
      8 C           4.0556   -2.0253   23.3223 C.ar    1  UNL1        0.1735
      9 F           4.7643   -3.3401   23.1847 F       1  UNL1       -0.2010
     10 C           3.6164   -1.2783   22.0980 C.ar    1  UNL1        0.1629
     11 O           3.8858   -1.8462   20.7359 O.3     1  UNL1       -0.4805
     12 N           1.7598    2.0984   21.1487 N.am    1  UNL1       -0.2863
     13 C           0.2643    2.1583   21.0496 C.2     1  UNL1        0.3047
     14 O          -0.5226    0.9034   20.8129 O.2     1  UNL1       -0.2525
     15 N          -0.4444    3.4732   21.1872 N.am    1  UNL1       -0.2683
     16 H           2.2762    2.9220   21.3040 H       1  UNL1        0.1512
     17 H           0.0721    4.2968   21.3425 H       1  UNL1        0.1564
     18 C          -1.9399    3.5331   21.0881 C.ar    1  UNL1        0.0516
     19 C          -2.6015    3.5704   19.7424 C.ar    1  UNL1        0.0147
     20 C          -4.0970    3.6303   19.6433 C.ar    1  UNL1        0.0013
     21 C          -4.9309    3.6529   20.8900 C.ar    1  UNL1        0.0016
     22 C          -4.2694    3.6156   22.2356 C.ar    1  UNL1        0.0204
     23 C          -5.1033    3.6382   23.4822 C.ar    1  UNL1        0.0984
     24 N          -4.4417    3.6009   24.8279 N.ar    1  UNL1       -0.2481
     25 C          -2.9461    3.5410   24.9270 C.ar    1  UNL1        0.0594
     26 C          -2.2845    3.5038   26.2727 C.3     1  UNL1        0.0521
     27 C          -2.1122    3.5184   23.6804 C.ar    1  UNL1        0.0160
     28 C          -2.7739    3.5557   22.3347 C.ar    1  UNL1        0.0162
     29 C           4.0789   -2.2994   18.8716 C.3     1  UNL1        0.0401
     30 C           4.4374   -4.8727   18.8553 C.3     1  UNL1        0.0001
     31 C           3.6175   -3.6777   19.2426 C.3     1  UNL1        0.0036
     32 C           3.2269   -0.7691   18.0650 C.3     1  UNL1        0.0401
     33 C           4.3768   -0.8130   17.1027 C.3     1  UNL1        0.0036
     34 C           5.3084    0.3575   16.9934 C.3     1  UNL1        0.0001
@<TRIPOS>BOND
     1    30    31    1
     2    31    29    1
     3    29     1    1
     4     1    32    1
     5    32    33    1
     6    33    34    1
     7     1     2    1
     8     2     3    1
     9     3    12    1
    10    12    13   am
    11    13    14    2
    12    13    15   am
    13    15    18    1
    14    18    19   ar
    15    19    20   ar
    16    20    21   ar
    17    21    22   ar
    18    22    23   ar
    19    23    24   ar
    20    24    25   ar
    21    25    26    1
    22    25    27   ar
    23    27    28   ar
    24     3     4    1
    25     4     5   ar
    26     5     6   ar
    27     6     7   ar
    28     7     8   ar
    29     8     9    1
    30     8    10   ar
    31    10    11    1
    32    11     1    1
    33    28    18   ar
    34    10     4   ar
    35    28    22   ar
    36    12    16    1
    37    15    17    1
@<TRIPOS>MOLECULE
*****
 34 37 0 0 0
SMALL
GASTEIGER

@<TRIPOS>ATOM
      1 C         -11.5409   -3.7936   18.9148 C.3     1  UNL1        0.1351
      2 C         -12.7587   -3.2059   19.5640 C.3     1  UNL1        0.0642
      3 C         -13.9945   -4.0391   19.7329 C.3     1  UNL1        0.1020
      4 C         -14.0124   -5.4601   19.2527 C.ar    1  UNL1        0.0319
      5 C         -15.2482   -6.2933   19.4216 C.ar    1  UNL1        0.0005
      6 C         -15.2661   -7.7142   18.9414 C.ar    1  UNL1        0.0022
      7 C         -14.0482   -8.3019   18.2922 C.ar    1  UNL1        0.0328
      8 C         -12.8124   -7.4687   18.1233 C.ar    1  UNL1        0.1735
      9 F         -11.5945   -8.0564   17.4741 F       1  UNL1       -0.2010
     10 C         -12.7945   -6.0478   18.6035 C.ar    1  UNL1        0.1629
     11 O         -11.5587   -5.2145   18.4346 O.3     1  UNL1       -0.4805
     12 N         -15.2124   -3.4514   20.3821 N.am    1  UNL1       -0.2863
     13 C         -16.1403   -2.5817   19.5868 C.2     1  UNL1        0.3047
     14 O         -15.8504   -2.2996   18.1423 O.2     1  UNL1       -0.2525
     15 N         -17.3582   -1.9940   20.2360 N.am    1  UNL1       -0.2683
     16 H         -15.4027   -3.6366   21.3301 H       1  UNL1        0.1512
     17 H         -17.5485   -2.1792   21.1840 H       1  UNL1        0.1564
     18 C         -18.2862   -1.1243   19.4407 C.ar    1  UNL1        0.0516
     19 C         -19.1053   -1.7176   18.3330 C.ar    1  UNL1        0.0147
     20 C         -20.0332   -0.8478   17.5378 C.ar    1  UNL1        0.0013
     21 C         -20.1420    0.6152   17.8501 C.ar    1  UNL1        0.0016
     22 C         -19.3228    1.2086   18.9578 C.ar    1  UNL1        0.0204
     23 C         -19.4316    2.6716   19.2702 C.ar    1  UNL1        0.0984
     24 N         -18.6124    3.2649   20.3778 N.ar    1  UNL1       -0.2481
     25 C         -17.6844    2.3952   21.1731 C.ar    1  UNL1        0.0594
     26 C         -16.8653    2.9885   22.2808 C.3     1  UNL1        0.0521
     27 C         -17.5757    0.9321   20.8607 C.ar    1  UNL1        0.0160
     28 C         -18.3949    0.3388   19.7530 C.ar    1  UNL1        0.0162
     29 C         -10.1489   -3.9007   18.3663 C.3     1  UNL1        0.0401
     30 C          -8.8885   -3.7147   16.1020 C.3     1  UNL1        0.0001
     31 C          -9.9317   -4.3697   16.9581 C.3     1  UNL1        0.0036
     32 C         -11.0396   -2.4098   19.2046 C.3     1  UNL1        0.0401
     33 C         -11.6417   -1.2310   18.4990 C.3     1  UNL1        0.0036
     34 C         -10.9173   -0.5942   17.3502 C.3     1  UNL1        0.0001
@<TRIPOS>BOND
     1    30    31    1
     2    31    29    1
     3    29     1    1
     4     1    32    1
     5    32    33    1
     6    33    34    1
     7     1     2    1
     8     2     3    1
     9     3    12    1
    10    12    13   am
    11    13    14    2
    12    13    15   am
    13    15    18    1
    14    18    19   ar
    15    19    20   ar
    16    20    21   ar
    17    21    22   ar
    18    22    23   ar
    19    23    24   ar
    20    24    25   ar
    21    25    26    1
    22    25    27   ar
    23    27    28   ar
    24     3     4    1
    25     4     5   ar
    26     5     6   ar
    27     6     7   ar
    28     7     8   ar
    29     8     9    1
    30     8    10   ar
    31    10    11    1
    32    11     1    1
    33    28    18   ar
    34    10     4   ar
    35    28    22   ar
    36    12    16    1
    37    15    17    1
@<TRIPOS>MOLECULE
*****
 34 37 0 0 0
SMALL
GASTEIGER

@<TRIPOS>ATOM
      1 C           2.6464   -1.0511   20.9197 C.3     1  UNL1        0.1351
      2 C           4.0327   -1.4690   21.3113 C.3     1  UNL1        0.0642
      3 C           4.6103   -1.0184   22.6202 C.3     1  UNL1        0.1020
      4 C           3.8016   -0.1497   23.5375 C.ar    1  UNL1        0.0319
      5 C           4.3792    0.3010   24.8464 C.ar    1  UNL1        0.0005
      6 C           3.5705    1.1696   25.7637 C.ar    1  UNL1        0.0022
      7 C           2.1841    1.5876   25.3720 C.ar    1  UNL1        0.0328
      8 C           1.6065    1.1369   24.0631 C.ar    1  UNL1        0.1735
      9 F           0.2202    1.5549   23.6715 F       1  UNL1       -0.2010
     10 C           2.4153    0.2683   23.1459 C.ar    1  UNL1        0.1629
     11 O           1.8377   -0.1824   21.8369 O.3     1  UNL1       -0.4805
     12 N           5.9967   -1.4363   23.0119 N.am    1  UNL1       -0.2863
     13 C           6.2821   -2.8713   23.3424 C.2     1  UNL1        0.3047
     14 O           5.1813   -3.8884   23.2812 O.2     1  UNL1       -0.2525
     15 N           7.6685   -3.2893   23.7340 N.am    1  UNL1       -0.2683
     16 H           6.7192   -0.7688   23.0520 H       1  UNL1        0.1512
     17 H           8.3910   -2.6218   23.7742 H       1  UNL1        0.1564
     18 C           7.9539   -4.7244   24.0645 C.ar    1  UNL1        0.0516
     19 C           8.4283   -5.6607   22.9930 C.ar    1  UNL1        0.0147
     20 C           8.7137   -7.0957   23.3235 C.ar    1  UNL1        0.0013
     21 C           8.5248   -7.5944   24.7255 C.ar    1  UNL1        0.0016
     22 C           8.0505   -6.6580   25.7970 C.ar    1  UNL1        0.0204
     23 C           7.8616   -7.1567   27.1990 C.ar    1  UNL1        0.0984
     24 N           7.3872   -6.2203   28.2706 N.ar    1  UNL1       -0.2481
     25 C           7.1018   -4.7852   27.9401 C.ar    1  UNL1        0.0594
     26 C           6.6274   -3.8489   29.0116 C.3     1  UNL1        0.0521
     27 C           7.2907   -4.2866   26.5381 C.ar    1  UNL1        0.0160
     28 C           7.7650   -5.2230   25.4665 C.ar    1  UNL1        0.0162
     29 C           1.3894   -0.9188   20.1121 C.3     1  UNL1        0.0401
     30 C           1.0137    1.1227   18.5495 C.3     1  UNL1        0.0001
     31 C           0.7954    0.4364   19.8654 C.3     1  UNL1        0.0036
     32 C           3.0186   -1.8738   19.7220 C.3     1  UNL1        0.0401
     33 C           3.7633   -3.1637   19.9001 C.3     1  UNL1        0.0036
     34 C           3.3694   -4.3731   19.1050 C.3     1  UNL1        0.0001
@<TRIPOS>BOND
     1    30    31    1
     2    31    29    1
     3    29     1    1
     4     1    32    1
     5    32    33    1
     6    33    34    1
     7     1     2    1
     8     2     3    1
     9     3    12    1
    10    12    13   am
    11    13    14    2
    12    13    15   am
    13    15    18    1
    14    18    19   ar
    15    19    20   ar
    16    20    21   ar
    17    21    22   ar
    18    22    23   ar
    19    23    24   ar
    20    24    25   ar
    21    25    26    1
    22    25    27   ar
    23    27    28   ar
    24     3     4    1
    25     4     5   ar
    26     5     6   ar
    27     6     7   ar
    28     7     8   ar
    29     8     9    1
    30     8    10   ar
    31    10    11    1
    32    11     1    1
    33    28    18   ar
    34    10     4   ar
    35    28    22   ar
    36    12    16    1
    37    15    17    1
@<TRIPOS>MOLECULE
*****
 34 37 0 0 0
SMALL
GASTEIGER

@<TRIPOS>ATOM
      1 C          -2.7656    3.4946   24.8521 C.3     1  UNL1        0.1351
      2 C          -1.4173    3.5239   24.1953 C.3     1  UNL1        0.0642
      3 C          -1.3126    3.5779   22.7000 C.3     1  UNL1        0.1020
      4 C          -2.5561    3.6027   21.8614 C.ar    1  UNL1        0.0319
      5 C          -2.4513    3.6567   20.3661 C.ar    1  UNL1        0.0005
      6 C          -3.6948    3.6815   19.5276 C.ar    1  UNL1        0.0022
      7 C          -5.0430    3.6522   20.1844 C.ar    1  UNL1        0.0328
      8 C          -5.1478    3.5982   21.6797 C.ar    1  UNL1        0.1735
      9 F          -6.4960    3.5689   22.3365 F       1  UNL1       -0.2010
     10 C          -3.9043    3.5734   22.5182 C.ar    1  UNL1        0.1629
     11 O          -4.0090    3.5194   24.0136 O.3     1  UNL1       -0.4805
     12 N           0.0357    3.6072   22.0432 N.am    1  UNL1       -0.2863
     13 C           0.5667    2.3788   21.3657 C.2     1  UNL1        0.3047
     14 O          -0.2505    1.1211   21.3449 O.2     1  UNL1       -0.2525
     15 N           1.9149    2.4081   20.7088 N.am    1  UNL1       -0.2683
     16 H           0.5720    4.4326   22.0568 H       1  UNL1        0.1512
     17 H           2.4513    3.2335   20.7224 H       1  UNL1        0.1564
     18 C           2.4460    1.1796   20.0313 C.ar    1  UNL1        0.0516
     19 C           2.4475    1.0903   18.5340 C.ar    1  UNL1        0.0147
     20 C           2.9785   -0.1381   17.8565 C.ar    1  UNL1        0.0013
     21 C           3.5080   -1.2772   18.6764 C.ar    1  UNL1        0.0016
     22 C           3.5064   -1.1879   20.1737 C.ar    1  UNL1        0.0204
     23 C           4.0359   -2.3270   20.9935 C.ar    1  UNL1        0.0984
     24 N           4.0343   -2.2376   22.4909 N.ar    1  UNL1       -0.2481
     25 C           3.5033   -1.0092   23.1684 C.ar    1  UNL1        0.0594
     26 C           3.5018   -0.9199   24.6657 C.3     1  UNL1        0.0521
     27 C           2.9738    0.1299   22.3485 C.ar    1  UNL1        0.0160
     28 C           2.9754    0.0405   20.8512 C.ar    1  UNL1        0.0162
     29 C          -3.8076    3.4515   25.9302 C.3     1  UNL1        0.0401
     30 C          -5.2871    5.3061   26.9894 C.3     1  UNL1        0.0001
     31 C          -3.9635    4.6107   26.8695 C.3     1  UNL1        0.0036
     32 C          -1.8840    3.4548   26.0651 C.3     1  UNL1        0.0401
     33 C          -0.9383    2.3082   26.2677 C.3     1  UNL1        0.0036
     34 C          -0.9478    1.5477   27.5605 C.3     1  UNL1        0.0001
@<TRIPOS>BOND
     1    30    31    1
     2    31    29    1
     3    29     1    1
     4     1    32    1
     5    32    33    1
     6    33    34    1
     7     1     2    1
     8     2     3    1
     9     3    12    1
    10    12    13   am
    11    13    14    2
    12    13    15   am
    13    15    18    1
    14    18    19   ar
    15    19    20   ar
    16    20    21   ar
    17    21    22   ar
    18    22    23   ar
    19    23    24   ar
    20    24    25   ar
    21    25    26    1
    22    25    27   ar
    23    27    28   ar
    24     3     4    1
    25     4     5   ar
    26     5     6   ar
    27     6     7   ar
    28     7     8   ar
    29     8     9    1
    30     8    10   ar
    31    10    11    1
    32    11     1    1
    33    28    18   ar
    34    10     4   ar
    35    28    22   ar
    36    12    16    1
    37    15    17    1
@<TRIPOS>MOLECULE
*****
 34 37 0 0 0
SMALL
GASTEIGER

@<TRIPOS>ATOM
      1 C         -12.9108   -6.2612   18.9008 C.3     1  UNL1        0.1351
      2 C         -13.7080   -5.1603   19.5353 C.3     1  UNL1        0.0642
      3 C         -15.1718   -5.3514   19.8010 C.3     1  UNL1        0.1020
      4 C         -15.8385   -6.6436   19.4323 C.ar    1  UNL1        0.0319
      5 C         -17.3023   -6.8348   19.6980 C.ar    1  UNL1        0.0005
      6 C         -17.9690   -8.1269   19.3293 C.ar    1  UNL1        0.0022
      7 C         -17.1718   -9.2278   18.6948 C.ar    1  UNL1        0.0328
      8 C         -15.7080   -9.0366   18.4291 C.ar    1  UNL1        0.1735
      9 F         -14.9109  -10.1375   17.7947 F       1  UNL1       -0.2010
     10 C         -15.0414   -7.7445   18.7978 C.ar    1  UNL1        0.1629
     11 O         -13.5775   -7.5533   18.5321 O.3     1  UNL1       -0.4805
     12 N         -15.9689   -4.2505   20.4354 N.am    1  UNL1       -0.2863
     13 C         -16.6046   -3.1956   19.5793 C.2     1  UNL1        0.3047
     14 O         -16.4432   -3.2415   18.0887 O.2     1  UNL1       -0.2525
     15 N         -17.4018   -2.0947   20.2138 N.am    1  UNL1       -0.2683
     16 H         -16.0749   -4.2203   21.4137 H       1  UNL1        0.1512
     17 H         -17.5077   -2.0645   21.1921 H       1  UNL1        0.1564
     18 C         -18.0375   -1.0397   19.3576 C.ar    1  UNL1        0.0516
     19 C         -19.5280   -1.0045   19.1936 C.ar    1  UNL1        0.0147
     20 C         -20.1637    0.0504   18.3375 C.ar    1  UNL1        0.0013
     21 C         -19.3087    1.0702   17.6453 C.ar    1  UNL1        0.0016
     22 C         -17.8182    1.0350   17.8092 C.ar    1  UNL1        0.0204
     23 C         -16.9632    2.0548   17.1169 C.ar    1  UNL1        0.0984
     24 N         -15.4727    2.0196   17.2809 N.ar    1  UNL1       -0.2481
     25 C         -14.8369    0.9646   18.1371 C.ar    1  UNL1        0.0594
     26 C         -13.3464    0.9294   18.3010 C.3     1  UNL1        0.0521
     27 C         -15.6919   -0.0551   18.8293 C.ar    1  UNL1        0.0160
     28 C         -17.1825   -0.0199   18.6653 C.ar    1  UNL1        0.0162
     29 C         -11.7411   -7.0028   18.3250 C.3     1  UNL1        0.0401
     30 C          -9.3295   -7.8086   18.8594 C.3     1  UNL1        0.0001
     31 C         -10.3537   -6.7135   18.8168 C.3     1  UNL1        0.0036
     32 C         -11.8379   -5.2266   19.0696 C.3     1  UNL1        0.0401
     33 C         -12.1621   -3.7734   18.8877 C.3     1  UNL1        0.0036
     34 C         -11.0605   -2.7831   18.6515 C.3     1  UNL1        0.0001
@<TRIPOS>BOND
     1    30    31    1
     2    31    29    1
     3    29     1    1
     4     1    32    1
     5    32    33    1
     6    33    34    1
     7     1     2    1
     8     2     3    1
     9     3    12    1
    10    12    13   am
    11    13    14    2
    12    13    15   am
    13    15    18    1
    14    18    19   ar
    15    19    20   ar
    16    20    21   ar
    17    21    22   ar
    18    22    23   ar
    19    23    24   ar
    20    24    25   ar
    21    25    26    1
    22    25    27   ar
    23    27    28   ar
    24     3     4    1
    25     4     5   ar
    26     5     6   ar
    27     6     7   ar
    28     7     8   ar
    29     8     9    1
    30     8    10   ar
    31    10    11    1
    32    11     1    1
    33    28    18   ar
    34    10     4   ar
    35    28    22   ar
    36    12    16    1
    37    15    17    1
@<TRIPOS>MOLECULE
*****
 34 37 0 0 0
SMALL
GASTEIGER

@<TRIPOS>ATOM
      1 C          -4.0801    3.5664   22.8320 C.3     1  UNL1        0.1351
      2 C          -2.6053    3.5930   22.5599 C.3     1  UNL1        0.0642
      3 C          -2.1045    3.6932   21.1496 C.3     1  UNL1        0.1020
      4 C          -3.0786    3.7669   20.0112 C.ar    1  UNL1        0.0319
      5 C          -2.5779    3.8671   18.6009 C.ar    1  UNL1        0.0005
      6 C          -3.5520    3.9408   17.4626 C.ar    1  UNL1        0.0022
      7 C          -5.0269    3.9143   17.7348 C.ar    1  UNL1        0.0328
      8 C          -5.5276    3.8141   19.1451 C.ar    1  UNL1        0.1735
      9 F          -7.0025    3.7875   19.4173 F       1  UNL1       -0.2010
     10 C          -4.5535    3.7404   20.2834 C.ar    1  UNL1        0.1629
     11 O          -5.0542    3.6401   21.6938 O.3     1  UNL1       -0.4805
     12 N          -0.6296    3.7197   20.8774 N.am    1  UNL1       -0.2863
     13 C           0.0852    2.4579   20.4944 C.2     1  UNL1        0.3047
     14 O          -0.6749    1.1694   20.3835 O.2     1  UNL1       -0.2525
     15 N           1.5600    2.4844   20.2223 N.am    1  UNL1       -0.2683
     16 H          -0.1308    4.5653   20.9502 H       1  UNL1        0.1512
     17 H           2.0589    3.3300   20.2951 H       1  UNL1        0.1564
     18 C           2.2748    1.2224   19.8393 C.ar    1  UNL1        0.0516
     19 C           2.5087    0.9025   18.3926 C.ar    1  UNL1        0.0147
     20 C           3.2235   -0.3594   18.0096 C.ar    1  UNL1        0.0013
     21 C           3.7044   -1.3013   19.0733 C.ar    1  UNL1        0.0016
     22 C           3.4705   -0.9814   20.5200 C.ar    1  UNL1        0.0204
     23 C           3.9513   -1.9234   21.5837 C.ar    1  UNL1        0.0984
     24 N           3.7174   -1.6034   23.0304 N.ar    1  UNL1       -0.2481
     25 C           3.0026   -0.3415   23.4134 C.ar    1  UNL1        0.0594
     26 C           2.7687   -0.0216   24.8601 C.3     1  UNL1        0.0521
     27 C           2.5218    0.6005   22.3497 C.ar    1  UNL1        0.0160
     28 C           2.7557    0.2805   20.9030 C.ar    1  UNL1        0.0162
     29 C          -5.3725    3.5072   23.5910 C.3     1  UNL1        0.0401
     30 C          -7.6692    4.6827   23.8973 C.3     1  UNL1        0.0001
     31 C          -6.6171    4.1009   23.0003 C.3     1  UNL1        0.0036
     32 C          -3.5548    3.4722   24.2339 C.3     1  UNL1        0.0401
     33 C          -4.0163    4.4485   25.2750 C.3     1  UNL1        0.0036
     34 C          -3.2005    5.6723   25.5695 C.3     1  UNL1        0.0001
@<TRIPOS>BOND
     1    30    31    1
     2    31    29    1
     3    29     1    1
     4     1    32    1
     5    32    33    1
     6    33    34    1
     7     1     2    1
     8     2     3    1
     9     3    12    1
    10    12    13   am
    11    13    14    2
    12    13    15   am
    13    15    18    1
    14    18    19   ar
    15    19    20   ar
    16    20    21   ar
    17    21    22   ar
    18    22    23   ar
    19    23    24   ar
    20    24    25   ar
    21    25    26    1
    22    25    27   ar
    23    27    28   ar
    24     3     4    1
    25     4     5   ar
    26     5     6   ar
    27     6     7   ar
    28     7     8   ar
    29     8     9    1
    30     8    10   ar
    31    10    11    1
    32    11     1    1
    33    28    18   ar
    34    10     4   ar
    35    28    22   ar
    36    12    16    1
    37    15    17    1
@<TRIPOS>MOLECULE
*****
 34 37 0 0 0
SMALL
GASTEIGER

@<TRIPOS>ATOM
      1 C           3.8917   -0.5940   19.8410 C.3     1  UNL1        0.1351
      2 C           2.8811    0.4764   20.1289 C.3     1  UNL1        0.0642
      3 C           3.0113    1.8240   19.4831 C.3     1  UNL1        0.1020
      4 C           4.1521    2.1012   18.5494 C.ar    1  UNL1        0.0319
      5 C           4.2823    3.4488   17.9037 C.ar    1  UNL1        0.0005
      6 C           5.4231    3.7260   16.9700 C.ar    1  UNL1        0.0022
      7 C           6.4337    2.6556   16.6821 C.ar    1  UNL1        0.0328
      8 C           6.3035    1.3080   17.3279 C.ar    1  UNL1        0.1735
      9 F           7.3141    0.2376   17.0400 F       1  UNL1       -0.2010
     10 C           5.1627    1.0308   18.2615 C.ar    1  UNL1        0.1629
     11 O           5.0325   -0.3168   18.9073 O.3     1  UNL1       -0.4805
     12 N           2.0007    2.8944   19.7710 N.am    1  UNL1       -0.2863
     13 C           0.6572    2.8560   19.1052 C.2     1  UNL1        0.3047
     14 O           0.3242    1.7472   18.1513 O.2     1  UNL1       -0.2525
     15 N          -0.3534    3.9265   19.3931 N.am    1  UNL1       -0.2683
     16 H           2.2192    3.6222   20.3970 H       1  UNL1        0.1512
     17 H          -0.1349    4.6542   20.0191 H       1  UNL1        0.1564
     18 C          -1.6970    3.8880   18.7271 C.ar    1  UNL1        0.0516
     19 C          -1.7960    3.9691   17.2326 C.ar    1  UNL1        0.0147
     20 C          -3.1395    3.9307   16.5668 C.ar    1  UNL1        0.0013
     21 C          -4.3841    3.8112   17.3954 C.ar    1  UNL1        0.0016
     22 C          -4.2852    3.7302   18.8899 C.ar    1  UNL1        0.0204
     23 C          -5.5298    3.6107   19.7186 C.ar    1  UNL1        0.0984
     24 N          -5.4309    3.5297   21.2131 N.ar    1  UNL1       -0.2481
     25 C          -4.0873    3.5681   21.8790 C.ar    1  UNL1        0.0594
     26 C          -3.9884    3.4870   23.3735 C.3     1  UNL1        0.0521
     27 C          -2.8427    3.6875   21.0504 C.ar    1  UNL1        0.0160
     28 C          -2.9416    3.7686   19.5558 C.ar    1  UNL1        0.0162
     29 C           4.5904   -1.9206   19.8823 C.3     1  UNL1        0.0401
     30 C           4.6084   -4.3202   18.8861 C.3     1  UNL1        0.0001
     31 C           3.8574   -3.1671   19.4834 C.3     1  UNL1        0.0036
     32 C           2.9936   -1.3319   20.7890 C.3     1  UNL1        0.0401
     33 C           2.7443   -0.7866   22.1640 C.3     1  UNL1        0.0036
     34 C           3.5471   -1.2894   23.3271 C.3     1  UNL1        0.0001
@<TRIPOS>BOND
     1    30    31    1
     2    31    29    1
     3    29     1    1
     4     1    32    1
     5    32    33    1
     6    33    34    1
     7     1     2    1
     8     2     3    1
     9     3    12    1
    10    12    13   am
    11    13    14    2
    12    13    15   am
    13    15    18    1
    14    18    19   ar
    15    19    20   ar
    16    20    21   ar
    17    21    22   ar
    18    22    23   ar
    19    23    24   ar
    20    24    25   ar
    21    25    26    1
    22    25    27   ar
    23    27    28   ar
    24     3     4    1
    25     4     5   ar
    26     5     6   ar
    27     6     7   ar
    28     7     8   ar
    29     8     9    1
    30     8    10   ar
    31    10    11    1
    32    11     1    1
    33    28    18   ar
    34    10     4   ar
    35    28    22   ar
    36    12    16    1
    37    15    17    1
@<TRIPOS>MOLECULE
*****
 34 37 0 0 0
SMALL
GASTEIGER

@<TRIPOS>ATOM
      1 C           3.7650   -0.9787   20.9282 C.3     1  UNL1        0.1351
      2 C           3.5248   -1.2732   22.3793 C.3     1  UNL1        0.0642
      3 C           4.4554   -2.1839   23.1238 C.3     1  UNL1        0.1020
      4 C           5.6263   -2.8003   22.4173 C.ar    1  UNL1        0.0319
      5 C           6.5570   -3.7110   23.1619 C.ar    1  UNL1        0.0005
      6 C           7.7279   -4.3273   22.4554 C.ar    1  UNL1        0.0022
      7 C           7.9681   -4.0328   21.0043 C.ar    1  UNL1        0.0328
      8 C           7.0375   -3.1220   20.2598 C.ar    1  UNL1        0.1735
      9 F           7.2777   -2.8276   18.8087 F       1  UNL1       -0.2010
     10 C           5.8666   -2.5058   20.9663 C.ar    1  UNL1        0.1629
     11 O           4.9359   -1.5950   20.2217 O.3     1  UNL1       -0.4805
     12 N           4.2151   -2.4784   24.5749 N.am    1  UNL1       -0.2863
     13 C           4.3878   -1.3957   25.5985 C.2     1  UNL1        0.3047
     14 O           4.8008   -0.0184   25.1711 O.2     1  UNL1       -0.2525
     15 N           4.1476   -1.6902   27.0496 N.am    1  UNL1       -0.2683
     16 H           3.9441   -3.3823   24.8554 H       1  UNL1        0.1512
     17 H           3.8766   -2.5941   27.3301 H       1  UNL1        0.1564
     18 C           4.3203   -0.6074   28.0732 C.ar    1  UNL1        0.0516
     19 C           5.6931   -0.1048   28.4090 C.ar    1  UNL1        0.0147
     20 C           5.8658    0.9779   29.4326 C.ar    1  UNL1        0.0013
     21 C           4.6657    1.5581   30.1204 C.ar    1  UNL1        0.0016
     22 C           3.2929    1.0556   29.7846 C.ar    1  UNL1        0.0204
     23 C           2.0927    1.6357   30.4724 C.ar    1  UNL1        0.0984
     24 N           0.7199    1.1332   30.1366 N.ar    1  UNL1       -0.2481
     25 C           0.5472    0.0504   29.1130 C.ar    1  UNL1        0.0594
     26 C          -0.8256   -0.4522   28.7772 C.3     1  UNL1        0.0521
     27 C           1.7473   -0.5298   28.4252 C.ar    1  UNL1        0.0160
     28 C           3.1202   -0.0272   28.7610 C.ar    1  UNL1        0.0162
     29 C           3.5758   -0.4004   19.5572 C.3     1  UNL1        0.0401
     30 C           3.8161   -0.6007   16.9779 C.3     1  UNL1        0.0001
     31 C           4.0118   -1.1759   18.3494 C.3     1  UNL1        0.0036
     32 C           2.5284   -0.1616   21.1586 C.3     1  UNL1        0.0401
     33 C           1.2295   -0.5738   20.5316 C.3     1  UNL1        0.0036
     34 C           0.1366    0.4352   20.3381 C.3     1  UNL1        0.0001
@<TRIPOS>BOND
     1    30    31    1
     2    31    29    1
     3    29     1    1
     4     1    32    1
     5    32    33    1
     6    33    34    1
     7     1     2    1
     8     2     3    1
     9     3    12    1
    10    12    13   am
    11    13    14    2
    12    13    15   am
    13    15    18    1
    14    18    19   ar
    15    19    20   ar
    16    20    21   ar
    17    21    22   ar
    18    22    23   ar
    19    23    24   ar
    20    24    25   ar
    21    25    26    1
    22    25    27   ar
    23    27    28   ar
    24     3     4    1
    25     4     5   ar
    26     5     6   ar
    27     6     7   ar
    28     7     8   ar
    29     8     9    1
    30     8    10   ar
    31    10    11    1
    32    11     1    1
    33    28    18   ar
    34    10     4   ar
    35    28    22   ar
    36    12    16    1
    37    15    17    1
