@<TRIPOS>MOLECULE
*****
 33 36 0 0 0
SMALL
GASTEIGER

@<TRIPOS>ATOM
      1 C           8.4061   -5.8616   24.3773 C.ar    1  UNL1        0.1056
      2 C           7.3213   -5.8634   25.4133 C.ar    1  UNL1        0.0181
      3 C           7.2428   -6.9770   26.4151 C.ar    1  UNL1       -0.0013
      4 C           8.2490   -8.0889   26.3809 C.ar    1  UNL1       -0.0025
      5 C           9.3337   -8.0872   25.3450 C.ar    1  UNL1       -0.0013
      6 C           9.4123   -6.9735   24.3431 C.ar    1  UNL1        0.0181
      7 S           8.4846   -4.7480   23.3755 S.O2    1  UNL1        0.0071
      8 O           8.8969   -3.7996   24.4620 O.2     1  UNL1       -0.1687
      9 O           8.0722   -5.6963   22.2890 O.2     1  UNL1       -0.1687
     10 N           8.7201   -1.4070   20.3701 N.3     1  UNL1       -0.2726
     11 C           9.2300   -2.7724   20.0153 C.3     1  UNL1        0.0739
     12 C           9.1515   -3.8860   21.0170 C.3     1  UNL1        0.0413
     13 C           8.5631   -3.6343   22.3737 C.3     1  UNL1        0.1366
     14 C           8.0532   -2.2690   22.7286 C.3     1  UNL1        0.0413
     15 C           8.1317   -1.1553   21.7267 C.3     1  UNL1        0.0739
     16 C           8.7986   -0.2934   19.3683 C.3     1  UNL1        0.0720
     17 C           6.6315   -1.1564   18.2241 C.3     1  UNL1        0.0014
     18 C           7.7091   -0.1208   18.3518 C.3     1  UNL1        0.0160
     19 C           7.6972    1.0875   17.4630 C.3     1  UNL1        0.0014
     20 C           8.1704   -9.2026   27.3828 C.3     1  UNL1        0.1167
     21 N           6.8875   -9.9581   27.5653 N.am    1  UNL1       -0.2944
     22 C           6.9191  -11.4167   27.9137 C.2     1  UNL1        0.2808
     23 O           8.2337  -12.1198   28.0796 O.2     1  UNL1       -0.2668
     24 H           6.0247   -9.4966   27.4564 H       1  UNL1        0.1501
     25 C           5.6362  -12.1722   28.0962 C.ar    1  UNL1        0.1984
     26 C           4.5286  -11.8134   29.0419 C.ar    1  UNL1        0.0453
     27 C           3.4435  -12.8386   28.8952 C.ar    1  UNL1        0.0409
     28 C           2.1139  -12.9967   29.5714 C.ar    1  UNL1        0.0238
     29 C           1.2214  -14.1471   29.2113 C.ar    1  UNL1        0.0991
     30 N           1.6584  -15.1396   28.1749 N.ar    1  UNL1       -0.2391
     31 C           2.9879  -14.9815   27.4986 C.ar    1  UNL1        0.1362
     32 C           3.8805  -13.8310   27.8588 C.ar    1  UNL1        0.1646
     33 O           5.2356  -13.4191   27.3650 O.2     1  UNL1       -0.4473
@<TRIPOS>BOND
     1    17    18    1
     2    18    19    1
     3    18    16    1
     4    16    10    1
     5    10    11    1
     6    11    12    1
     7    12    13    1
     8    13     7    1
     9     7     8    2
    10     7     9    2
    11     7     1    1
    12     1     2   ar
    13     2     3   ar
    14     3     4   ar
    15     4    20    1
    16    20    21    1
    17    21    22   am
    18    22    23    2
    19    22    25    1
    20    25    26   ar
    21    26    27   ar
    22    27    28   ar
    23    28    29   ar
    24    29    30   ar
    25    30    31   ar
    26    31    32   ar
    27    32    33   ar
    28     4     5   ar
    29     5     6   ar
    30    13    14    1
    31    14    15    1
    32    15    10    1
    33     6     1   ar
    34    33    25   ar
    35    32    27   ar
    36    21    24    1
@<TRIPOS>MOLECULE
*****
 33 36 0 0 0
SMALL
GASTEIGER

@<TRIPOS>ATOM
      1 C           5.2521   -1.1549   31.7488 C.ar    1  UNL1        0.1056
      2 C           6.1324   -2.3691   31.7802 C.ar    1  UNL1        0.0181
      3 C           6.5643   -3.0156   30.4974 C.ar    1  UNL1       -0.0013
      4 C           6.1159   -2.4480   29.1834 C.ar    1  UNL1       -0.0025
      5 C           5.2357   -1.2339   29.1520 C.ar    1  UNL1       -0.0013
      6 C           4.8038   -0.5873   30.4348 C.ar    1  UNL1        0.0181
      7 S           4.8203   -0.5083   33.0316 S.O2    1  UNL1        0.0071
      8 O           3.5865   -1.3612   33.0461 O.2     1  UNL1       -0.1687
      9 O           6.0541    0.3446   33.0171 O.2     1  UNL1       -0.1687
     10 N           3.5246    1.4314   36.8798 N.3     1  UNL1       -0.2726
     11 C           3.0553    1.9835   35.5664 C.3     1  UNL1        0.0739
     12 C           3.4872    1.3369   34.2837 C.3     1  UNL1        0.0413
     13 C           4.3884    0.1382   34.3143 C.3     1  UNL1        0.1366
     14 C           4.8577   -0.4139   35.6276 C.3     1  UNL1        0.0413
     15 C           4.4258    0.2327   36.9104 C.3     1  UNL1        0.0739
     16 C           3.0927    2.0779   38.1625 C.3     1  UNL1        0.0720
     17 C           1.5799    0.2928   39.2917 C.3     1  UNL1        0.0014
     18 C           1.7880    1.6926   38.7945 C.3     1  UNL1        0.0160
     19 C           0.6915    2.7072   38.9293 C.3     1  UNL1        0.0014
     20 C           6.5479   -3.0946   27.9006 C.3     1  UNL1        0.1167
     21 N           5.8028   -2.8113   26.6299 N.am    1  UNL1       -0.2944
     22 C           6.2772   -3.4011   25.3349 C.2     1  UNL1        0.2808
     23 O           7.4966   -4.2742   25.3106 O.2     1  UNL1       -0.2668
     24 H           5.0025   -2.2382   26.6459 H       1  UNL1        0.1501
     25 C           5.5321   -3.1178   24.0642 C.ar    1  UNL1        0.1984
     26 C           4.5869   -1.9765   23.8321 C.ar    1  UNL1        0.0453
     27 C           4.0721   -2.0793   22.4270 C.ar    1  UNL1        0.0409
     28 C           3.1133   -1.2315   21.6448 C.ar    1  UNL1        0.0238
     29 C           2.7816   -1.5886   20.2262 C.ar    1  UNL1        0.0991
     30 N           3.4088   -2.7935   19.5898 N.ar    1  UNL1       -0.2391
     31 C           4.3676   -3.6413   20.3720 C.ar    1  UNL1        0.1362
     32 C           4.6992   -3.2842   21.7906 C.ar    1  UNL1        0.1646
     33 O           5.6016   -3.9260   22.8025 O.2     1  UNL1       -0.4473
@<TRIPOS>BOND
     1    17    18    1
     2    18    19    1
     3    18    16    1
     4    16    10    1
     5    10    11    1
     6    11    12    1
     7    12    13    1
     8    13     7    1
     9     7     8    2
    10     7     9    2
    11     7     1    1
    12     1     2   ar
    13     2     3   ar
    14     3     4   ar
    15     4    20    1
    16    20    21    1
    17    21    22   am
    18    22    23    2
    19    22    25    1
    20    25    26   ar
    21    26    27   ar
    22    27    28   ar
    23    28    29   ar
    24    29    30   ar
    25    30    31   ar
    26    31    32   ar
    27    32    33   ar
    28     4     5   ar
    29     5     6   ar
    30    13    14    1
    31    14    15    1
    32    15    10    1
    33     6     1   ar
    34    33    25   ar
    35    32    27   ar
    36    21    24    1
@<TRIPOS>MOLECULE
*****
 33 36 0 0 0
SMALL
GASTEIGER

@<TRIPOS>ATOM
      1 C           3.1367   -0.9817   22.0441 C.ar    1  UNL1        0.1056
      2 C           2.7077   -1.2474   20.6315 C.ar    1  UNL1        0.0181
      3 C           1.6798   -0.3689   19.9821 C.ar    1  UNL1       -0.0013
      4 C           1.0809    0.7752   20.7452 C.ar    1  UNL1       -0.0025
      5 C           1.5099    1.0409   22.1577 C.ar    1  UNL1       -0.0013
      6 C           2.5378    0.1624   22.8072 C.ar    1  UNL1        0.0181
      7 S           4.1646   -1.8601   22.6935 S.O2    1  UNL1        0.0071
      8 O           3.7678   -1.3295   24.0392 O.2     1  UNL1       -0.1687
      9 O           4.5613   -2.3908   21.3478 O.2     1  UNL1       -0.1687
     10 N           7.2483   -4.4954   24.6419 N.3     1  UNL1       -0.2726
     11 C           6.4878   -3.4971   25.4635 C.3     1  UNL1        0.0739
     12 C           5.4599   -2.6187   24.8141 C.3     1  UNL1        0.0413
     13 C           5.1925   -2.7385   23.3429 C.3     1  UNL1        0.1366
     14 C           5.9529   -3.7368   22.5213 C.3     1  UNL1        0.0413
     15 C           6.9809   -4.6153   23.1708 C.3     1  UNL1        0.0739
     16 C           8.2761   -5.3739   25.2913 C.3     1  UNL1        0.0720
     17 C           8.9501   -7.5827   24.1009 C.3     1  UNL1        0.0014
     18 C           8.1752   -6.8653   25.1661 C.3     1  UNL1        0.0160
     19 C           7.2992   -7.6392   26.1062 C.3     1  UNL1        0.0014
     20 C           0.0530    1.6536   20.0957 C.3     1  UNL1        0.1167
     21 N          -1.1890    2.0352   20.8453 N.am    1  UNL1       -0.2944
     22 C          -2.0601    3.1457   20.3375 C.2     1  UNL1        0.2808
     23 O          -1.6893    3.8746   19.0800 O.2     1  UNL1       -0.2668
     24 H          -1.4324    1.5568   21.6706 H       1  UNL1        0.1501
     25 C          -3.3021    3.5273   21.0871 C.ar    1  UNL1        0.1984
     26 C          -3.4632    3.5394   22.5783 C.ar    1  UNL1        0.0453
     27 C          -4.8617    3.9834   22.8899 C.ar    1  UNL1        0.0409
     28 C          -5.5856    4.1827   24.1885 C.ar    1  UNL1        0.0238
     29 C          -7.0128    4.6443   24.1883 C.ar    1  UNL1        0.0991
     30 N          -7.7160    4.9066   22.8896 N.ar    1  UNL1       -0.2391
     31 C          -6.9921    4.7073   21.5910 C.ar    1  UNL1        0.1362
     32 C          -5.5649    4.2457   21.5912 C.ar    1  UNL1        0.1646
     33 O          -4.6010    3.9638   20.4770 O.2     1  UNL1       -0.4473
@<TRIPOS>BOND
     1    17    18    1
     2    18    19    1
     3    18    16    1
     4    16    10    1
     5    10    11    1
     6    11    12    1
     7    12    13    1
     8    13     7    1
     9     7     8    2
    10     7     9    2
    11     7     1    1
    12     1     2   ar
    13     2     3   ar
    14     3     4   ar
    15     4    20    1
    16    20    21    1
    17    21    22   am
    18    22    23    2
    19    22    25    1
    20    25    26   ar
    21    26    27   ar
    22    27    28   ar
    23    28    29   ar
    24    29    30   ar
    25    30    31   ar
    26    31    32   ar
    27    32    33   ar
    28     4     5   ar
    29     5     6   ar
    30    13    14    1
    31    14    15    1
    32    15    10    1
    33     6     1   ar
    34    33    25   ar
    35    32    27   ar
    36    21    24    1
@<TRIPOS>MOLECULE
*****
 33 36 0 0 0
SMALL
GASTEIGER

@<TRIPOS>ATOM
      1 C           1.0348    2.3322   30.0669 C.ar    1  UNL1        0.1056
      2 C           1.0116    3.4995   29.1251 C.ar    1  UNL1        0.0181
      3 C           0.6465    3.2939   27.6848 C.ar    1  UNL1       -0.0013
      4 C           0.3047    1.9211   27.1863 C.ar    1  UNL1       -0.0025
      5 C           0.3280    0.7538   28.1280 C.ar    1  UNL1       -0.0013
      6 C           0.6930    0.9593   29.5684 C.ar    1  UNL1        0.0181
      7 S           1.3998    2.5377   31.5072 S.O2    1  UNL1        0.0071
      8 O           1.1543    4.0101   31.3593 O.2     1  UNL1       -0.1687
      9 O           1.6453    1.0654   31.6551 O.2     1  UNL1       -0.1687
     10 N           2.4949    3.1545   35.8282 N.3     1  UNL1       -0.2726
     11 C           1.6003    4.1379   35.1334 C.3     1  UNL1        0.0739
     12 C           1.2353    3.9323   33.6931 C.3     1  UNL1        0.0413
     13 C           1.7648    2.7433   32.9475 C.3     1  UNL1        0.1366
     14 C           2.6594    1.7599   33.6422 C.3     1  UNL1        0.0413
     15 C           3.0244    1.9655   35.0826 C.3     1  UNL1        0.0739
     16 C           2.8599    3.3601   37.2684 C.3     1  UNL1        0.0720
     17 C           3.4136    1.2560   38.6884 C.3     1  UNL1        0.0014
     18 C           2.4584    2.3440   38.2963 C.3     1  UNL1        0.0160
     19 C           1.1017    2.4160   38.9320 C.3     1  UNL1        0.0014
     20 C          -0.0603    1.7155   25.7459 C.3     1  UNL1        0.1167
     21 N           0.6159    0.6412   24.9468 N.am    1  UNL1       -0.2944
     22 C           1.9881    0.8738   24.3875 C.2     1  UNL1        0.2808
     23 O           2.6841    2.1807   24.6273 O.2     1  UNL1       -0.2668
     24 H           0.1591   -0.2165   24.7894 H       1  UNL1        0.1501
     25 C           2.6644   -0.2005   23.5884 C.ar    1  UNL1        0.1984
     26 C           2.6265   -0.3452   22.0959 C.ar    1  UNL1        0.0453
     27 C           3.4359   -1.5529   21.7265 C.ar    1  UNL1        0.0409
     28 C           3.7524   -2.1824   20.4023 C.ar    1  UNL1        0.0238
     29 C           4.6071   -3.4135   20.3424 C.ar    1  UNL1        0.0991
     30 N           5.1453   -4.0152   21.6067 N.ar    1  UNL1       -0.2391
     31 C           4.8287   -3.3857   22.9308 C.ar    1  UNL1        0.1362
     32 C           3.9740   -2.1545   22.9907 C.ar    1  UNL1        0.1646
     33 O           3.4972   -1.3187   24.1414 O.2     1  UNL1       -0.4473
@<TRIPOS>BOND
     1    17    18    1
     2    18    19    1
     3    18    16    1
     4    16    10    1
     5    10    11    1
     6    11    12    1
     7    12    13    1
     8    13     7    1
     9     7     8    2
    10     7     9    2
    11     7     1    1
    12     1     2   ar
    13     2     3   ar
    14     3     4   ar
    15     4    20    1
    16    20    21    1
    17    21    22   am
    18    22    23    2
    19    22    25    1
    20    25    26   ar
    21    26    27   ar
    22    27    28   ar
    23    28    29   ar
    24    29    30   ar
    25    30    31   ar
    26    31    32   ar
    27    32    33   ar
    28     4     5   ar
    29     5     6   ar
    30    13    14    1
    31    14    15    1
    32    15    10    1
    33     6     1   ar
    34    33    25   ar
    35    32    27   ar
    36    21    24    1
@<TRIPOS>MOLECULE
*****
 33 36 0 0 0
SMALL
GASTEIGER

@<TRIPOS>ATOM
      1 C           2.3178    0.0177   19.1803 C.ar    1  UNL1        0.1056
      2 C           2.4269   -0.9748   20.2998 C.ar    1  UNL1        0.0181
      3 C           3.5036   -2.0187   20.2743 C.ar    1  UNL1       -0.0013
      4 C           4.4714   -2.0703   19.1294 C.ar    1  UNL1       -0.0025
      5 C           4.3624   -1.0779   18.0100 C.ar    1  UNL1       -0.0013
      6 C           3.2856   -0.0338   18.0354 C.ar    1  UNL1        0.0181
      7 S           1.2410    1.0617   19.2057 S.O2    1  UNL1        0.0071
      8 O           2.0862    1.9543   18.3461 O.2     1  UNL1       -0.1687
      9 O           0.3959    0.1690   20.0653 O.2     1  UNL1       -0.1687
     10 N          -1.9893    4.1935   19.2821 N.3     1  UNL1       -0.2726
     11 C          -1.7705    3.3125   20.4762 C.3     1  UNL1        0.0739
     12 C          -0.6938    2.2685   20.4507 C.3     1  UNL1        0.0413
     13 C           0.1643    2.1056   19.2311 C.3     1  UNL1        0.1366
     14 C          -0.0545    2.9867   18.0370 C.3     1  UNL1        0.0413
     15 C          -1.1314    4.0307   18.0625 C.3     1  UNL1        0.0739
     16 C          -3.0661    5.2375   19.3075 C.3     1  UNL1        0.0720
     17 C          -4.9238    6.1905   17.7613 C.3     1  UNL1        0.0014
     18 C          -4.3218    5.0394   18.5112 C.3     1  UNL1        0.0160
     19 C          -4.9754    3.6901   18.4648 C.3     1  UNL1        0.0014
     20 C           5.5482   -3.1143   19.1040 C.3     1  UNL1        0.1167
     21 N           5.8159   -3.9454   20.3237 N.am    1  UNL1       -0.2944
     22 C           6.7546   -3.4447   21.3812 C.2     1  UNL1        0.2808
     23 O           7.4254   -2.1130   21.2189 O.2     1  UNL1       -0.2668
     24 H           5.3756   -4.8194   20.4302 H       1  UNL1        0.1501
     25 C           7.0223   -4.2758   22.6008 C.ar    1  UNL1        0.1984
     26 C           6.5453   -3.9795   23.9918 C.ar    1  UNL1        0.0453
     27 C           7.0422   -5.0697   24.8943 C.ar    1  UNL1        0.0409
     28 C           6.8820   -5.3044   26.3671 C.ar    1  UNL1        0.0238
     29 C           7.5060   -6.5091   27.0068 C.ar    1  UNL1        0.0991
     30 N           8.2902   -7.4791   26.1737 N.ar    1  UNL1       -0.2391
     31 C           8.4504   -7.2444   24.7009 C.ar    1  UNL1        0.1362
     32 C           7.8264   -6.0397   24.0612 C.ar    1  UNL1        0.1646
     33 O           7.8141   -5.5490   22.6438 O.2     1  UNL1       -0.4473
@<TRIPOS>BOND
     1    17    18    1
     2    18    19    1
     3    18    16    1
     4    16    10    1
     5    10    11    1
     6    11    12    1
     7    12    13    1
     8    13     7    1
     9     7     8    2
    10     7     9    2
    11     7     1    1
    12     1     2   ar
    13     2     3   ar
    14     3     4   ar
    15     4    20    1
    16    20    21    1
    17    21    22   am
    18    22    23    2
    19    22    25    1
    20    25    26   ar
    21    26    27   ar
    22    27    28   ar
    23    28    29   ar
    24    29    30   ar
    25    30    31   ar
    26    31    32   ar
    27    32    33   ar
    28     4     5   ar
    29     5     6   ar
    30    13    14    1
    31    14    15    1
    32    15    10    1
    33     6     1   ar
    34    33    25   ar
    35    32    27   ar
    36    21    24    1
@<TRIPOS>MOLECULE
*****
 33 36 0 0 0
SMALL
GASTEIGER

@<TRIPOS>ATOM
      1 C           0.6779    2.6681   30.2491 C.ar    1  UNL1        0.1056
      2 C           0.2711    1.2952   29.8020 C.ar    1  UNL1        0.0181
      3 C          -0.0980    1.0519   28.3687 C.ar    1  UNL1       -0.0013
      4 C          -0.0605    2.1814   27.3824 C.ar    1  UNL1       -0.0025
      5 C           0.3463    3.5542   27.8294 C.ar    1  UNL1       -0.0013
      6 C           0.7155    3.7976   29.2628 C.ar    1  UNL1        0.0181
      7 S           1.0470    2.9114   31.6824 S.O2    1  UNL1        0.0071
      8 O           1.1898    1.4336   31.8965 O.2     1  UNL1       -0.1687
      9 O           0.9043    4.3891   31.4683 O.2     1  UNL1       -0.1687
     10 N           2.1545    3.6414   35.9825 N.3     1  UNL1       -0.2726
     11 C           1.3545    4.6631   35.2302 C.3     1  UNL1        0.0739
     12 C           0.9853    4.4198   33.7969 C.3     1  UNL1        0.0413
     13 C           1.4162    3.1547   33.1157 C.3     1  UNL1        0.1366
     14 C           2.2163    2.1329   33.8680 C.3     1  UNL1        0.0413
     15 C           2.5854    2.3763   35.3014 C.3     1  UNL1        0.0739
     16 C           2.5237    3.8847   37.4158 C.3     1  UNL1        0.0720
     17 C           3.7507    2.0171   38.7412 C.3     1  UNL1        0.0014
     18 C           2.4894    2.7544   38.4014 C.3     1  UNL1        0.0160
     19 C           1.1938    2.3615   39.0472 C.3     1  UNL1        0.0014
     20 C          -0.4297    1.9380   25.9490 C.3     1  UNL1        0.1167
     21 N           0.3116    0.9090   25.1479 N.am    1  UNL1       -0.2944
     22 C           1.3093    1.3394   24.1139 C.2     1  UNL1        0.2808
     23 O           1.5657    2.7988   23.8809 O.2     1  UNL1       -0.2668
     24 H           0.1433   -0.0489   25.3008 H       1  UNL1        0.1501
     25 C           2.0506    0.3104   23.3128 C.ar    1  UNL1        0.1984
     26 C           2.9990   -0.7160   23.8578 C.ar    1  UNL1        0.0453
     27 C           3.5081   -1.5336   22.7079 C.ar    1  UNL1        0.0409
     28 C           4.4669   -2.6852   22.6421 C.ar    1  UNL1        0.0238
     29 C           4.7920   -3.3158   21.3205 C.ar    1  UNL1        0.0991
     30 N           4.1583   -2.7948   20.0648 N.ar    1  UNL1       -0.2391
     31 C           3.1995   -1.6431   20.1306 C.ar    1  UNL1        0.1362
     32 C           2.8744   -1.0125   21.4522 C.ar    1  UNL1        0.1646
     33 O           1.9736    0.1271   21.8260 O.2     1  UNL1       -0.4473
@<TRIPOS>BOND
     1    17    18    1
     2    18    19    1
     3    18    16    1
     4    16    10    1
     5    10    11    1
     6    11    12    1
     7    12    13    1
     8    13     7    1
     9     7     8    2
    10     7     9    2
    11     7     1    1
    12     1     2   ar
    13     2     3   ar
    14     3     4   ar
    15     4    20    1
    16    20    21    1
    17    21    22   am
    18    22    23    2
    19    22    25    1
    20    25    26   ar
    21    26    27   ar
    22    27    28   ar
    23    28    29   ar
    24    29    30   ar
    25    30    31   ar
    26    31    32   ar
    27    32    33   ar
    28     4     5   ar
    29     5     6   ar
    30    13    14    1
    31    14    15    1
    32    15    10    1
    33     6     1   ar
    34    33    25   ar
    35    32    27   ar
    36    21    24    1
@<TRIPOS>MOLECULE
*****
 33 36 0 0 0
SMALL
GASTEIGER

@<TRIPOS>ATOM
      1 C          -0.0987    2.3517   19.3396 C.ar    1  UNL1        0.1056
      2 C          -0.4595    3.2670   18.2073 C.ar    1  UNL1        0.0181
      3 C          -1.5254    4.3059   18.3932 C.ar    1  UNL1       -0.0013
      4 C          -2.2305    4.4294   19.7113 C.ar    1  UNL1       -0.0025
      5 C          -1.8698    3.5142   20.8436 C.ar    1  UNL1       -0.0013
      6 C          -0.8038    2.4752   20.6577 C.ar    1  UNL1        0.0181
      7 S           0.9672    1.3128   19.1537 S.O2    1  UNL1        0.0071
      8 O           1.7279    2.2523   18.2656 O.2     1  UNL1       -0.1687
      9 O           0.2065    0.3734   20.0418 O.2     1  UNL1       -0.1687
     10 N           4.1650   -1.8037   18.5960 N.3     1  UNL1       -0.2726
     11 C           4.1113   -0.6130   17.6854 C.3     1  UNL1        0.0739
     12 C           3.0454    0.4259   17.8712 C.3     1  UNL1        0.0413
     13 C           2.0331    0.2740   18.9678 C.3     1  UNL1        0.1366
     14 C           2.0869   -0.9168   19.8784 C.3     1  UNL1        0.0413
     15 C           3.1528   -1.9556   19.6925 C.3     1  UNL1        0.0739
     16 C           5.2309   -2.8426   18.4101 C.3     1  UNL1        0.0720
     17 C           6.0603   -3.9668   20.6006 C.3     1  UNL1        0.0014
     18 C           5.2833   -4.0345   19.3194 C.3     1  UNL1        0.0160
     19 C           4.5586   -5.2940   18.9473 C.3     1  UNL1        0.0014
     20 C          -3.2965    5.4684   19.8971 C.3     1  UNL1        0.1167
     21 N          -3.8468    5.7418   21.2655 N.am    1  UNL1       -0.2944
     22 C          -5.1470    5.1248   21.6881 C.2     1  UNL1        0.2808
     23 O          -5.8969    4.2343   20.7423 O.2     1  UNL1       -0.2668
     24 H          -3.3546    6.3263   21.8862 H       1  UNL1        0.1501
     25 C          -5.6973    5.3983   23.0564 C.ar    1  UNL1        0.1984
     26 C          -4.9344    5.3194   24.3455 C.ar    1  UNL1        0.0453
     27 C          -5.8727    5.6710   25.4618 C.ar    1  UNL1        0.0409
     28 C          -5.6778    5.7598   26.9464 C.ar    1  UNL1        0.0238
     29 C          -6.8258    6.1447   27.8318 C.ar    1  UNL1        0.0991
     30 N          -8.1686    6.4408   27.2326 N.ar    1  UNL1       -0.2391
     31 C          -8.3635    6.3521   25.7479 C.ar    1  UNL1        0.1362
     32 C          -7.2155    5.9672   24.8626 C.ar    1  UNL1        0.1646
     33 O          -7.1071    5.7986   23.3760 O.2     1  UNL1       -0.4473
@<TRIPOS>BOND
     1    17    18    1
     2    18    19    1
     3    18    16    1
     4    16    10    1
     5    10    11    1
     6    11    12    1
     7    12    13    1
     8    13     7    1
     9     7     8    2
    10     7     9    2
    11     7     1    1
    12     1     2   ar
    13     2     3   ar
    14     3     4   ar
    15     4    20    1
    16    20    21    1
    17    21    22   am
    18    22    23    2
    19    22    25    1
    20    25    26   ar
    21    26    27   ar
    22    27    28   ar
    23    28    29   ar
    24    29    30   ar
    25    30    31   ar
    26    31    32   ar
    27    32    33   ar
    28     4     5   ar
    29     5     6   ar
    30    13    14    1
    31    14    15    1
    32    15    10    1
    33     6     1   ar
    34    33    25   ar
    35    32    27   ar
    36    21    24    1
@<TRIPOS>MOLECULE
*****
 33 36 0 0 0
SMALL
GASTEIGER

@<TRIPOS>ATOM
      1 C         -16.7077    2.4212   21.2781 C.ar    1  UNL1        0.1056
      2 C         -17.1589    0.9986   21.1269 C.ar    1  UNL1        0.0181
      3 C         -16.7527    0.2074   19.9191 C.ar    1  UNL1       -0.0013
      4 C         -15.8954    0.8386   18.8624 C.ar    1  UNL1       -0.0025
      5 C         -15.4443    2.2611   19.0136 C.ar    1  UNL1       -0.0013
      6 C         -15.8504    3.0525   20.2214 C.ar    1  UNL1        0.0181
      7 S         -17.1139    3.2125   22.4860 S.O2    1  UNL1        0.0071
      8 O         -16.7371    4.4818   21.7811 O.2     1  UNL1       -0.1687
      9 O         -17.4907    1.9432   23.1908 O.2     1  UNL1       -0.1687
     10 N         -18.3323    5.5864   26.1095 N.3     1  UNL1       -0.2726
     11 C         -16.9483    5.7303   25.5492 C.3     1  UNL1        0.0739
     12 C         -16.5422    4.9390   24.3413 C.3     1  UNL1        0.0413
     13 C         -17.5200    4.0038   23.6938 C.3     1  UNL1        0.1366
     14 C         -18.9039    3.8599   24.2541 C.3     1  UNL1        0.0413
     15 C         -19.3101    4.6512   25.4620 C.3     1  UNL1        0.0739
     16 C         -18.7384    6.3776   27.3173 C.3     1  UNL1        0.0720
     17 C         -17.0798    5.7783   29.2252 C.3     1  UNL1        0.0014
     18 C         -18.4805    5.8342   28.6915 C.3     1  UNL1        0.0160
     19 C         -19.6234    5.3467   29.5319 C.3     1  UNL1        0.0014
     20 C         -15.4893    0.0472   17.6545 C.3     1  UNL1        0.1167
     21 N         -14.7820   -1.2651   17.8207 N.am    1  UNL1       -0.2944
     22 C         -13.3413   -1.2931   18.2371 C.2     1  UNL1        0.2808
     23 O         -12.6078   -0.0089   18.4872 O.2     1  UNL1       -0.2668
     24 H         -15.2635   -2.1080   17.6566 H       1  UNL1        0.1501
     25 C         -12.6340   -2.6054   18.4033 C.ar    1  UNL1        0.1984
     26 C         -11.1613   -2.7923   18.6183 C.ar    1  UNL1        0.0453
     27 C         -10.8924   -4.2636   18.7316 C.ar    1  UNL1        0.0409
     28 C          -9.6266   -5.0388   18.9480 C.ar    1  UNL1        0.0238
     29 C          -9.6674   -6.5366   19.0194 C.ar    1  UNL1        0.0991
     30 N         -10.9739   -7.2591   18.8744 N.ar    1  UNL1       -0.2391
     31 C         -12.2396   -6.4839   18.6579 C.ar    1  UNL1        0.1362
     32 C         -12.1989   -4.9861   18.5865 C.ar    1  UNL1        0.1646
     33 O         -13.2752   -3.9613   18.3836 O.2     1  UNL1       -0.4473
@<TRIPOS>BOND
     1    17    18    1
     2    18    19    1
     3    18    16    1
     4    16    10    1
     5    10    11    1
     6    11    12    1
     7    12    13    1
     8    13     7    1
     9     7     8    2
    10     7     9    2
    11     7     1    1
    12     1     2   ar
    13     2     3   ar
    14     3     4   ar
    15     4    20    1
    16    20    21    1
    17    21    22   am
    18    22    23    2
    19    22    25    1
    20    25    26   ar
    21    26    27   ar
    22    27    28   ar
    23    28    29   ar
    24    29    30   ar
    25    30    31   ar
    26    31    32   ar
    27    32    33   ar
    28     4     5   ar
    29     5     6   ar
    30    13    14    1
    31    14    15    1
    32    15    10    1
    33     6     1   ar
    34    33    25   ar
    35    32    27   ar
    36    21    24    1
@<TRIPOS>MOLECULE
*****
 33 36 0 0 0
SMALL
GASTEIGER

@<TRIPOS>ATOM
      1 C           4.0807   -2.0756   22.2052 C.ar    1  UNL1        0.1056
      2 C           3.8877   -2.4444   20.7640 C.ar    1  UNL1        0.0181
      3 C           2.8766   -1.7133   19.9316 C.ar    1  UNL1       -0.0013
      4 C           2.0583   -0.6133   20.5403 C.ar    1  UNL1       -0.0025
      5 C           2.2512   -0.2445   21.9813 C.ar    1  UNL1       -0.0013
      6 C           3.2624   -0.9756   22.8138 C.ar    1  UNL1        0.0181
      7 S           5.0918   -2.8067   23.0376 S.O2    1  UNL1        0.0071
      8 O           5.6314   -3.4660   21.8031 O.2     1  UNL1       -0.1687
      9 O           4.5522   -2.1474   24.2721 O.2     1  UNL1       -0.1687
     10 N           8.1253   -5.0001   25.5349 N.3     1  UNL1       -0.2726
     11 C           7.2149   -3.9936   26.1735 C.3     1  UNL1        0.0739
     12 C           6.2037   -3.2624   25.3411 C.3     1  UNL1        0.0413
     13 C           6.1030   -3.5379   23.8700 C.3     1  UNL1        0.1366
     14 C           7.0135   -4.5444   23.2314 C.3     1  UNL1        0.0413
     15 C           8.0247   -5.2756   24.0639 C.3     1  UNL1        0.0739
     16 C           9.1365   -5.7313   26.3673 C.3     1  UNL1        0.0720
     17 C           8.1447   -6.8786   28.4768 C.3     1  UNL1        0.0014
     18 C           8.7418   -6.9767   27.1044 C.3     1  UNL1        0.0160
     19 C           8.9444   -8.3203   26.4689 C.3     1  UNL1        0.0014
     20 C           1.0471    0.1178   19.7078 C.3     1  UNL1        0.1167
     21 N          -0.1623    0.7229   20.3568 N.am    1  UNL1       -0.2944
     22 C          -0.2732    2.2124   20.4948 C.2     1  UNL1        0.2808
     23 O           0.8252    3.0968   19.9837 O.2     1  UNL1       -0.2668
     24 H          -0.8832    0.1424   20.6923 H       1  UNL1        0.1501
     25 C          -1.4826    2.8175   21.1439 C.ar    1  UNL1        0.1984
     26 C          -1.4938    3.6246   22.4081 C.ar    1  UNL1        0.0453
     27 C          -2.9112    4.0277   22.6883 C.ar    1  UNL1        0.0409
     28 C          -3.5261    4.8307   23.7959 C.ar    1  UNL1        0.0238
     29 C          -5.0058    5.0757   23.8124 C.ar    1  UNL1        0.0991
     30 N          -5.8707    4.5177   22.7213 N.ar    1  UNL1       -0.2391
     31 C          -5.2558    3.7147   21.6136 C.ar    1  UNL1        0.1362
     32 C          -3.7761    3.4697   21.5971 C.ar    1  UNL1        0.1646
     33 O          -2.8931    2.7217   20.6426 O.2     1  UNL1       -0.4473
@<TRIPOS>BOND
     1    17    18    1
     2    18    19    1
     3    18    16    1
     4    16    10    1
     5    10    11    1
     6    11    12    1
     7    12    13    1
     8    13     7    1
     9     7     8    2
    10     7     9    2
    11     7     1    1
    12     1     2   ar
    13     2     3   ar
    14     3     4   ar
    15     4    20    1
    16    20    21    1
    17    21    22   am
    18    22    23    2
    19    22    25    1
    20    25    26   ar
    21    26    27   ar
    22    27    28   ar
    23    28    29   ar
    24    29    30   ar
    25    30    31   ar
    26    31    32   ar
    27    32    33   ar
    28     4     5   ar
    29     5     6   ar
    30    13    14    1
    31    14    15    1
    32    15    10    1
    33     6     1   ar
    34    33    25   ar
    35    32    27   ar
    36    21    24    1
