@<TRIPOS>MOLECULE
*****
 31 36 0 0 0
SMALL
GASTEIGER

@<TRIPOS>ATOM
      1 O           7.1958   -1.9807   22.7358 O.2     1  UNL1       -0.2700
      2 C           6.1278   -2.7854   23.4155 C.2     1  UNL1        0.2485
      3 N           4.9533   -3.2884   22.6298 N.am    1  UNL1       -0.3024
      4 H           4.2524   -3.8165   23.0759 H       1  UNL1        0.1497
      5 C           4.8467   -2.9867   21.1643 C.3     1  UNL1        0.0719
      6 C           3.9910   -1.8484   20.6932 C.3     1  UNL1        0.0203
      7 C           4.7400   -2.6851   19.6988 C.3     1  UNL1        0.0018
      8 C           4.6334   -2.3834   18.2334 C.3     1  UNL1        0.0024
      9 C           5.4891   -3.5218   18.7044 C.3     1  UNL1        0.0018
     10 C           5.5957   -3.8235   20.1699 C.3     1  UNL1        0.0203
     11 C           3.9551   -1.5486   18.4545 C.3     1  UNL1        0.0285
     12 C           3.0287   -0.4083   18.7567 C.3     1  UNL1        0.0884
     13 O           2.1730    0.7301   18.2856 O.3     1  UNL1       -0.3867
     14 C           3.7777   -1.2450   17.7623 C.3     1  UNL1        0.0269
     15 C           3.1353   -0.7100   20.2221 C.3     1  UNL1        0.0285
     16 H           2.2147    0.7871   17.3182 H       1  UNL1        0.2102
     17 C           6.2344   -3.0871   24.8811 C.ar    1  UNL1        0.0861
     18 C           5.5842   -2.1796   25.8828 C.ar    1  UNL1        0.1075
     19 N           5.6908   -2.4812   27.3483 N.ar    1  UNL1       -0.2120
     20 C           6.4477   -3.6904   27.8120 C.ar    1  UNL1        0.2200
     21 N           7.0980   -4.5979   26.8102 N.ar    1  UNL1       -0.2179
     22 C           6.9913   -4.2962   25.3448 C.ar    1  UNL1        0.0673
     23 N           6.5543   -3.9921   29.2775 N.pl3   1  UNL1       -0.2731
     24 C           6.8454   -5.3902   29.7362 C.3     1  UNL1        0.1257
     25 C           6.9520   -5.6918   31.2017 C.3     1  UNL1        0.1637
     26 O           6.7675   -4.5953   32.2084 O.3     1  UNL1       -0.3501
     27 C           6.4764   -3.1972   31.7497 C.3     1  UNL1        0.1637
     28 C           6.3698   -2.8956   30.2843 C.3     1  UNL1        0.1257
     29 C           7.6416   -5.2038   24.3429 C.3     1  UNL1        0.0406
     30 C           8.1174   -6.5691   23.9434 C.3     1  UNL1        0.0063
     31 C           8.2920   -5.4103   23.0072 C.3     1  UNL1        0.0063
@<TRIPOS>BOND
     1     1     2    2
     2     2     3   am
     3     5     3    1
     4     5     6    1
     5     6     7    1
     6     7     8    1
     7     8     9    1
     8     9    10    1
     9    10    11    1
    10    11    12    1
    11    12    13    1
    12    12    14    1
    13    12    15    1
    14     2    17    1
    15    17    18   ar
    16    18    19   ar
    17    19    20   ar
    18    20    23    1
    19    23    24    1
    20    24    25    1
    21    25    26    1
    22    26    27    1
    23    27    28    1
    24    20    21   ar
    25    21    22   ar
    26    22    29    1
    27    29    30    1
    28    30    31    1
    29    10     5    1
    30    22    17   ar
    31    31    29    1
    32    15     6    1
    33    28    23    1
    34    14     8    1
    35     3     4    1
    36    13    16    1
@<TRIPOS>MOLECULE
*****
 31 36 0 0 0
SMALL
GASTEIGER

@<TRIPOS>ATOM
      1 O          -9.5288  -20.1285   22.5084 O.2     1  UNL1       -0.2700
      2 C          -8.9454  -18.8642   21.9504 C.2     1  UNL1        0.2485
      3 N          -9.8178  -17.6607   21.7491 N.am    1  UNL1       -0.3024
      4 H          -9.4349  -16.8310   21.3829 H       1  UNL1        0.1497
      5 C         -11.2735  -17.7214   22.1058 C.3     1  UNL1        0.0719
      6 C         -11.6896  -18.0895   23.4991 C.3     1  UNL1        0.0203
      7 C         -12.7292  -17.7821   22.4624 C.3     1  UNL1        0.0018
      8 C         -14.1849  -17.8429   22.8191 C.3     1  UNL1        0.0024
      9 C         -13.7688  -17.4748   21.4257 C.3     1  UNL1        0.0018
     10 C         -12.3131  -17.4141   21.0691 C.3     1  UNL1        0.0203
     11 C         -13.9214  -18.1283   23.8462 C.3     1  UNL1        0.0285
     12 C         -13.5614  -18.5182   25.2491 C.3     1  UNL1        0.0884
     13 O         -13.9775  -18.8863   26.6425 O.3     1  UNL1       -0.3867
     14 C         -14.6010  -18.2109   24.2124 C.3     1  UNL1        0.0269
     15 C         -12.1057  -18.4575   24.8925 C.3     1  UNL1        0.0285
     16 H         -14.9455  -18.8788   26.7034 H       1  UNL1        0.2102
     17 C          -7.4897  -18.8035   21.5938 C.ar    1  UNL1        0.0861
     18 C          -6.5012  -18.2386   22.5704 C.ar    1  UNL1        0.1075
     19 N          -5.0455  -18.1779   22.2137 N.ar    1  UNL1       -0.2120
     20 C          -4.5783  -18.6822   20.8805 C.ar    1  UNL1        0.2200
     21 N          -5.5668  -19.2471   19.9039 N.ar    1  UNL1       -0.2179
     22 C          -7.0225  -19.3078   20.2606 C.ar    1  UNL1        0.0673
     23 N          -3.1225  -18.6215   20.5238 N.pl3   1  UNL1       -0.2731
     24 C          -2.0854  -19.0053   21.5373 C.3     1  UNL1        0.1257
     25 C          -0.6298  -18.9446   21.1806 C.3     1  UNL1        0.1637
     26 O          -0.2112  -18.5001   19.8105 O.3     1  UNL1       -0.3501
     27 C          -1.2483  -18.1163   18.7971 C.3     1  UNL1        0.1637
     28 C          -2.7039  -18.1770   19.1537 C.3     1  UNL1        0.1257
     29 C          -8.0111  -19.8727   19.2840 C.3     1  UNL1        0.0406
     30 C          -8.4061  -20.9382   18.3049 C.3     1  UNL1        0.0063
     31 C          -9.3283  -19.7857   18.5718 C.3     1  UNL1        0.0063
@<TRIPOS>BOND
     1     1     2    2
     2     2     3   am
     3     5     3    1
     4     5     6    1
     5     6     7    1
     6     7     8    1
     7     8     9    1
     8     9    10    1
     9    10    11    1
    10    11    12    1
    11    12    13    1
    12    12    14    1
    13    12    15    1
    14     2    17    1
    15    17    18   ar
    16    18    19   ar
    17    19    20   ar
    18    20    23    1
    19    23    24    1
    20    24    25    1
    21    25    26    1
    22    26    27    1
    23    27    28    1
    24    20    21   ar
    25    21    22   ar
    26    22    29    1
    27    29    30    1
    28    30    31    1
    29    10     5    1
    30    22    17   ar
    31    31    29    1
    32    15     6    1
    33    28    23    1
    34    14     8    1
    35     3     4    1
    36    13    16    1
@<TRIPOS>MOLECULE
*****
 31 36 0 0 0
SMALL
GASTEIGER

@<TRIPOS>ATOM
      1 O           7.1253   -2.1367   22.5866 O.2     1  UNL1       -0.2700
      2 C           6.0200   -2.8488   23.3085 C.2     1  UNL1        0.2485
      3 N           4.7867   -3.2681   22.5649 N.am    1  UNL1       -0.3024
      4 H           4.0612   -3.7355   23.0387 H       1  UNL1        0.1497
      5 C           4.6587   -2.9755   21.0992 C.3     1  UNL1        0.0719
      6 C           3.9538   -1.7331   20.6413 C.3     1  UNL1        0.0203
      7 C           4.5306   -2.6828   19.6337 C.3     1  UNL1        0.0018
      8 C           4.4026   -2.3901   18.1681 C.3     1  UNL1        0.0024
      9 C           5.1075   -3.6324   18.6261 C.3     1  UNL1        0.0018
     10 C           5.2356   -3.9251   20.0916 C.3     1  UNL1        0.0203
     11 C           3.8609   -1.4636   18.4004 C.3     1  UNL1        0.0285
     12 C           3.1208   -0.1981   18.7178 C.3     1  UNL1        0.0884
     13 O           2.4159    1.0443   18.2599 O.3     1  UNL1       -0.3867
     14 C           3.6977   -1.1477   17.7102 C.3     1  UNL1        0.0269
     15 C           3.2488   -0.4908   20.1834 C.3     1  UNL1        0.0285
     16 H           2.4220    1.0808   17.2906 H       1  UNL1        0.2102
     17 C           6.1480   -3.1414   24.7741 C.ar    1  UNL1        0.0861
     18 C           6.9140   -4.3462   25.2343 C.ar    1  UNL1        0.1075
     19 N           7.0420   -4.6388   26.6998 N.ar    1  UNL1       -0.2120
     20 C           6.4039   -3.7267   27.7053 C.ar    1  UNL1        0.2200
     21 N           5.6379   -2.5220   27.2452 N.ar    1  UNL1       -0.2179
     22 C           5.5099   -2.2293   25.7796 C.ar    1  UNL1        0.0673
     23 N           6.5319   -4.0193   29.1709 N.pl3   1  UNL1       -0.2731
     24 C           6.3492   -2.9193   30.1742 C.3     1  UNL1        0.1257
     25 C           6.4772   -3.2120   31.6397 C.3     1  UNL1        0.1637
     26 O           6.7879   -4.6048   32.1020 O.3     1  UNL1       -0.3501
     27 C           6.9707   -5.7048   31.0988 C.3     1  UNL1        0.1637
     28 C           6.8427   -5.4121   29.6333 C.3     1  UNL1        0.1257
     29 C           4.7438   -1.0246   25.3194 C.3     1  UNL1        0.0406
     30 C           4.6261    0.4641   25.1784 C.3     1  UNL1        0.0063
     31 C           3.5347   -0.4267   24.6633 C.3     1  UNL1        0.0063
@<TRIPOS>BOND
     1     1     2    2
     2     2     3   am
     3     5     3    1
     4     5     6    1
     5     6     7    1
     6     7     8    1
     7     8     9    1
     8     9    10    1
     9    10    11    1
    10    11    12    1
    11    12    13    1
    12    12    14    1
    13    12    15    1
    14     2    17    1
    15    17    18   ar
    16    18    19   ar
    17    19    20   ar
    18    20    23    1
    19    23    24    1
    20    24    25    1
    21    25    26    1
    22    26    27    1
    23    27    28    1
    24    20    21   ar
    25    21    22   ar
    26    22    29    1
    27    29    30    1
    28    30    31    1
    29    10     5    1
    30    22    17   ar
    31    31    29    1
    32    15     6    1
    33    28    23    1
    34    14     8    1
    35     3     4    1
    36    13    16    1
@<TRIPOS>MOLECULE
*****
 31 36 0 0 0
SMALL
GASTEIGER

@<TRIPOS>ATOM
      1 O           5.7652   -0.2665   23.1418 O.2     1  UNL1       -0.2700
      2 C           5.1138   -1.5672   23.5075 C.2     1  UNL1        0.2485
      3 N           3.8999   -2.0343   22.7603 N.am    1  UNL1       -0.3024
      4 H           3.4724   -2.8880   23.0003 H       1  UNL1        0.1497
      5 C           3.3374   -1.2006   21.6473 C.3     1  UNL1        0.0719
      6 C           3.7035   -1.5035   20.2246 C.3     1  UNL1        0.0203
      7 C           2.7750   -0.3670   20.5344 C.3     1  UNL1        0.0018
      8 C           2.2125    0.4666   19.4215 C.3     1  UNL1        0.0024
      9 C           1.8464    0.7696   20.8442 C.3     1  UNL1        0.0018
     10 C           2.4089   -0.0641   21.9571 C.3     1  UNL1        0.0203
     11 C           2.7597   -0.1417   18.6891 C.3     1  UNL1        0.0285
     12 C           3.5071   -0.9728   17.6889 C.3     1  UNL1        0.0884
     13 O           3.8732   -1.2758   16.2661 O.3     1  UNL1       -0.3867
     14 C           2.5786    0.1637   17.9987 C.3     1  UNL1        0.0269
     15 C           4.0696   -1.8065   18.8018 C.3     1  UNL1        0.0285
     16 H           3.4273   -0.6475   15.6768 H       1  UNL1        0.2102
     17 C           5.6763   -2.4009   24.6205 C.ar    1  UNL1        0.0861
     18 C           5.3263   -2.0854   26.0445 C.ar    1  UNL1        0.1075
     19 N           5.8888   -2.9191   27.1574 N.ar    1  UNL1       -0.2120
     20 C           6.8013   -4.0683   26.8462 C.ar    1  UNL1        0.2200
     21 N           7.1512   -4.3838   25.4222 N.ar    1  UNL1       -0.2179
     22 C           6.5887   -3.5501   24.3093 C.ar    1  UNL1        0.0673
     23 N           7.3638   -4.9020   27.9592 N.pl3   1  UNL1       -0.2731
     24 C           6.6671   -4.9492   29.2867 C.3     1  UNL1        0.1257
     25 C           7.2296   -5.7829   30.3996 C.3     1  UNL1        0.1637
     26 O           8.4888   -6.5693   30.1850 O.3     1  UNL1       -0.3501
     27 C           9.1854   -6.5220   28.8574 C.3     1  UNL1        0.1637
     28 C           8.6229   -5.6884   27.7445 C.3     1  UNL1        0.1257
     29 C           6.9387   -3.8656   22.8852 C.3     1  UNL1        0.0406
     30 C           7.8789   -4.4619   21.8800 C.3     1  UNL1        0.0063
     31 C           6.6045   -3.8156   21.4238 C.3     1  UNL1        0.0063
@<TRIPOS>BOND
     1     1     2    2
     2     2     3   am
     3     5     3    1
     4     5     6    1
     5     6     7    1
     6     7     8    1
     7     8     9    1
     8     9    10    1
     9    10    11    1
    10    11    12    1
    11    12    13    1
    12    12    14    1
    13    12    15    1
    14     2    17    1
    15    17    18   ar
    16    18    19   ar
    17    19    20   ar
    18    20    23    1
    19    23    24    1
    20    24    25    1
    21    25    26    1
    22    26    27    1
    23    27    28    1
    24    20    21   ar
    25    21    22   ar
    26    22    29    1
    27    29    30    1
    28    30    31    1
    29    10     5    1
    30    22    17   ar
    31    31    29    1
    32    15     6    1
    33    28    23    1
    34    14     8    1
    35     3     4    1
    36    13    16    1
@<TRIPOS>MOLECULE
*****
 31 36 0 0 0
SMALL
GASTEIGER

@<TRIPOS>ATOM
      1 O           2.8974    2.1624   20.9561 O.2     1  UNL1       -0.2700
      2 C           1.6098    1.4341   21.2047 C.2     1  UNL1        0.2485
      3 N           1.3515    0.1174   20.5343 N.am    1  UNL1       -0.3024
      4 H           0.5064   -0.3606   20.6974 H       1  UNL1        0.1497
      5 C           2.3807   -0.4710   19.6152 C.3     1  UNL1        0.0719
      6 C           3.2014   -1.6446   20.0615 C.3     1  UNL1        0.0203
      7 C           3.4098   -1.0594   18.6962 C.3     1  UNL1        0.0018
      8 C           4.4389   -1.6478   17.7772 C.3     1  UNL1        0.0024
      9 C           3.6182   -0.4743   17.3309 C.3     1  UNL1        0.0018
     10 C           2.5891    0.1141   18.2499 C.3     1  UNL1        0.0203
     11 C           4.6978   -2.3912   18.5428 C.3     1  UNL1        0.0285
     12 C           5.0513   -3.4065   19.5888 C.3     1  UNL1        0.0884
     13 O           5.8720   -4.5801   20.0351 O.3     1  UNL1       -0.3867
     14 C           5.2597   -2.8214   18.2235 C.3     1  UNL1        0.0269
     15 C           4.0221   -2.8181   20.5078 C.3     1  UNL1        0.0285
     16 H           6.4845   -4.8342   19.3272 H       1  UNL1        0.2102
     17 C           0.5807    2.0225   22.1238 C.ar    1  UNL1        0.0861
     18 C          -0.5731    2.7974   21.5597 C.ar    1  UNL1        0.1075
     19 N          -1.6022    3.3858   22.4788 N.ar    1  UNL1       -0.2120
     20 C          -1.4775    3.1992   23.9619 C.ar    1  UNL1        0.2200
     21 N          -0.3238    2.4242   24.5260 N.ar    1  UNL1       -0.2179
     22 C           0.7053    1.8359   23.6069 C.ar    1  UNL1        0.0673
     23 N          -2.5067    3.7876   24.8810 N.pl3   1  UNL1       -0.2731
     24 C          -2.0766    4.5936   26.0706 C.3     1  UNL1        0.1257
     25 C          -3.1058    5.1820   26.9896 C.3     1  UNL1        0.1637
     26 O          -4.5650    4.9643   26.7190 O.3     1  UNL1       -0.3501
     27 C          -4.9951    4.1583   25.5294 C.3     1  UNL1        0.1637
     28 C          -3.9660    3.5699   24.6104 C.3     1  UNL1        0.1257
     29 C           1.8592    1.0609   24.1709 C.3     1  UNL1        0.0406
     30 C           2.6314   -0.2199   24.2862 C.3     1  UNL1        0.0063
     31 C           3.0855    0.9994   25.0325 C.3     1  UNL1        0.0063
@<TRIPOS>BOND
     1     1     2    2
     2     2     3   am
     3     5     3    1
     4     5     6    1
     5     6     7    1
     6     7     8    1
     7     8     9    1
     8     9    10    1
     9    10    11    1
    10    11    12    1
    11    12    13    1
    12    12    14    1
    13    12    15    1
    14     2    17    1
    15    17    18   ar
    16    18    19   ar
    17    19    20   ar
    18    20    23    1
    19    23    24    1
    20    24    25    1
    21    25    26    1
    22    26    27    1
    23    27    28    1
    24    20    21   ar
    25    21    22   ar
    26    22    29    1
    27    29    30    1
    28    30    31    1
    29    10     5    1
    30    22    17   ar
    31    31    29    1
    32    15     6    1
    33    28    23    1
    34    14     8    1
    35     3     4    1
    36    13    16    1
@<TRIPOS>MOLECULE
*****
 31 36 0 0 0
SMALL
GASTEIGER

@<TRIPOS>ATOM
      1 O           5.8707   -0.4531   22.8458 O.2     1  UNL1       -0.2700
      2 C           5.0503   -1.5930   23.3727 C.2     1  UNL1        0.2485
      3 N           3.7215   -1.9100   22.7532 N.am    1  UNL1       -0.3024
      4 H           3.1831   -2.6581   23.0990 H       1  UNL1        0.1497
      5 C           3.2132   -1.0871   21.6065 C.3     1  UNL1        0.0719
      6 C           3.6046   -1.4364   20.2012 C.3     1  UNL1        0.0203
      7 C           2.7049   -0.2644   20.4600 C.3     1  UNL1        0.0018
      8 C           2.1967    0.5583   19.3134 C.3     1  UNL1        0.0024
      9 C           1.8053    0.9076   20.7187 C.3     1  UNL1        0.0018
     10 C           2.3135    0.0848   21.8652 C.3     1  UNL1        0.0203
     11 C           2.7423   -0.0846   18.6100 C.3     1  UNL1        0.0285
     12 C           3.4877   -0.9629   17.6494 C.3     1  UNL1        0.0884
     13 O           3.8792   -1.3121   16.2441 O.3     1  UNL1       -0.3867
     14 C           2.5881    0.2091   17.9081 C.3     1  UNL1        0.0269
     15 C           3.9960   -1.7856   18.7960 C.3     1  UNL1        0.0285
     16 H           3.4679   -0.6852   15.6286 H       1  UNL1        0.2102
     17 C           5.5586   -2.4158   24.5194 C.ar    1  UNL1        0.0861
     18 C           6.2981   -3.6938   24.2555 C.ar    1  UNL1        0.1075
     19 N           6.8064   -4.5166   25.4021 N.ar    1  UNL1       -0.2120
     20 C           6.5752   -4.0613   26.8125 C.ar    1  UNL1        0.2200
     21 N           5.8356   -2.7832   27.0763 N.ar    1  UNL1       -0.2179
     22 C           5.3274   -1.9605   25.9298 C.ar    1  UNL1        0.0673
     23 N           7.0835   -4.8841   27.9591 N.pl3   1  UNL1       -0.2731
     24 C           6.7217   -4.5132   29.3668 C.3     1  UNL1        0.1257
     25 C           7.2301   -5.3361   30.5133 C.3     1  UNL1        0.1637
     26 O           8.1001   -6.5297   30.2522 O.3     1  UNL1       -0.3501
     27 C           8.4619   -6.9005   28.8445 C.3     1  UNL1        0.1637
     28 C           7.9536   -6.0777   27.6980 C.3     1  UNL1        0.1257
     29 C           4.5878   -0.6823   26.1935 C.3     1  UNL1        0.0406
     30 C           3.3280    0.1285   26.1199 C.3     1  UNL1        0.0063
     31 C           4.5667    0.7205   26.7241 C.3     1  UNL1        0.0063
@<TRIPOS>BOND
     1     1     2    2
     2     2     3   am
     3     5     3    1
     4     5     6    1
     5     6     7    1
     6     7     8    1
     7     8     9    1
     8     9    10    1
     9    10    11    1
    10    11    12    1
    11    12    13    1
    12    12    14    1
    13    12    15    1
    14     2    17    1
    15    17    18   ar
    16    18    19   ar
    17    19    20   ar
    18    20    23    1
    19    23    24    1
    20    24    25    1
    21    25    26    1
    22    26    27    1
    23    27    28    1
    24    20    21   ar
    25    21    22   ar
    26    22    29    1
    27    29    30    1
    28    30    31    1
    29    10     5    1
    30    22    17   ar
    31    31    29    1
    32    15     6    1
    33    28    23    1
    34    14     8    1
    35     3     4    1
    36    13    16    1
@<TRIPOS>MOLECULE
*****
 31 36 0 0 0
SMALL
GASTEIGER

@<TRIPOS>ATOM
      1 O           3.1016    1.9580   21.3282 O.2     1  UNL1       -0.2700
      2 C           1.7173    1.3844   21.3962 C.2     1  UNL1        0.2485
      3 N           1.3531    0.2015   20.5487 N.am    1  UNL1       -0.3024
      4 H           0.4446   -0.1749   20.5933 H       1  UNL1        0.1497
      5 C           2.3733   -0.4077   19.6332 C.3     1  UNL1        0.0719
      6 C           3.1576   -1.6071   20.0765 C.3     1  UNL1        0.0203
      7 C           3.3935   -1.0170   18.7178 C.3     1  UNL1        0.0018
      8 C           4.4137   -1.6263   17.8024 C.3     1  UNL1        0.0024
      9 C           3.6294   -0.4269   17.3591 C.3     1  UNL1        0.0018
     10 C           2.6093    0.1823   18.2745 C.3     1  UNL1        0.0203
     11 C           4.6454   -2.3826   18.5640 C.3     1  UNL1        0.0285
     12 C           4.9620   -3.4157   19.6044 C.3     1  UNL1        0.0884
     13 O           5.7462   -4.6151   20.0477 O.3     1  UNL1       -0.3867
     14 C           5.1979   -2.8257   18.2457 C.3     1  UNL1        0.0269
     15 C           3.9418   -2.8065   20.5198 C.3     1  UNL1        0.0285
     16 H           6.3574   -4.8804   19.3427 H       1  UNL1        0.2102
     17 C           0.6971    1.9937   22.3116 C.ar    1  UNL1        0.0861
     18 C           0.6297    1.5685   23.7485 C.ar    1  UNL1        0.1075
     19 N          -0.3904    2.1777   24.6639 N.ar    1  UNL1       -0.2120
     20 C          -1.3433    3.2122   24.1424 C.ar    1  UNL1        0.2200
     21 N          -1.2759    3.6374   22.7056 N.ar    1  UNL1       -0.2179
     22 C          -0.2558    3.0282   21.7902 C.ar    1  UNL1        0.0673
     23 N          -2.3635    3.8215   25.0579 N.pl3   1  UNL1       -0.2731
     24 C          -1.9225    4.6712   26.2127 C.3     1  UNL1        0.1257
     25 C          -2.9427    5.2805   27.1281 C.3     1  UNL1        0.1637
     26 O          -4.4038    5.0399   26.8887 O.3     1  UNL1       -0.3501
     27 C          -4.8448    4.1902   25.7340 C.3     1  UNL1        0.1637
     28 C          -3.8246    3.5810   24.8186 C.3     1  UNL1        0.1257
     29 C          -0.1884    3.4534   20.3532 C.3     1  UNL1        0.0406
     30 C          -0.7951    3.4989   18.9822 C.3     1  UNL1        0.0063
     31 C           0.5350    4.1443   19.2356 C.3     1  UNL1        0.0063
@<TRIPOS>BOND
     1     1     2    2
     2     2     3   am
     3     5     3    1
     4     5     6    1
     5     6     7    1
     6     7     8    1
     7     8     9    1
     8     9    10    1
     9    10    11    1
    10    11    12    1
    11    12    13    1
    12    12    14    1
    13    12    15    1
    14     2    17    1
    15    17    18   ar
    16    18    19   ar
    17    19    20   ar
    18    20    23    1
    19    23    24    1
    20    24    25    1
    21    25    26    1
    22    26    27    1
    23    27    28    1
    24    20    21   ar
    25    21    22   ar
    26    22    29    1
    27    29    30    1
    28    30    31    1
    29    10     5    1
    30    22    17   ar
    31    31    29    1
    32    15     6    1
    33    28    23    1
    34    14     8    1
    35     3     4    1
    36    13    16    1
@<TRIPOS>MOLECULE
*****
 31 36 0 0 0
SMALL
GASTEIGER

@<TRIPOS>ATOM
      1 O          -1.0566    4.3969   21.1155 O.2     1  UNL1       -0.2700
      2 C          -1.2866    3.0212   20.5636 C.2     1  UNL1        0.2485
      3 N          -2.6792    2.4706   20.4781 N.am    1  UNL1       -0.3024
      4 H          -2.8302    1.5677   20.1158 H       1  UNL1        0.1497
      5 C          -3.8419    3.2957   20.9444 C.3     1  UNL1        0.0719
      6 C          -4.9747    3.5927   20.0070 C.3     1  UNL1        0.0203
      7 C          -5.0046    4.1208   21.4106 C.3     1  UNL1        0.0018
      8 C          -6.1672    4.9459   21.8769 C.3     1  UNL1        0.0024
      9 C          -5.0345    4.6489   22.8143 C.3     1  UNL1        0.0018
     10 C          -3.8718    3.8238   22.3480 C.3     1  UNL1        0.0203
     11 C          -6.6334    4.8482   20.8875 C.3     1  UNL1        0.0285
     12 C          -7.2701    4.7148   19.5359 C.3     1  UNL1        0.0884
     13 O          -8.4029    5.0118   18.5985 O.3     1  UNL1       -0.3867
     14 C          -7.3000    5.2429   20.9395 C.3     1  UNL1        0.0269
     15 C          -6.1075    3.8897   19.0697 C.3     1  UNL1        0.0285
     16 H          -9.0668    5.5521   19.0547 H       1  UNL1        0.2102
     17 C          -0.1239    2.1961   20.0973 C.ar    1  UNL1        0.0861
     18 C           0.4656    1.1531   20.9999 C.ar    1  UNL1        0.1075
     19 N           1.6282    0.3281   20.5336 N.ar    1  UNL1       -0.2120
     20 C           2.2014    0.5460   19.1646 C.ar    1  UNL1        0.2200
     21 N           1.6119    1.5889   18.2620 N.ar    1  UNL1       -0.2179
     22 C           0.4493    2.4140   18.7283 C.ar    1  UNL1        0.0673
     23 N           3.3641   -0.2792   18.6983 N.pl3   1  UNL1       -0.2731
     24 C           3.4818   -1.7142   19.1185 C.3     1  UNL1        0.1257
     25 C           4.6445   -2.5393   18.6522 C.3     1  UNL1        0.1637
     26 O           5.6894   -1.9292   17.7656 O.3     1  UNL1       -0.3501
     27 C           5.5717   -0.4941   17.3454 C.3     1  UNL1        0.1637
     28 C           4.4090    0.3309   17.8117 C.3     1  UNL1        0.1257
     29 C          -0.1403    3.4570   17.8257 C.3     1  UNL1        0.0406
     30 C          -1.2412    3.9157   16.9160 C.3     1  UNL1        0.0063
     31 C          -0.0605    4.8047   17.1721 C.3     1  UNL1        0.0063
@<TRIPOS>BOND
     1     1     2    2
     2     2     3   am
     3     5     3    1
     4     5     6    1
     5     6     7    1
     6     7     8    1
     7     8     9    1
     8     9    10    1
     9    10    11    1
    10    11    12    1
    11    12    13    1
    12    12    14    1
    13    12    15    1
    14     2    17    1
    15    17    18   ar
    16    18    19   ar
    17    19    20   ar
    18    20    23    1
    19    23    24    1
    20    24    25    1
    21    25    26    1
    22    26    27    1
    23    27    28    1
    24    20    21   ar
    25    21    22   ar
    26    22    29    1
    27    29    30    1
    28    30    31    1
    29    10     5    1
    30    22    17   ar
    31    31    29    1
    32    15     6    1
    33    28    23    1
    34    14     8    1
    35     3     4    1
    36    13    16    1
@<TRIPOS>MOLECULE
*****
 31 36 0 0 0
SMALL
GASTEIGER

@<TRIPOS>ATOM
      1 O           6.5117   -0.6112   22.7830 O.2     1  UNL1       -0.2700
      2 C           5.7463   -1.8079   23.2650 C.2     1  UNL1        0.2485
      3 N           4.8001   -2.5151   22.3406 N.am    1  UNL1       -0.3024
      4 H           4.2978   -3.3005   22.6569 H       1  UNL1        0.1497
      5 C           4.6192   -2.0257   20.9342 C.3     1  UNL1        0.0719
      6 C           3.3926   -1.2459   20.5634 C.3     1  UNL1        0.0203
      7 C           4.4383   -1.5362   19.5279 C.3     1  UNL1        0.0018
      8 C           4.2573   -1.0468   18.1217 C.3     1  UNL1        0.0024
      9 C           5.4839   -1.8265   18.4925 C.3     1  UNL1        0.0018
     10 C           5.6649   -2.3159   19.8987 C.3     1  UNL1        0.0203
     11 C           3.2969   -0.5945   18.4026 C.3     1  UNL1        0.0285
     12 C           1.9851    0.0232   18.7863 C.3     1  UNL1        0.0884
     13 O           0.7585    0.8029   18.4155 O.3     1  UNL1       -0.3867
     14 C           3.0307   -0.2671   17.7509 C.3     1  UNL1        0.0269
     15 C           2.1660   -0.4662   20.1926 C.3     1  UNL1        0.0285
     16 H           0.7985    1.0411   17.4761 H       1  UNL1        0.2102
     17 C           5.9272   -2.2973   24.6713 C.ar    1  UNL1        0.0861
     18 C           5.1356   -1.6824   25.7871 C.ar    1  UNL1        0.1075
     19 N           5.3165   -2.1718   27.1934 N.ar    1  UNL1       -0.2120
     20 C           6.2891   -3.2762   27.4839 C.ar    1  UNL1        0.2200
     21 N           7.0807   -3.8912   26.3681 N.ar    1  UNL1       -0.2179
     22 C           6.8998   -3.4017   24.9618 C.ar    1  UNL1        0.0673
     23 N           6.4700   -3.7657   28.8903 N.pl3   1  UNL1       -0.2731
     24 C           6.3583   -2.8068   30.0383 C.3     1  UNL1        0.1257
     25 C           6.5392   -3.2962   31.4445 C.3     1  UNL1        0.1637
     26 O           6.8318   -4.7446   31.7028 O.3     1  UNL1       -0.3501
     27 C           6.9434   -5.7035   30.5548 C.3     1  UNL1        0.1637
     28 C           6.7625   -5.2140   29.1485 C.3     1  UNL1        0.1257
     29 C           7.6915   -4.0167   23.8459 C.3     1  UNL1        0.0406
     30 C           8.9896   -4.5460   23.3123 C.3     1  UNL1        0.0063
     31 C           7.7646   -4.5525   22.4468 C.3     1  UNL1        0.0063
@<TRIPOS>BOND
     1     1     2    2
     2     2     3   am
     3     5     3    1
     4     5     6    1
     5     6     7    1
     6     7     8    1
     7     8     9    1
     8     9    10    1
     9    10    11    1
    10    11    12    1
    11    12    13    1
    12    12    14    1
    13    12    15    1
    14     2    17    1
    15    17    18   ar
    16    18    19   ar
    17    19    20   ar
    18    20    23    1
    19    23    24    1
    20    24    25    1
    21    25    26    1
    22    26    27    1
    23    27    28    1
    24    20    21   ar
    25    21    22   ar
    26    22    29    1
    27    29    30    1
    28    30    31    1
    29    10     5    1
    30    22    17   ar
    31    31    29    1
    32    15     6    1
    33    28    23    1
    34    14     8    1
    35     3     4    1
    36    13    16    1
