@<TRIPOS>MOLECULE
*****
 35 39 0 0 0
SMALL
GASTEIGER

@<TRIPOS>ATOM
      1 C           0.1767    2.2671   19.2750 C.ar    1  UNL1        0.1074
      2 C          -0.1469    3.0182   18.0176 C.ar    1  UNL1        0.0588
      3 S          -1.1308    4.0967   18.3622 S.2     1  UNL1       -0.0508
      4 C          -1.4154    4.0120   19.8325 C.ar    1  UNL1        0.1646
      5 N          -0.6073    2.8813   20.3966 N.ar    1  UNL1       -0.2224
      6 C           2.9833   -0.3892   18.3710 C.ar    1  UNL1        0.2416
      7 N           2.0412    0.7723   18.2554 N.ar    1  UNL1       -0.2089
      8 C           1.1188    1.1056   19.3905 C.ar    1  UNL1        0.1026
      9 C           1.1386    0.2774   20.6409 C.ar    1  UNL1        0.0224
     10 C           2.0808   -0.8841   20.7564 C.ar    1  UNL1        0.0239
     11 C           3.0032   -1.2173   19.6213 C.ar    1  UNL1        0.1189
     12 N           3.9453   -2.3788   19.7368 N.ar    1  UNL1       -0.2826
     13 C           3.6731   -3.7832   19.2853 C.ar    1  UNL1        0.1826
     14 N           4.8846   -4.6122   19.5935 N.ar    1  UNL1       -0.2280
     15 C           5.9056   -3.7202   20.2354 C.ar    1  UNL1        0.0786
     16 C           7.2679   -4.1356   20.7061 C.3     1  UNL1        0.0538
     17 C           5.3250   -2.3399   20.3240 C.ar    1  UNL1        0.0963
     18 C           5.2333   -0.0337   17.1214 C.3     1  UNL1        0.2543
     19 O           3.9056   -0.7224   17.2359 O.3     1  UNL1       -0.4551
     20 N          -2.3449    4.9020   20.6034 N.pl3   1  UNL1       -0.2786
     21 H          -2.2970    5.8789   20.4912 H       1  UNL1        0.1555
     22 C          -3.3474    4.3034   21.5450 C.ar    1  UNL1        0.1275
     23 C          -3.2562    4.2967   23.0423 C.ar    1  UNL1        0.0244
     24 C          -4.4695    3.5956   23.5774 C.ar    1  UNL1        0.0773
     25 N          -5.3105    3.1689   22.4109 N.ar    1  UNL1       -0.1729
     26 N          -4.6170    3.6063   21.1548 N.ar    1  UNL1       -0.2382
     27 C          -4.6518    3.4362   25.0577 C.3     1  UNL1        0.0474
     28 C          -3.6207    3.9780   26.0029 C.3     1  UNL1        0.0067
     29 C          -2.4075    4.6792   25.4677 C.3     1  UNL1        0.0052
     30 C          -2.2252    4.8385   23.9874 C.3     1  UNL1        0.0305
     31 C          -5.1071    3.3855   19.7544 C.3     1  UNL1        0.1314
     32 C          -6.4455    3.9175   19.3356 C.3     1  UNL1        0.0581
     33 C          -7.0261    5.1156   20.0266 C.3     1  UNL1        0.1392
     34 O          -7.6364    4.9729   21.3894 O.3     1  UNL1       -0.3819
     35 H          -8.4301    4.4183   21.3318 H       1  UNL1        0.2104
@<TRIPOS>BOND
     1    18    19    1
     2    19     6    1
     3     6     7   ar
     4     7     8   ar
     5     8     1    1
     6     1     2   ar
     7     2     3   ar
     8     3     4   ar
     9     4    20    1
    10    20    22    1
    11    22    23   ar
    12    23    24   ar
    13    24    25   ar
    14    25    26   ar
    15    26    31    1
    16    31    32    1
    17    32    33    1
    18    33    34    1
    19    24    27    1
    20    27    28    1
    21    28    29    1
    22    29    30    1
    23     4     5   ar
    24     8     9   ar
    25     9    10   ar
    26    10    11   ar
    27    11    12    1
    28    12    13   ar
    29    13    14   ar
    30    14    15   ar
    31    15    16    1
    32    15    17   ar
    33    11     6   ar
    34    17    12   ar
    35     5     1   ar
    36    26    22   ar
    37    30    23    1
    38    20    21    1
    39    34    35    1
@<TRIPOS>MOLECULE
*****
 35 39 0 0 0
SMALL
GASTEIGER

@<TRIPOS>ATOM
      1 C           3.5891   -1.0079   23.8186 C.ar    1  UNL1        0.1074
      2 C           2.7486    0.2342   23.7926 C.ar    1  UNL1        0.0588
      3 S           2.1952    0.3905   22.4072 S.2     1  UNL1       -0.0508
      4 C           2.6937   -0.7551   21.5770 C.ar    1  UNL1        0.1646
      5 N           3.5551   -1.6194   22.4493 N.ar    1  UNL1       -0.2224
      6 C           6.2767   -2.9584   25.9918 C.ar    1  UNL1        0.2416
      7 N           5.5329   -2.4219   24.8048 N.ar    1  UNL1       -0.2089
      8 C           4.3329   -1.5444   25.0056 C.ar    1  UNL1        0.1026
      9 C           3.8768   -1.2035   26.3933 C.ar    1  UNL1        0.0224
     10 C           4.6208   -1.7400   27.5803 C.ar    1  UNL1        0.0239
     11 C           5.8207   -2.6175   27.3795 C.ar    1  UNL1        0.1189
     12 N           6.5645   -3.1539   28.5664 N.ar    1  UNL1       -0.2826
     13 C           7.5353   -2.3902   29.4175 C.ar    1  UNL1        0.1826
     14 N           8.0389   -3.3125   30.4878 N.ar    1  UNL1       -0.2280
     15 C           7.3794   -4.6465   30.2982 C.ar    1  UNL1        0.0786
     16 C           7.5936   -5.8645   31.1470 C.3     1  UNL1        0.0538
     17 C           6.4682   -4.5484   29.1107 C.ar    1  UNL1        0.0963
     18 C           7.2977   -5.2981   25.5087 C.3     1  UNL1        0.2543
     19 O           7.4766   -3.8358   25.7910 O.3     1  UNL1       -0.4551
     20 N           2.3849   -0.9944   20.1287 N.pl3   1  UNL1       -0.2786
     21 H           1.4504   -1.0902   19.8339 H       1  UNL1        0.1555
     22 C           3.4998   -1.0879   19.1297 C.ar    1  UNL1        0.1275
     23 C           4.2389    0.0676   18.5227 C.ar    1  UNL1        0.0244
     24 C           5.2673   -0.4836   17.5800 C.ar    1  UNL1        0.0773
     25 N           5.1638   -1.9798   17.6045 N.ar    1  UNL1       -0.1729
     26 N           4.0714   -2.3533   18.5622 N.ar    1  UNL1       -0.2382
     27 C           6.1651    0.4481   16.8212 C.3     1  UNL1        0.0474
     28 C           6.0346    1.9310   17.0051 C.3     1  UNL1        0.0067
     29 C           5.0062    2.4823   17.9477 C.3     1  UNL1        0.0052
     30 C           4.1083    1.5506   18.7065 C.3     1  UNL1        0.0305
     31 C           3.6284   -3.7475   18.8942 C.3     1  UNL1        0.1314
     32 C           4.1260   -4.4155   20.1416 C.3     1  UNL1        0.0581
     33 C           5.3694   -3.9153   20.8153 C.3     1  UNL1        0.1392
     34 O           5.5628   -4.1299   22.2873 O.3     1  UNL1       -0.3819
     35 H           4.8972   -3.6231   22.7782 H       1  UNL1        0.2104
@<TRIPOS>BOND
     1    18    19    1
     2    19     6    1
     3     6     7   ar
     4     7     8   ar
     5     8     1    1
     6     1     2   ar
     7     2     3   ar
     8     3     4   ar
     9     4    20    1
    10    20    22    1
    11    22    23   ar
    12    23    24   ar
    13    24    25   ar
    14    25    26   ar
    15    26    31    1
    16    31    32    1
    17    32    33    1
    18    33    34    1
    19    24    27    1
    20    27    28    1
    21    28    29    1
    22    29    30    1
    23     4     5   ar
    24     8     9   ar
    25     9    10   ar
    26    10    11   ar
    27    11    12    1
    28    12    13   ar
    29    13    14   ar
    30    14    15   ar
    31    15    16    1
    32    15    17   ar
    33    11     6   ar
    34    17    12   ar
    35     5     1   ar
    36    26    22   ar
    37    30    23    1
    38    20    21    1
    39    34    35    1
@<TRIPOS>MOLECULE
*****
 35 39 0 0 0
SMALL
GASTEIGER

@<TRIPOS>ATOM
      1 C           0.1734    2.2457   19.2013 C.ar    1  UNL1        0.1074
      2 C           0.0158    3.1071   17.9836 C.ar    1  UNL1        0.0588
      3 S          -1.0266    4.1440   18.2810 S.2     1  UNL1       -0.0508
      4 C          -1.5131    3.9233   19.6826 C.ar    1  UNL1        0.1646
      5 N          -0.7715    2.7501   20.2514 N.ar    1  UNL1       -0.2224
      6 C           2.9772   -0.4352   18.3636 C.ar    1  UNL1        0.2416
      7 N           2.0394    0.7268   18.2209 N.ar    1  UNL1       -0.2089
      8 C           1.1112    1.0838   19.3440 C.ar    1  UNL1        0.1026
      9 C           1.1210    0.2788   20.6097 C.ar    1  UNL1        0.0224
     10 C           2.0589   -0.8832   20.7523 C.ar    1  UNL1        0.0239
     11 C           2.9870   -1.2401   19.6292 C.ar    1  UNL1        0.1189
     12 N           3.9249   -2.4020   19.7719 N.ar    1  UNL1       -0.2826
     13 C           3.6438   -3.8175   19.3624 C.ar    1  UNL1        0.1826
     14 N           4.8536   -4.6427   19.6864 N.ar    1  UNL1       -0.2280
     15 C           5.8826   -3.7374   20.2963 C.ar    1  UNL1        0.0786
     16 C           7.2460   -4.1453   20.7701 C.3     1  UNL1        0.0538
     17 C           5.3085   -2.3525   20.3490 C.ar    1  UNL1        0.0963
     18 C           5.2472   -0.1297   17.1372 C.3     1  UNL1        0.2543
     19 O           3.9053   -0.7921   17.2406 O.3     1  UNL1       -0.4551
     20 N          -2.5579    4.7336   20.3911 N.pl3   1  UNL1       -0.2786
     21 H          -2.2984    5.3415   21.1208 H       1  UNL1        0.1555
     22 C          -3.9981    4.6177   19.9879 C.ar    1  UNL1        0.1275
     23 C          -4.6425    5.2951   18.8150 C.ar    1  UNL1        0.0244
     24 C          -6.0893    4.9001   18.7890 C.ar    1  UNL1        0.0773
     25 N          -6.3390    3.9786   19.9459 N.ar    1  UNL1       -0.1729
     26 N          -5.0466    3.8040   20.6869 N.ar    1  UNL1       -0.2382
     27 C          -6.9924    5.4305   17.7153 C.3     1  UNL1        0.0474
     28 C          -6.4487    6.3560   16.6675 C.3     1  UNL1        0.0067
     29 C          -5.0019    6.7510   16.6935 C.3     1  UNL1        0.0052
     30 C          -4.0988    6.2205   17.7672 C.3     1  UNL1        0.0305
     31 C          -4.8391    2.9634   21.9118 C.3     1  UNL1        0.1314
     32 C          -5.2433    3.4870   23.2581 C.3     1  UNL1        0.0581
     33 C          -6.4572    4.3581   23.3905 C.3     1  UNL1        0.1392
     34 O          -7.7583    3.9292   22.7795 O.3     1  UNL1       -0.3819
     35 H          -7.6730    3.9155   21.8134 H       1  UNL1        0.2104
@<TRIPOS>BOND
     1    18    19    1
     2    19     6    1
     3     6     7   ar
     4     7     8   ar
     5     8     1    1
     6     1     2   ar
     7     2     3   ar
     8     3     4   ar
     9     4    20    1
    10    20    22    1
    11    22    23   ar
    12    23    24   ar
    13    24    25   ar
    14    25    26   ar
    15    26    31    1
    16    31    32    1
    17    32    33    1
    18    33    34    1
    19    24    27    1
    20    27    28    1
    21    28    29    1
    22    29    30    1
    23     4     5   ar
    24     8     9   ar
    25     9    10   ar
    26    10    11   ar
    27    11    12    1
    28    12    13   ar
    29    13    14   ar
    30    14    15   ar
    31    15    16    1
    32    15    17   ar
    33    11     6   ar
    34    17    12   ar
    35     5     1   ar
    36    26    22   ar
    37    30    23    1
    38    20    21    1
    39    34    35    1
@<TRIPOS>MOLECULE
*****
 35 39 0 0 0
SMALL
GASTEIGER

@<TRIPOS>ATOM
      1 C           4.8052   -3.5572   21.1888 C.ar    1  UNL1        0.1074
      2 C           4.1370   -4.6757   20.4455 C.ar    1  UNL1        0.0588
      3 S           3.6593   -4.1373   19.1295 S.2     1  UNL1       -0.0508
      4 C           4.0323   -2.6861   19.0595 C.ar    1  UNL1        0.1646
      5 N           4.7405   -2.3276   20.3322 N.ar    1  UNL1       -0.2224
      6 C           7.1617   -4.7244   24.1612 C.ar    1  UNL1        0.2416
      7 N           6.5382   -4.6298   22.8002 N.ar    1  UNL1       -0.2089
      8 C           5.4287   -3.6518   22.5498 C.ar    1  UNL1        0.1026
      9 C           4.9427   -2.7685   23.6604 C.ar    1  UNL1        0.0224
     10 C           5.5662   -2.8632   25.0215 C.ar    1  UNL1        0.0239
     11 C           6.6757   -3.8411   25.2718 C.ar    1  UNL1        0.1189
     12 N           7.2992   -3.9357   26.6328 N.ar    1  UNL1       -0.2826
     13 C           8.6039   -3.3239   27.0494 C.ar    1  UNL1        0.1826
     14 N           8.8385   -3.6687   28.4902 N.ar    1  UNL1       -0.2280
     15 C           7.6788   -4.4938   28.9642 C.ar    1  UNL1        0.0786
     16 C           7.5016   -5.0552   30.3438 C.3     1  UNL1        0.0538
     17 C           6.7274   -4.6587   27.8161 C.ar    1  UNL1        0.0963
     18 C           7.9554   -7.0885   24.8900 C.3     1  UNL1        0.2543
     19 O           8.2711   -5.7023   24.4116 O.3     1  UNL1       -0.4551
     20 N           3.7472   -1.7565   17.9172 N.pl3   1  UNL1       -0.2786
     21 H           3.6828   -2.1088   17.0001 H       1  UNL1        0.1555
     22 C           3.5601   -0.2902   18.1722 C.ar    1  UNL1        0.1275
     23 C           2.4275    0.3352   18.9312 C.ar    1  UNL1        0.0244
     24 C           2.6402    1.8200   18.9412 C.ar    1  UNL1        0.0773
     25 N           3.9042    2.1122   18.1883 N.ar    1  UNL1       -0.1729
     26 N           4.4728    0.8080   17.7131 N.ar    1  UNL1       -0.2382
     27 C           1.6553    2.7141   19.6344 C.3     1  UNL1        0.0474
     28 C           0.4578    2.1234   20.3178 C.3     1  UNL1        0.0067
     29 C           0.2451    0.6386   20.3078 C.3     1  UNL1        0.0052
     30 C           1.2300   -0.2555   19.6145 C.3     1  UNL1        0.0305
     31 C           5.7328    0.6329   16.9183 C.3     1  UNL1        0.1314
     32 C           7.0303    0.3604   17.6199 C.3     1  UNL1        0.0581
     33 C           7.2955   -0.9943   18.2068 C.3     1  UNL1        0.1392
     34 O           6.9413   -2.2294   17.4328 O.3     1  UNL1       -0.3819
     35 H           5.9780   -2.2822   17.3313 H       1  UNL1        0.2104
@<TRIPOS>BOND
     1    18    19    1
     2    19     6    1
     3     6     7   ar
     4     7     8   ar
     5     8     1    1
     6     1     2   ar
     7     2     3   ar
     8     3     4   ar
     9     4    20    1
    10    20    22    1
    11    22    23   ar
    12    23    24   ar
    13    24    25   ar
    14    25    26   ar
    15    26    31    1
    16    31    32    1
    17    32    33    1
    18    33    34    1
    19    24    27    1
    20    27    28    1
    21    28    29    1
    22    29    30    1
    23     4     5   ar
    24     8     9   ar
    25     9    10   ar
    26    10    11   ar
    27    11    12    1
    28    12    13   ar
    29    13    14   ar
    30    14    15   ar
    31    15    16    1
    32    15    17   ar
    33    11     6   ar
    34    17    12   ar
    35     5     1   ar
    36    26    22   ar
    37    30    23    1
    38    20    21    1
    39    34    35    1
@<TRIPOS>MOLECULE
*****
 35 39 0 0 0
SMALL
GASTEIGER

@<TRIPOS>ATOM
      1 C           0.0235    2.2982   22.4278 C.ar    1  UNL1        0.1074
      2 C           0.0387    2.5583   23.9049 C.ar    1  UNL1        0.0588
      3 S          -0.9794    3.6199   24.1991 S.2     1  UNL1       -0.0508
      4 C          -1.6238    4.0159   22.9037 C.ar    1  UNL1        0.1646
      5 N          -1.0040    3.1990   21.8090 N.ar    1  UNL1       -0.2224
      6 C           3.1670    0.1069   21.3951 C.ar    1  UNL1        0.2416
      7 N           2.3060    1.0945   22.1253 N.ar    1  UNL1       -0.2089
      8 C           0.8845    1.3106   21.6976 C.ar    1  UNL1        0.1026
      9 C           0.3243    0.5391   20.5396 C.ar    1  UNL1        0.0224
     10 C           1.1854   -0.4485   19.8094 C.ar    1  UNL1        0.0239
     11 C           2.6068   -0.6646   20.2372 C.ar    1  UNL1        0.1189
     12 N           3.4679   -1.6521   19.5070 N.ar    1  UNL1       -0.2826
     13 C           4.4683   -1.3281   18.4372 C.ar    1  UNL1        0.1826
     14 N           5.0984   -2.6128   17.9874 N.ar    1  UNL1       -0.2280
     15 C           4.4876   -3.7309   18.7791 C.ar    1  UNL1        0.0786
     16 C           4.8252   -5.1870   18.6537 C.3     1  UNL1        0.0538
     17 C           3.4798   -3.1371   19.7183 C.ar    1  UNL1        0.0963
     18 C           4.8844   -0.8182   23.1111 C.3     1  UNL1        0.2543
     19 O           4.5884   -0.1092   21.8228 O.3     1  UNL1       -0.4551
     20 N          -2.6992    5.0476   22.7331 N.pl3   1  UNL1       -0.2786
     21 H          -2.5310    5.9818   22.9941 H       1  UNL1        0.1555
     22 C          -4.0310    4.6559   22.1647 C.ar    1  UNL1        0.1275
     23 C          -4.3182    4.3443   20.7258 C.ar    1  UNL1        0.0244
     24 C          -5.7740    4.0028   20.6072 C.ar    1  UNL1        0.0773
     25 N          -6.3864    4.1033   21.9728 N.ar    1  UNL1       -0.1729
     26 N          -5.3092    4.5069   22.9354 N.ar    1  UNL1       -0.2382
     27 C          -6.3539    3.6445   19.2710 C.3     1  UNL1        0.0474
     28 C          -5.4780    3.6276   18.0535 C.3     1  UNL1        0.0067
     29 C          -4.0222    3.9691   18.1721 C.3     1  UNL1        0.0052
     30 C          -3.4423    4.3275   19.5082 C.3     1  UNL1        0.0305
     31 C          -5.4801    4.7235   24.4098 C.3     1  UNL1        0.1314
     32 C          -4.9378    3.7194   25.3832 C.3     1  UNL1        0.0581
     33 C          -4.1776    4.1806   26.5912 C.3     1  UNL1        0.1392
     34 O          -4.8774    4.9593   27.6656 O.3     1  UNL1       -0.3819
     35 H          -5.1573    5.8181   27.3122 H       1  UNL1        0.2104
@<TRIPOS>BOND
     1    18    19    1
     2    19     6    1
     3     6     7   ar
     4     7     8   ar
     5     8     1    1
     6     1     2   ar
     7     2     3   ar
     8     3     4   ar
     9     4    20    1
    10    20    22    1
    11    22    23   ar
    12    23    24   ar
    13    24    25   ar
    14    25    26   ar
    15    26    31    1
    16    31    32    1
    17    32    33    1
    18    33    34    1
    19    24    27    1
    20    27    28    1
    21    28    29    1
    22    29    30    1
    23     4     5   ar
    24     8     9   ar
    25     9    10   ar
    26    10    11   ar
    27    11    12    1
    28    12    13   ar
    29    13    14   ar
    30    14    15   ar
    31    15    16    1
    32    15    17   ar
    33    11     6   ar
    34    17    12   ar
    35     5     1   ar
    36    26    22   ar
    37    30    23    1
    38    20    21    1
    39    34    35    1
@<TRIPOS>MOLECULE
*****
 35 39 0 0 0
SMALL
GASTEIGER

@<TRIPOS>ATOM
      1 C           4.8918   -3.5801   20.9117 C.ar    1  UNL1        0.1074
      2 C           4.0747   -4.6240   20.2099 C.ar    1  UNL1        0.0588
      3 S           3.6364   -4.0600   18.8908 S.2     1  UNL1       -0.0508
      4 C           4.1826   -2.6675   18.7776 C.ar    1  UNL1        0.1646
      5 N           4.9585   -2.3710   20.0266 N.ar    1  UNL1       -0.2224
      6 C           7.2959   -4.8306   23.8113 C.ar    1  UNL1        0.2416
      7 N           6.6576   -4.6900   22.4611 N.ar    1  UNL1       -0.2089
      8 C           5.5302   -3.7207   22.2618 C.ar    1  UNL1        0.1026
      9 C           5.0412   -2.8921   23.4126 C.ar    1  UNL1        0.0224
     10 C           5.6797   -3.0327   24.7627 C.ar    1  UNL1        0.0239
     11 C           6.8070   -4.0020   24.9620 C.ar    1  UNL1        0.1189
     12 N           7.4453   -4.1426   26.3120 N.ar    1  UNL1       -0.2826
     13 C           8.5905   -3.3270   26.8352 C.ar    1  UNL1        0.1826
     14 N           8.9036   -3.8038   28.2224 N.ar    1  UNL1       -0.2280
     15 C           7.9519   -4.9141   28.5568 C.ar    1  UNL1        0.0786
     16 C           7.9090   -5.6804   29.8456 C.3     1  UNL1        0.0538
     17 C           7.0507   -5.1234   27.3761 C.ar    1  UNL1        0.0963
     18 C           8.1307   -7.2287   24.3610 C.3     1  UNL1        0.2543
     19 O           8.4232   -5.7998   24.0105 O.3     1  UNL1       -0.4551
     20 N           3.9871   -1.7353   17.6188 N.pl3   1  UNL1       -0.2786
     21 H           3.8186   -2.0972   16.7189 H       1  UNL1        0.1555
     22 C           4.0485   -0.2516   17.8311 C.ar    1  UNL1        0.1275
     23 C           5.1898    0.6463   17.4553 C.ar    1  UNL1        0.0244
     24 C           4.8261    2.0474   17.8485 C.ar    1  UNL1        0.0773
     25 N           3.4601    2.0154   18.4673 N.ar    1  UNL1       -0.1729
     26 N           2.9795    0.5945   18.4566 N.ar    1  UNL1       -0.2382
     27 C           5.7858    3.1714   17.5923 C.3     1  UNL1        0.0474
     28 C           7.1092    2.8942   16.9428 C.3     1  UNL1        0.0067
     29 C           7.4729    1.4931   16.5496 C.3     1  UNL1        0.0052
     30 C           6.5132    0.3691   16.8059 C.3     1  UNL1        0.0305
     31 C           1.6613    0.1056   18.9795 C.3     1  UNL1        0.1314
     32 C           1.5915   -0.5851   20.3092 C.3     1  UNL1        0.0581
     33 C           2.3964   -0.0697   21.4652 C.3     1  UNL1        0.1392
     34 O           3.8724    0.1503   21.3127 O.3     1  UNL1       -0.3819
     35 H           4.3138   -0.7023   21.1748 H       1  UNL1        0.2104
@<TRIPOS>BOND
     1    18    19    1
     2    19     6    1
     3     6     7   ar
     4     7     8   ar
     5     8     1    1
     6     1     2   ar
     7     2     3   ar
     8     3     4   ar
     9     4    20    1
    10    20    22    1
    11    22    23   ar
    12    23    24   ar
    13    24    25   ar
    14    25    26   ar
    15    26    31    1
    16    31    32    1
    17    32    33    1
    18    33    34    1
    19    24    27    1
    20    27    28    1
    21    28    29    1
    22    29    30    1
    23     4     5   ar
    24     8     9   ar
    25     9    10   ar
    26    10    11   ar
    27    11    12    1
    28    12    13   ar
    29    13    14   ar
    30    14    15   ar
    31    15    16    1
    32    15    17   ar
    33    11     6   ar
    34    17    12   ar
    35     5     1   ar
    36    26    22   ar
    37    30    23    1
    38    20    21    1
    39    34    35    1
@<TRIPOS>MOLECULE
*****
 35 39 0 0 0
SMALL
GASTEIGER

@<TRIPOS>ATOM
      1 C           4.4127   -0.8842   27.4190 C.ar    1  UNL1        0.1074
      2 C           5.3945   -0.0554   28.1930 C.ar    1  UNL1        0.0588
      3 S           4.8597    0.1183   29.5836 S.2     1  UNL1       -0.0508
      4 C           3.5474   -0.6031   29.6690 C.ar    1  UNL1        0.1646
      5 N           3.2711   -1.2227   28.3312 N.ar    1  UNL1       -0.2224
      6 C           5.8489   -2.5609   24.1211 C.ar    1  UNL1        0.2416
      7 N           5.7131   -2.1439   25.5556 N.ar    1  UNL1       -0.2089
      8 C           4.5486   -1.3013   25.9846 C.ar    1  UNL1        0.1026
      9 C           3.5199   -0.8758   24.9791 C.ar    1  UNL1        0.0224
     10 C           3.6559   -1.2929   23.5446 C.ar    1  UNL1        0.0239
     11 C           4.8204   -2.1355   23.1157 C.ar    1  UNL1        0.1189
     12 N           4.9563   -2.5526   21.6813 N.ar    1  UNL1       -0.2826
     13 C           5.5414   -1.7263   20.5744 C.ar    1  UNL1        0.1826
     14 N           5.4777   -2.5321   19.3110 N.ar    1  UNL1       -0.2280
     15 C           4.8532   -3.8566   19.6369 C.ar    1  UNL1        0.0786
     16 C           4.5961   -4.9723   18.6679 C.3     1  UNL1        0.0538
     17 C           4.5310   -3.8691   21.1019 C.ar    1  UNL1        0.0963
     18 C           7.1846   -4.7857   24.2491 C.3     1  UNL1        0.2543
     19 O           7.0135   -3.4035   23.6922 O.3     1  UNL1       -0.4551
     20 N           2.6660   -0.6897   30.8798 N.pl3   1  UNL1       -0.2786
     21 H           1.7613   -1.0706   30.8039 H       1  UNL1        0.1555
     22 C           3.1630   -0.1960   32.2061 C.ar    1  UNL1        0.1275
     23 C           2.8119    1.1139   32.8472 C.ar    1  UNL1        0.0244
     24 C           3.5303    1.1940   34.1615 C.ar    1  UNL1        0.0773
     25 N           4.3253   -0.0664   34.3328 N.ar    1  UNL1       -0.1729
     26 N           4.0984   -0.9255   33.1243 N.ar    1  UNL1       -0.2382
     27 C           3.3676    2.4042   35.0326 C.3     1  UNL1        0.0474
     28 C           2.4866    3.5343   34.5893 C.3     1  UNL1        0.0067
     29 C           1.7682    3.4542   33.2750 C.3     1  UNL1        0.0052
     30 C           1.9309    2.2440   32.4039 C.3     1  UNL1        0.0305
     31 C           4.7010   -2.2767   32.8773 C.3     1  UNL1        0.1314
     32 C           6.0810   -2.3884   32.3001 C.3     1  UNL1        0.0581
     33 C           6.6177   -3.7288   31.8936 C.3     1  UNL1        0.1392
     34 O           6.2391   -4.9551   32.6700 O.3     1  UNL1       -0.3819
     35 H           6.6076   -4.8975   33.5655 H       1  UNL1        0.2104
@<TRIPOS>BOND
     1    18    19    1
     2    19     6    1
     3     6     7   ar
     4     7     8   ar
     5     8     1    1
     6     1     2   ar
     7     2     3   ar
     8     3     4   ar
     9     4    20    1
    10    20    22    1
    11    22    23   ar
    12    23    24   ar
    13    24    25   ar
    14    25    26   ar
    15    26    31    1
    16    31    32    1
    17    32    33    1
    18    33    34    1
    19    24    27    1
    20    27    28    1
    21    28    29    1
    22    29    30    1
    23     4     5   ar
    24     8     9   ar
    25     9    10   ar
    26    10    11   ar
    27    11    12    1
    28    12    13   ar
    29    13    14   ar
    30    14    15   ar
    31    15    16    1
    32    15    17   ar
    33    11     6   ar
    34    17    12   ar
    35     5     1   ar
    36    26    22   ar
    37    30    23    1
    38    20    21    1
    39    34    35    1
@<TRIPOS>MOLECULE
*****
 35 39 0 0 0
SMALL
GASTEIGER

@<TRIPOS>ATOM
      1 C           4.3741   -1.0264   25.9921 C.ar    1  UNL1        0.1074
      2 C           5.8196   -1.3733   25.7921 C.ar    1  UNL1        0.0588
      3 S           5.9500   -2.0726   24.4715 S.2     1  UNL1       -0.0508
      4 C           4.5850   -2.1579   23.8554 C.ar    1  UNL1        0.1646
      5 N           3.6111   -1.5114   24.7953 N.ar    1  UNL1       -0.2224
      6 C           1.8905   -0.0455   28.9281 C.ar    1  UNL1        0.2416
      7 N           2.4710   -0.7531   27.7397 N.ar    1  UNL1       -0.2089
      8 C           3.7935   -0.3189   27.1805 C.ar    1  UNL1        0.1026
      9 C           4.5354    0.8229   27.8098 C.ar    1  UNL1        0.0224
     10 C           3.9547    1.5305   28.9982 C.ar    1  UNL1        0.0239
     11 C           2.6323    1.0963   29.5573 C.ar    1  UNL1        0.1189
     12 N           2.0517    1.8038   30.7457 N.ar    1  UNL1       -0.2826
     13 C           2.3152    1.4723   32.1848 C.ar    1  UNL1        0.1826
     14 N           1.5321    2.4307   33.0321 N.ar    1  UNL1       -0.2280
     15 C           0.7845    3.3546   32.1169 C.ar    1  UNL1        0.0786
     16 C          -0.1245    4.4701   32.5404 C.3     1  UNL1        0.0538
     17 C           1.1058    2.9671   30.7038 C.ar    1  UNL1        0.0963
     18 C          -0.7020   -0.1200   28.7747 C.3     1  UNL1        0.2543
     19 O           0.5681   -0.4797   29.4872 O.3     1  UNL1       -0.4551
     20 N           4.2524   -2.7806   22.5318 N.pl3   1  UNL1       -0.2786
     21 H           3.8818   -3.6920   22.4958 H       1  UNL1        0.1555
     22 C           4.4843   -2.0145   21.2632 C.ar    1  UNL1        0.1275
     23 C           3.4565   -1.2216   20.5116 C.ar    1  UNL1        0.0244
     24 C           4.1217   -0.6240   19.3074 C.ar    1  UNL1        0.0773
     25 N           5.5606   -1.0475   19.3147 N.ar    1  UNL1       -0.1729
     26 N           5.7848   -1.9070   20.5234 N.ar    1  UNL1       -0.2382
     27 C           3.3313    0.2287   18.3597 C.3     1  UNL1        0.0474
     28 C           1.8756    0.4837   18.6164 C.3     1  UNL1        0.0067
     29 C           1.2104   -0.1139   19.8206 C.3     1  UNL1        0.0052
     30 C           2.0008   -0.9666   20.7683 C.3     1  UNL1        0.0305
     31 C           7.0816   -2.5465   20.9224 C.3     1  UNL1        0.1314
     32 C           7.2796   -4.0214   20.7344 C.3     1  UNL1        0.0581
     33 C           8.3119   -4.7488   21.5439 C.3     1  UNL1        0.1392
     34 O           8.6374   -6.1797   21.2328 O.3     1  UNL1       -0.3819
     35 H           7.8642   -6.7350   21.4189 H       1  UNL1        0.2104
@<TRIPOS>BOND
     1    18    19    1
     2    19     6    1
     3     6     7   ar
     4     7     8   ar
     5     8     1    1
     6     1     2   ar
     7     2     3   ar
     8     3     4   ar
     9     4    20    1
    10    20    22    1
    11    22    23   ar
    12    23    24   ar
    13    24    25   ar
    14    25    26   ar
    15    26    31    1
    16    31    32    1
    17    32    33    1
    18    33    34    1
    19    24    27    1
    20    27    28    1
    21    28    29    1
    22    29    30    1
    23     4     5   ar
    24     8     9   ar
    25     9    10   ar
    26    10    11   ar
    27    11    12    1
    28    12    13   ar
    29    13    14   ar
    30    14    15   ar
    31    15    16    1
    32    15    17   ar
    33    11     6   ar
    34    17    12   ar
    35     5     1   ar
    36    26    22   ar
    37    30    23    1
    38    20    21    1
    39    34    35    1
@<TRIPOS>MOLECULE
*****
 35 39 0 0 0
SMALL
GASTEIGER

@<TRIPOS>ATOM
      1 C           1.2555    4.1317   32.9210 C.ar    1  UNL1        0.1074
      2 C           0.4472    5.0944   33.7394 C.ar    1  UNL1        0.0588
      3 S           1.0969    5.2173   35.0859 S.2     1  UNL1       -0.0508
      4 C           2.3066    4.3306   35.0995 C.ar    1  UNL1        0.1646
      5 N           2.4046    3.6596   33.7615 N.ar    1  UNL1       -0.2224
      6 C           0.3488    1.8653   29.7918 C.ar    1  UNL1        0.2416
      7 N           0.6388    2.2827   31.2031 N.ar    1  UNL1       -0.2089
      8 C           0.9654    3.7143   31.5098 C.ar    1  UNL1        0.1026
      9 C           1.0020    4.7284   30.4051 C.ar    1  UNL1        0.0224
     10 C           0.7119    4.3109   28.9938 C.ar    1  UNL1        0.0239
     11 C           0.3853    2.8794   28.6872 C.ar    1  UNL1        0.1189
     12 N           0.0953    2.4620   27.2760 N.ar    1  UNL1       -0.2826
     13 C          -1.2074    2.6402   26.5538 C.ar    1  UNL1        0.1826
     14 N          -1.0508    2.0815   25.1707 N.ar    1  UNL1       -0.2280
     15 C           0.3487    1.5579   25.0379 C.ar    1  UNL1        0.0786
     16 C           0.9365    0.9125   23.8181 C.3     1  UNL1        0.0538
     17 C           1.0569    1.7932   26.3391 C.ar    1  UNL1        0.0963
     18 C          -1.3877    0.0396   29.1580 C.3     1  UNL1        0.2543
     19 O           0.0221    0.4338   29.4852 O.3     1  UNL1       -0.4551
     20 N           3.2524    4.1470   36.2493 N.pl3   1  UNL1       -0.2786
     21 H           3.8333    4.8898   36.5323 H       1  UNL1        0.1555
     22 C           3.3130    2.8318   36.9679 C.ar    1  UNL1        0.1275
     23 C           2.3188    2.3293   37.9725 C.ar    1  UNL1        0.0244
     24 C           2.7698    0.9751   38.4336 C.ar    1  UNL1        0.0773
     25 N           4.0427    0.6406   37.7140 N.ar    1  UNL1       -0.1729
     26 N           4.3785    1.7881   36.8082 N.ar    1  UNL1       -0.2382
     27 C           1.9631    0.2215   39.4491 C.3     1  UNL1        0.0474
     28 C           0.7054    0.8222   40.0035 C.3     1  UNL1        0.0067
     29 C           0.2544    2.1764   39.5423 C.3     1  UNL1        0.0052
     30 C           1.0611    2.9300   38.5269 C.3     1  UNL1        0.0305
     31 C           5.5704    1.8764   35.9018 C.3     1  UNL1        0.1314
     32 C           5.4416    1.5027   34.4549 C.3     1  UNL1        0.0581
     33 C           5.3159    0.0608   34.0609 C.3     1  UNL1        0.1392
     34 O           4.6938   -0.9235   35.0065 O.3     1  UNL1       -0.3819
     35 H           5.2562   -1.0180   35.7911 H       1  UNL1        0.2104
@<TRIPOS>BOND
     1    18    19    1
     2    19     6    1
     3     6     7   ar
     4     7     8   ar
     5     8     1    1
     6     1     2   ar
     7     2     3   ar
     8     3     4   ar
     9     4    20    1
    10    20    22    1
    11    22    23   ar
    12    23    24   ar
    13    24    25   ar
    14    25    26   ar
    15    26    31    1
    16    31    32    1
    17    32    33    1
    18    33    34    1
    19    24    27    1
    20    27    28    1
    21    28    29    1
    22    29    30    1
    23     4     5   ar
    24     8     9   ar
    25     9    10   ar
    26    10    11   ar
    27    11    12    1
    28    12    13   ar
    29    13    14   ar
    30    14    15   ar
    31    15    16    1
    32    15    17   ar
    33    11     6   ar
    34    17    12   ar
    35     5     1   ar
    36    26    22   ar
    37    30    23    1
    38    20    21    1
    39    34    35    1
