@<TRIPOS>MOLECULE
*****
 32 36 0 0 0
SMALL
GASTEIGER

@<TRIPOS>ATOM
      1 C           4.5174    1.7487   38.4012 C.ar    1  UNL1        0.0859
      2 C           5.5768    2.4798   39.1715 C.ar    1  UNL1        0.0208
      3 C           6.8934    2.2348   38.4958 C.ar    1  UNL1        0.0223
      4 C           6.6477    1.3524   37.3079 C.ar    1  UNL1        0.1021
      5 C           7.5715    0.7837   36.2720 C.ar    1  UNL1        0.1209
      6 N           7.0267   -0.0855   35.1776 N.ar    1  UNL1       -0.2093
      7 C           5.5583   -0.3860   35.1191 C.ar    1  UNL1        0.2383
      8 N           4.6346    0.1828   36.1550 N.ar    1  UNL1       -0.1295
      9 N           5.1793    1.0520   37.2494 N.ar    1  UNL1       -0.2255
     10 C           2.2204    2.9542   38.5459 C.ar    1  UNL1        0.1401
     11 C           0.7562    2.9250   38.8704 C.ar    1  UNL1        0.0369
     12 C           0.1248    1.6612   39.3746 C.ar    1  UNL1        0.0031
     13 C           0.9576    0.4266   39.5543 C.ar    1  UNL1        0.0002
     14 C           2.4218    0.4558   39.2298 C.ar    1  UNL1        0.0045
     15 C           3.0532    1.7195   38.7256 C.ar    1  UNL1        0.0517
     16 C           2.1825    5.0104   36.9583 C.3     1  UNL1        0.2525
     17 O           2.8518    4.2179   38.0418 O.3     1  UNL1       -0.4714
     18 N           5.0136   -1.2552   34.0246 N.pl3   1  UNL1       -0.2814
     19 H           5.2556   -2.2087   33.9868 H       1  UNL1        0.1551
     20 C           4.1001   -0.6716   32.9878 C.ar    1  UNL1        0.0506
     21 C           3.4207    0.6416   33.2405 C.ar    1  UNL1        0.0159
     22 C           2.5072    1.2252   32.2036 C.ar    1  UNL1        0.0158
     23 C           2.2732    0.4956   30.9142 C.ar    1  UNL1        0.0480
     24 C           2.9526   -0.8176   30.6615 C.ar    1  UNL1        0.0158
     25 C           3.8661   -1.4012   31.6982 C.ar    1  UNL1        0.0159
     26 N           1.3598    1.0792   29.8774 N.pl3   1  UNL1       -0.3046
     27 C           0.4743    0.1802   29.0663 C.3     1  UNL1        0.1081
     28 C          -0.4392    0.7638   28.0295 C.3     1  UNL1        0.0938
     29 N          -0.4672    2.2464   27.8037 N.3     1  UNL1       -0.2686
     30 C          -1.3806    2.8300   26.7669 C.3     1  UNL1        0.0897
     31 C           0.4183    3.1455   28.6148 C.3     1  UNL1        0.0938
     32 C           1.3317    2.5619   29.6516 C.3     1  UNL1        0.1081
@<TRIPOS>BOND
     1    16    17    1
     2    17    10    1
     3    10    11   ar
     4    11    12   ar
     5    12    13   ar
     6    13    14   ar
     7    14    15   ar
     8    15     1    1
     9     1     2   ar
    10     2     3   ar
    11     3     4   ar
    12     4     5   ar
    13     5     6   ar
    14     6     7   ar
    15     7    18    1
    16    18    20    1
    17    20    21   ar
    18    21    22   ar
    19    22    23   ar
    20    23    26    1
    21    26    27    1
    22    27    28    1
    23    28    29    1
    24    29    30    1
    25    29    31    1
    26    31    32    1
    27    23    24   ar
    28    24    25   ar
    29     7     8   ar
    30     8     9   ar
    31    15    10   ar
    32     9     1   ar
    33     9     4   ar
    34    25    20   ar
    35    32    26    1
    36    18    19    1
@<TRIPOS>MOLECULE
*****
 32 36 0 0 0
SMALL
GASTEIGER

@<TRIPOS>ATOM
      1 C           3.5278   -1.3569   21.8970 C.ar    1  UNL1        0.0859
      2 C           4.2580   -2.6665   21.9372 C.ar    1  UNL1        0.0208
      3 C           4.6804   -2.9183   23.3543 C.ar    1  UNL1        0.0223
      4 C           4.2113   -1.7643   24.1899 C.ar    1  UNL1        0.1021
      5 C           4.3407   -1.4676   25.6545 C.ar    1  UNL1        0.1209
      6 N           3.7578   -0.2058   26.2184 N.ar    1  UNL1       -0.2093
      7 C           3.0454    0.7593   25.3177 C.ar    1  UNL1        0.2383
      8 N           2.9160    0.4625   23.8531 N.ar    1  UNL1       -0.1295
      9 N           3.4989   -0.7993   23.2892 N.ar    1  UNL1       -0.2255
     10 C           3.8117   -0.3297   19.5274 C.ar    1  UNL1        0.1401
     11 C           3.2151    0.3101   18.3089 C.ar    1  UNL1        0.0369
     12 C           1.7380    0.5625   18.2414 C.ar    1  UNL1        0.0031
     13 C           0.8576    0.1751   19.3923 C.ar    1  UNL1        0.0002
     14 C           1.4542   -0.4647   20.6108 C.ar    1  UNL1        0.0045
     15 C           2.9312   -0.7171   20.6785 C.ar    1  UNL1        0.0517
     16 C           5.9240   -1.5714   18.6636 C.3     1  UNL1        0.2525
     17 O           5.2888   -0.5821   19.5950 O.3     1  UNL1       -0.4714
     18 N           2.4625    2.0211   25.8817 N.pl3   1  UNL1       -0.2814
     19 H           3.0101    2.6015   26.4584 H       1  UNL1        0.1551
     20 C           1.0453    2.3986   25.5671 C.ar    1  UNL1        0.0506
     21 C           0.7178    3.0615   24.2620 C.ar    1  UNL1        0.0159
     22 C          -0.6995    3.4390   23.9475 C.ar    1  UNL1        0.0158
     23 C          -1.7892    3.1536   24.9380 C.ar    1  UNL1        0.0480
     24 C          -1.4616    2.4907   26.2431 C.ar    1  UNL1        0.0158
     25 C          -0.0444    2.1132   26.5577 C.ar    1  UNL1        0.0159
     26 N          -3.2063    3.5311   24.6234 N.pl3   1  UNL1       -0.3046
     27 C          -3.6893    3.5147   23.2034 C.3     1  UNL1        0.1081
     28 C          -5.1066    3.8922   22.8888 C.3     1  UNL1        0.0938
     29 N          -6.0408    4.2861   23.9942 N.3     1  UNL1       -0.2686
     30 C          -7.4580    4.6636   23.6796 C.3     1  UNL1        0.0897
     31 C          -5.5579    4.3025   25.4143 C.3     1  UNL1        0.0938
     32 C          -4.1407    3.9250   25.7288 C.3     1  UNL1        0.1081
@<TRIPOS>BOND
     1    16    17    1
     2    17    10    1
     3    10    11   ar
     4    11    12   ar
     5    12    13   ar
     6    13    14   ar
     7    14    15   ar
     8    15     1    1
     9     1     2   ar
    10     2     3   ar
    11     3     4   ar
    12     4     5   ar
    13     5     6   ar
    14     6     7   ar
    15     7    18    1
    16    18    20    1
    17    20    21   ar
    18    21    22   ar
    19    22    23   ar
    20    23    26    1
    21    26    27    1
    22    27    28    1
    23    28    29    1
    24    29    30    1
    25    29    31    1
    26    31    32    1
    27    23    24   ar
    28    24    25   ar
    29     7     8   ar
    30     8     9   ar
    31    15    10   ar
    32     9     1   ar
    33     9     4   ar
    34    25    20   ar
    35    32    26    1
    36    18    19    1
@<TRIPOS>MOLECULE
*****
 32 36 0 0 0
SMALL
GASTEIGER

@<TRIPOS>ATOM
      1 C           2.2374    3.8819   36.9407 C.ar    1  UNL1        0.0859
      2 C           2.6250    5.2815   37.3160 C.ar    1  UNL1        0.0208
      3 C           2.8543    6.0539   36.0508 C.ar    1  UNL1        0.0223
      4 C           2.6084    5.1318   34.8936 C.ar    1  UNL1        0.1021
      5 C           2.6824    5.3410   33.4101 C.ar    1  UNL1        0.1209
      6 N           2.3752    4.2078   32.4767 N.ar    1  UNL1       -0.2093
      7 C           1.9939    2.8653   33.0267 C.ar    1  UNL1        0.2383
      8 N           1.9199    2.6561   34.5101 N.ar    1  UNL1       -0.1295
      9 N           2.2271    3.7893   35.4436 N.ar    1  UNL1       -0.2255
     10 C           2.8071    1.5653   37.9699 C.ar    1  UNL1        0.1401
     11 C           2.4861    0.4534   38.9242 C.ar    1  UNL1        0.0369
     12 C           1.2744    0.5461   39.8035 C.ar    1  UNL1        0.0031
     13 C           0.3838    1.7507   39.7286 C.ar    1  UNL1        0.0002
     14 C           0.7048    2.8626   38.7743 C.ar    1  UNL1        0.0045
     15 C           1.9164    2.7700   37.8950 C.ar    1  UNL1        0.0517
     16 C           4.5307    0.1307   36.6580 C.3     1  UNL1        0.2525
     17 O           4.0188    1.4726   37.0906 O.3     1  UNL1       -0.4714
     18 N           1.6867    1.7321   32.0931 N.pl3   1  UNL1       -0.2814
     19 H           0.7932    1.6579   31.6863 H       1  UNL1        0.1551
     20 C           2.7407    0.7120   31.7794 C.ar    1  UNL1        0.0506
     21 C           3.0549    0.3726   30.3525 C.ar    1  UNL1        0.0159
     22 C           4.1089   -0.6475   30.0388 C.ar    1  UNL1        0.0158
     23 C           4.8487   -1.3283   31.1520 C.ar    1  UNL1        0.0480
     24 C           4.5345   -0.9889   32.5790 C.ar    1  UNL1        0.0158
     25 C           3.4805    0.0312   32.8927 C.ar    1  UNL1        0.0159
     26 N           5.9027   -2.3483   30.8383 N.pl3   1  UNL1       -0.3046
     27 C           6.4064   -2.4987   29.4335 C.3     1  UNL1        0.1081
     28 C           7.4604   -3.5189   29.1198 C.3     1  UNL1        0.0938
     29 N           8.0107   -4.3886   30.2110 N.3     1  UNL1       -0.2686
     30 C           9.0647   -5.4087   29.8973 C.3     1  UNL1        0.0897
     31 C           7.5071   -4.2382   31.6158 C.3     1  UNL1        0.0938
     32 C           6.4531   -3.2181   31.9295 C.3     1  UNL1        0.1081
@<TRIPOS>BOND
     1    16    17    1
     2    17    10    1
     3    10    11   ar
     4    11    12   ar
     5    12    13   ar
     6    13    14   ar
     7    14    15   ar
     8    15     1    1
     9     1     2   ar
    10     2     3   ar
    11     3     4   ar
    12     4     5   ar
    13     5     6   ar
    14     6     7   ar
    15     7    18    1
    16    18    20    1
    17    20    21   ar
    18    21    22   ar
    19    22    23   ar
    20    23    26    1
    21    26    27    1
    22    27    28    1
    23    28    29    1
    24    29    30    1
    25    29    31    1
    26    31    32    1
    27    23    24   ar
    28    24    25   ar
    29     7     8   ar
    30     8     9   ar
    31    15    10   ar
    32     9     1   ar
    33     9     4   ar
    34    25    20   ar
    35    32    26    1
    36    18    19    1
@<TRIPOS>MOLECULE
*****
 32 36 0 0 0
SMALL
GASTEIGER

@<TRIPOS>ATOM
      1 C          -1.4813    4.1469   20.9586 C.ar    1  UNL1        0.0859
      2 C          -1.1579    5.5040   20.4076 C.ar    1  UNL1        0.0208
      3 C          -0.0261    5.3518   19.4352 C.ar    1  UNL1        0.0223
      4 C           0.3500    3.9006   19.3851 C.ar    1  UNL1        0.1021
      5 C           1.3953    3.1610   18.6038 C.ar    1  UNL1        0.1209
      6 N           1.5411    1.6768   18.7640 N.ar    1  UNL1       -0.2093
      7 C           0.6417    0.9321   19.7055 C.ar    1  UNL1        0.2383
      8 N          -0.4035    1.6716   20.4868 N.ar    1  UNL1       -0.1295
      9 N          -0.5494    3.1559   20.3266 N.ar    1  UNL1       -0.2255
     10 C          -3.9000    3.3717   21.5058 C.ar    1  UNL1        0.1401
     11 C          -4.9679    3.0602   22.5121 C.ar    1  UNL1        0.0369
     12 C          -4.6851    3.2123   23.9773 C.ar    1  UNL1        0.0031
     13 C          -3.3344    3.6759   24.4363 C.ar    1  UNL1        0.0002
     14 C          -2.2665    3.9875   23.4300 C.ar    1  UNL1        0.0045
     15 C          -2.5492    3.8354   21.9648 C.ar    1  UNL1        0.0517
     16 C          -5.4829    3.7071   19.4731 C.3     1  UNL1        0.2525
     17 O          -4.1828    3.2196   20.0406 O.3     1  UNL1       -0.4714
     18 N           0.7876   -0.5522   19.8657 N.pl3   1  UNL1       -0.2814
     19 H           0.0635   -1.1523   19.5743 H       1  UNL1        0.1551
     20 C           2.0366   -1.1222   20.4699 C.ar    1  UNL1        0.0506
     21 C           2.4725   -0.6900   21.8386 C.ar    1  UNL1        0.0159
     22 C           3.7215   -1.2600   22.4428 C.ar    1  UNL1        0.0158
     23 C           4.5346   -2.2622   21.6783 C.ar    1  UNL1        0.0480
     24 C           4.0987   -2.6945   20.3097 C.ar    1  UNL1        0.0158
     25 C           2.8497   -2.1245   19.7055 C.ar    1  UNL1        0.0159
     26 N           5.7836   -2.8322   22.2825 N.pl3   1  UNL1       -0.3046
     27 C           5.7633   -3.3638   23.6850 C.3     1  UNL1        0.1081
     28 C           7.0124   -3.9338   24.2892 C.3     1  UNL1        0.0938
     29 N           8.2817   -3.9722   23.4909 N.3     1  UNL1       -0.2686
     30 C           9.5307   -4.5422   24.0951 C.3     1  UNL1        0.0897
     31 C           8.3020   -3.4406   22.0884 C.3     1  UNL1        0.0938
     32 C           7.0530   -2.8706   21.4842 C.3     1  UNL1        0.1081
@<TRIPOS>BOND
     1    16    17    1
     2    17    10    1
     3    10    11   ar
     4    11    12   ar
     5    12    13   ar
     6    13    14   ar
     7    14    15   ar
     8    15     1    1
     9     1     2   ar
    10     2     3   ar
    11     3     4   ar
    12     4     5   ar
    13     5     6   ar
    14     6     7   ar
    15     7    18    1
    16    18    20    1
    17    20    21   ar
    18    21    22   ar
    19    22    23   ar
    20    23    26    1
    21    26    27    1
    22    27    28    1
    23    28    29    1
    24    29    30    1
    25    29    31    1
    26    31    32    1
    27    23    24   ar
    28    24    25   ar
    29     7     8   ar
    30     8     9   ar
    31    15    10   ar
    32     9     1   ar
    33     9     4   ar
    34    25    20   ar
    35    32    26    1
    36    18    19    1
@<TRIPOS>MOLECULE
*****
 32 36 0 0 0
SMALL
GASTEIGER

@<TRIPOS>ATOM
      1 C           3.6586   -2.1880   19.7460 C.ar    1  UNL1        0.0859
      2 C           3.6722   -3.4813   18.9863 C.ar    1  UNL1        0.0208
      3 C           4.7690   -4.3369   19.5474 C.ar    1  UNL1        0.0223
      4 C           5.4333   -3.5724   20.6539 C.ar    1  UNL1        0.1021
      5 C           6.5745   -3.9140   21.5655 C.ar    1  UNL1        0.1209
      6 N           7.0293   -2.9275   22.5998 N.ar    1  UNL1       -0.2093
      7 C           6.3430   -1.5994   22.7225 C.ar    1  UNL1        0.2383
      8 N           5.2018   -1.2577   21.8109 N.ar    1  UNL1       -0.1295
      9 N           4.7470   -2.2443   20.7766 N.ar    1  UNL1       -0.2255
     10 C           3.0317   -0.0178   18.4625 C.ar    1  UNL1        0.1401
     11 C           2.0943    1.1303   18.2320 C.ar    1  UNL1        0.0369
     12 C           0.8463    1.2563   19.0545 C.ar    1  UNL1        0.0031
     13 C           0.5357    0.2342   20.1075 C.ar    1  UNL1        0.0002
     14 C           1.4732   -0.9139   20.3380 C.ar    1  UNL1        0.0045
     15 C           2.7211   -1.0399   19.5155 C.ar    1  UNL1        0.0517
     16 C           5.5182    0.6037   18.0367 C.3     1  UNL1        0.2525
     17 O           4.2797   -0.1437   17.6399 O.3     1  UNL1       -0.4714
     18 N           6.7979   -0.6128   23.7569 N.pl3   1  UNL1       -0.2814
     19 H           7.3319    0.1698   23.4895 H       1  UNL1        0.1551
     20 C           6.4390   -0.8187   25.1987 C.ar    1  UNL1        0.0506
     21 C           5.0809   -1.3384   25.5668 C.ar    1  UNL1        0.0159
     22 C           4.7221   -1.5443   27.0087 C.ar    1  UNL1        0.0158
     23 C           5.7214   -1.2305   28.0824 C.ar    1  UNL1        0.0480
     24 C           7.0795   -0.7108   27.7143 C.ar    1  UNL1        0.0158
     25 C           7.4383   -0.5049   26.2725 C.ar    1  UNL1        0.0159
     26 N           5.3626   -1.4363   29.5242 N.pl3   1  UNL1       -0.3046
     27 C           6.1617   -2.3848   30.3679 C.3     1  UNL1        0.1081
     28 C           5.8028   -2.5906   31.8098 C.3     1  UNL1        0.0938
     29 N           4.6449   -1.8481   32.4078 N.3     1  UNL1       -0.2686
     30 C           4.2860   -2.0540   33.8496 C.3     1  UNL1        0.0897
     31 C           3.8457   -0.8997   31.5641 C.3     1  UNL1        0.0938
     32 C           4.2046   -0.6938   30.1223 C.3     1  UNL1        0.1081
@<TRIPOS>BOND
     1    16    17    1
     2    17    10    1
     3    10    11   ar
     4    11    12   ar
     5    12    13   ar
     6    13    14   ar
     7    14    15   ar
     8    15     1    1
     9     1     2   ar
    10     2     3   ar
    11     3     4   ar
    12     4     5   ar
    13     5     6   ar
    14     6     7   ar
    15     7    18    1
    16    18    20    1
    17    20    21   ar
    18    21    22   ar
    19    22    23   ar
    20    23    26    1
    21    26    27    1
    22    27    28    1
    23    28    29    1
    24    29    30    1
    25    29    31    1
    26    31    32    1
    27    23    24   ar
    28    24    25   ar
    29     7     8   ar
    30     8     9   ar
    31    15    10   ar
    32     9     1   ar
    33     9     4   ar
    34    25    20   ar
    35    32    26    1
    36    18    19    1
@<TRIPOS>MOLECULE
*****
 32 36 0 0 0
SMALL
GASTEIGER

@<TRIPOS>ATOM
      1 C           3.1212    3.3675   36.9322 C.ar    1  UNL1        0.0859
      2 C           4.2424    4.3140   37.2437 C.ar    1  UNL1        0.0208
      3 C           4.6793    4.9537   35.9593 C.ar    1  UNL1        0.0223
      4 C           3.8282    4.4025   34.8539 C.ar    1  UNL1        0.1021
      5 C           3.8057    4.6666   33.3775 C.ar    1  UNL1        0.1209
      6 N           2.8202    3.9504   32.5025 N.ar    1  UNL1       -0.2093
      7 C           1.8572    2.9701   33.1038 C.ar    1  UNL1        0.2383
      8 N           1.8797    2.7059   34.5802 N.ar    1  UNL1       -0.1295
      9 N           2.8653    3.4222   35.4552 N.ar    1  UNL1       -0.2255
     10 C           2.9858    1.2245   38.3949 C.ar    1  UNL1        0.1401
     11 C           2.2498    0.3728   39.3863 C.ar    1  UNL1        0.0369
     12 C           0.9133    0.8123   39.9064 C.ar    1  UNL1        0.0031
     13 C           0.3128    2.1035   39.4351 C.ar    1  UNL1        0.0002
     14 C           1.0488    2.9552   38.4437 C.ar    1  UNL1        0.0045
     15 C           2.3852    2.5158   37.9236 C.ar    1  UNL1        0.0517
     16 C           4.4164    0.0628   36.5635 C.3     1  UNL1        0.2525
     17 O           4.3223    0.7850   37.8748 O.3     1  UNL1       -0.4714
     18 N           0.8716    2.2538   32.2287 N.pl3   1  UNL1       -0.2814
     19 H          -0.0516    2.1127   32.5402 H       1  UNL1        0.1551
     20 C           1.2927    1.7527   30.8791 C.ar    1  UNL1        0.0506
     21 C           2.1665    0.5384   30.7690 C.ar    1  UNL1        0.0159
     22 C           2.5876    0.0373   29.4193 C.ar    1  UNL1        0.0158
     23 C           2.1349    0.7503   28.1798 C.ar    1  UNL1        0.0480
     24 C           1.2611    1.9645   28.2898 C.ar    1  UNL1        0.0158
     25 C           0.8400    2.4657   29.6395 C.ar    1  UNL1        0.0159
     26 N           2.5559    0.2492   26.8302 N.pl3   1  UNL1       -0.3046
     27 C           1.9744    0.8583   25.5889 C.3     1  UNL1        0.1081
     28 C           2.3955    0.3571   24.2393 C.3     1  UNL1        0.0938
     29 N           3.3981   -0.7532   24.1309 N.3     1  UNL1       -0.2686
     30 C           3.8192   -1.2544   22.7813 C.3     1  UNL1        0.0897
     31 C           3.9797   -1.3624   25.3722 C.3     1  UNL1        0.0938
     32 C           3.5586   -0.8612   26.7218 C.3     1  UNL1        0.1081
@<TRIPOS>BOND
     1    16    17    1
     2    17    10    1
     3    10    11   ar
     4    11    12   ar
     5    12    13   ar
     6    13    14   ar
     7    14    15   ar
     8    15     1    1
     9     1     2   ar
    10     2     3   ar
    11     3     4   ar
    12     4     5   ar
    13     5     6   ar
    14     6     7   ar
    15     7    18    1
    16    18    20    1
    17    20    21   ar
    18    21    22   ar
    19    22    23   ar
    20    23    26    1
    21    26    27    1
    22    27    28    1
    23    28    29    1
    24    29    30    1
    25    29    31    1
    26    31    32    1
    27    23    24   ar
    28    24    25   ar
    29     7     8   ar
    30     8     9   ar
    31    15    10   ar
    32     9     1   ar
    33     9     4   ar
    34    25    20   ar
    35    32    26    1
    36    18    19    1
@<TRIPOS>MOLECULE
*****
 32 36 0 0 0
SMALL
GASTEIGER

@<TRIPOS>ATOM
      1 C          -2.9613    3.9585   25.5965 C.ar    1  UNL1        0.0859
      2 C          -4.3933    3.9368   26.0428 C.ar    1  UNL1        0.0208
      3 C          -5.2482    3.6527   24.8434 C.ar    1  UNL1        0.0223
      4 C          -4.3447    3.4989   23.6560 C.ar    1  UNL1        0.1021
      5 C          -4.6264    3.2112   22.2111 C.ar    1  UNL1        0.1209
      6 N          -3.4947    3.1124   21.2316 N.ar    1  UNL1       -0.2093
      7 C          -2.0813    3.3014   21.6970 C.ar    1  UNL1        0.2383
      8 N          -1.7996    3.5891   23.1419 N.ar    1  UNL1       -0.1295
      9 N          -2.9313    3.6879   24.1214 N.ar    1  UNL1       -0.2255
     10 C          -0.7476    3.1268   26.6727 C.ar    1  UNL1        0.1401
     11 C           0.4449    3.3754   27.5479 C.ar    1  UNL1        0.0369
     12 C           0.6164    4.7043   28.2221 C.ar    1  UNL1        0.0031
     13 C          -0.4046    5.7846   28.0211 C.ar    1  UNL1        0.0002
     14 C          -1.5972    5.5359   27.1459 C.ar    1  UNL1        0.0045
     15 C          -1.7688    4.2071   26.4717 C.ar    1  UNL1        0.0517
     16 C           0.1541    1.2728   25.0916 C.3     1  UNL1        0.2525
     17 O          -0.9191    1.7979   25.9985 O.3     1  UNL1       -0.4714
     18 N          -0.9495    3.2026   20.7175 N.pl3   1  UNL1       -0.2814
     19 H          -0.9175    3.8055   19.9398 H       1  UNL1        0.1551
     20 C           0.1334    2.1853   20.9227 C.ar    1  UNL1        0.0506
     21 C           1.3277    2.5209   21.7659 C.ar    1  UNL1        0.0159
     22 C           2.4107    1.5034   21.9712 C.ar    1  UNL1        0.0158
     23 C           2.2993    0.1505   21.3332 C.ar    1  UNL1        0.0480
     24 C           1.1050   -0.1852   20.4901 C.ar    1  UNL1        0.0158
     25 C           0.0221    0.8322   20.2848 C.ar    1  UNL1        0.0159
     26 N           3.3823   -0.8669   21.5385 N.pl3   1  UNL1       -0.3046
     27 C           4.2702   -1.2583   20.3947 C.3     1  UNL1        0.1081
     28 C           5.3532   -2.2757   20.6000 C.3     1  UNL1        0.0938
     29 N           5.5482   -2.9016   21.9491 N.3     1  UNL1       -0.2686
     30 C           6.6312   -3.9190   22.1544 C.3     1  UNL1        0.0897
     31 C           4.6602   -2.5103   23.0929 C.3     1  UNL1        0.0938
     32 C           3.5773   -1.4929   22.8877 C.3     1  UNL1        0.1081
@<TRIPOS>BOND
     1    16    17    1
     2    17    10    1
     3    10    11   ar
     4    11    12   ar
     5    12    13   ar
     6    13    14   ar
     7    14    15   ar
     8    15     1    1
     9     1     2   ar
    10     2     3   ar
    11     3     4   ar
    12     4     5   ar
    13     5     6   ar
    14     6     7   ar
    15     7    18    1
    16    18    20    1
    17    20    21   ar
    18    21    22   ar
    19    22    23   ar
    20    23    26    1
    21    26    27    1
    22    27    28    1
    23    28    29    1
    24    29    30    1
    25    29    31    1
    26    31    32    1
    27    23    24   ar
    28    24    25   ar
    29     7     8   ar
    30     8     9   ar
    31    15    10   ar
    32     9     1   ar
    33     9     4   ar
    34    25    20   ar
    35    32    26    1
    36    18    19    1
@<TRIPOS>MOLECULE
*****
 32 36 0 0 0
SMALL
GASTEIGER

@<TRIPOS>ATOM
      1 C          -3.0407    4.2534   25.4622 C.ar    1  UNL1        0.0859
      2 C          -4.3598    3.9371   26.1023 C.ar    1  UNL1        0.0208
      3 C          -5.3165    3.5362   25.0187 C.ar    1  UNL1        0.0223
      4 C          -4.5886    3.6048   23.7089 C.ar    1  UNL1        0.1021
      5 C          -5.0248    3.3209   22.3022 C.ar    1  UNL1        0.1209
      6 N          -4.0545    3.4803   21.1695 N.ar    1  UNL1       -0.2093
      7 C          -2.6480    3.9236   21.4436 C.ar    1  UNL1        0.2383
      8 N          -2.2117    4.2075   22.8503 N.ar    1  UNL1       -0.1295
      9 N          -3.1820    4.0481   23.9830 N.ar    1  UNL1       -0.2255
     10 C          -0.8991    3.6825   26.8179 C.ar    1  UNL1        0.1401
     11 C           0.3433    4.1263   27.5316 C.ar    1  UNL1        0.0369
     12 C           0.6867    5.5847   27.6034 C.ar    1  UNL1        0.0031
     13 C          -0.2124    6.5993   26.9614 C.ar    1  UNL1        0.0002
     14 C          -1.4549    6.1555   26.2477 C.ar    1  UNL1        0.0045
     15 C          -1.7983    4.6972   26.1759 C.ar    1  UNL1        0.0517
     16 C          -0.8039    1.2956   27.8395 C.3     1  UNL1        0.2525
     17 O          -1.2424    2.2241   26.7461 O.3     1  UNL1       -0.4714
     18 N          -1.6776    4.0830   20.3108 N.pl3   1  UNL1       -0.2814
     19 H          -1.6993    4.8951   19.7546 H       1  UNL1        0.1551
     20 C          -0.6743    3.0051   20.0254 C.ar    1  UNL1        0.0506
     21 C          -0.2958    2.0293   21.0999 C.ar    1  UNL1        0.0159
     22 C           0.7076    0.9514   20.8144 C.ar    1  UNL1        0.0158
     23 C           1.3324    0.8494   19.4546 C.ar    1  UNL1        0.0480
     24 C           0.9539    1.8252   18.3802 C.ar    1  UNL1        0.0158
     25 C          -0.0494    2.9031   18.6655 C.ar    1  UNL1        0.0159
     26 N           2.3358   -0.2285   19.1693 N.pl3   1  UNL1       -0.3046
     27 C           3.1767   -0.1611   17.9290 C.3     1  UNL1        0.1081
     28 C           4.1801   -1.2390   17.6436 C.3     1  UNL1        0.0938
     29 N           4.3425   -2.3843   18.5986 N.3     1  UNL1       -0.2686
     30 C           5.3458   -3.4622   18.3132 C.3     1  UNL1        0.0897
     31 C           3.5016   -2.4517   19.8388 C.3     1  UNL1        0.0938
     32 C           2.4982   -1.3738   20.1242 C.3     1  UNL1        0.1081
@<TRIPOS>BOND
     1    16    17    1
     2    17    10    1
     3    10    11   ar
     4    11    12   ar
     5    12    13   ar
     6    13    14   ar
     7    14    15   ar
     8    15     1    1
     9     1     2   ar
    10     2     3   ar
    11     3     4   ar
    12     4     5   ar
    13     5     6   ar
    14     6     7   ar
    15     7    18    1
    16    18    20    1
    17    20    21   ar
    18    21    22   ar
    19    22    23   ar
    20    23    26    1
    21    26    27    1
    22    27    28    1
    23    28    29    1
    24    29    30    1
    25    29    31    1
    26    31    32    1
    27    23    24   ar
    28    24    25   ar
    29     7     8   ar
    30     8     9   ar
    31    15    10   ar
    32     9     1   ar
    33     9     4   ar
    34    25    20   ar
    35    32    26    1
    36    18    19    1
@<TRIPOS>MOLECULE
*****
 32 36 0 0 0
SMALL
GASTEIGER

@<TRIPOS>ATOM
      1 C          -3.1723    3.6565   25.0209 C.ar    1  UNL1        0.0859
      2 C          -4.6452    3.7453   25.2905 C.ar    1  UNL1        0.0208
      3 C          -5.3655    3.5927   23.9837 C.ar    1  UNL1        0.0223
      4 C          -4.3379    3.4096   22.9065 C.ar    1  UNL1        0.1021
      5 C          -4.4613    3.2120   21.4247 C.ar    1  UNL1        0.1209
      6 N          -3.2292    3.0539   20.5840 N.ar    1  UNL1       -0.2093
      7 C          -1.8736    3.0933   21.2251 C.ar    1  UNL1        0.2383
      8 N          -1.7502    3.2909   22.7068 N.ar    1  UNL1       -0.1295
      9 N          -2.9823    3.4490   23.5476 N.ar    1  UNL1       -0.2255
     10 C          -1.7134    5.0932   26.6203 C.ar    1  UNL1        0.1401
     11 C          -0.6220    5.1942   27.6443 C.ar    1  UNL1        0.0369
     12 C           0.1020    3.9595   28.0931 C.ar    1  UNL1        0.0031
     13 C          -0.2654    2.6239   27.5178 C.ar    1  UNL1        0.0002
     14 C          -1.3569    2.5229   26.4937 C.ar    1  UNL1        0.0045
     15 C          -2.0809    3.7575   26.0450 C.ar    1  UNL1        0.0517
     16 C          -1.9260    7.1135   25.0006 C.3     1  UNL1        0.2525
     17 O          -2.4374    6.3279   26.1716 O.3     1  UNL1       -0.4714
     18 N          -0.6415    2.9352   20.3843 N.pl3   1  UNL1       -0.2814
     19 H          -0.5131    3.4997   19.5880 H       1  UNL1        0.1551
     20 C           0.3951    1.9170   20.7568 C.ar    1  UNL1        0.0506
     21 C           0.2686    0.5045   20.2680 C.ar    1  UNL1        0.0159
     22 C           1.3052   -0.5137   20.6405 C.ar    1  UNL1        0.0158
     23 C           2.4683   -0.1194   21.5017 C.ar    1  UNL1        0.0480
     24 C           2.5948    1.2930   21.9905 C.ar    1  UNL1        0.0158
     25 C           1.5582    2.3112   21.6180 C.ar    1  UNL1        0.0159
     26 N           3.5048   -1.1376   21.8742 N.pl3   1  UNL1       -0.3046
     27 C           3.7711   -1.4431   23.3184 C.3     1  UNL1        0.1081
     28 C           4.8077   -2.4614   23.6909 C.3     1  UNL1        0.0938
     29 N           5.5780   -3.1741   22.6191 N.3     1  UNL1       -0.2686
     30 C           6.6145   -4.1923   22.9916 C.3     1  UNL1        0.0897
     31 C           5.3117   -2.8686   21.1749 C.3     1  UNL1        0.0938
     32 C           4.2751   -1.8504   20.8024 C.3     1  UNL1        0.1081
@<TRIPOS>BOND
     1    16    17    1
     2    17    10    1
     3    10    11   ar
     4    11    12   ar
     5    12    13   ar
     6    13    14   ar
     7    14    15   ar
     8    15     1    1
     9     1     2   ar
    10     2     3   ar
    11     3     4   ar
    12     4     5   ar
    13     5     6   ar
    14     6     7   ar
    15     7    18    1
    16    18    20    1
    17    20    21   ar
    18    21    22   ar
    19    22    23   ar
    20    23    26    1
    21    26    27    1
    22    27    28    1
    23    28    29    1
    24    29    30    1
    25    29    31    1
    26    31    32    1
    27    23    24   ar
    28    24    25   ar
    29     7     8   ar
    30     8     9   ar
    31    15    10   ar
    32     9     1   ar
    33     9     4   ar
    34    25    20   ar
    35    32    26    1
    36    18    19    1
