@<TRIPOS>MOLECULE
*****
 29 32 0 0 0
SMALL
GASTEIGER

@<TRIPOS>ATOM
      1 C          -6.6547  -16.5730   23.9062 C.3     1  UNL1        0.0844
      2 C          -7.7771  -16.0094   24.7261 C.3     1  UNL1        0.0243
      3 C          -9.2000  -16.2766   24.3338 C.3     1  UNL1        0.0449
      4 C          -9.5005  -17.1073   23.1216 C.ar    1  UNL1        0.0336
      5 C          -8.3780  -17.6710   22.3016 C.ar    1  UNL1       -0.0076
      6 C          -8.9774  -18.4480   21.1671 C.ar    1  UNL1        0.0160
      7 C          -8.3566  -19.2207   20.0413 C.ar    1  UNL1        0.0218
      8 C          -9.2288  -19.9099   19.0343 C.ar    1  UNL1        0.0990
      9 N         -10.7218  -19.8266   19.1531 N.ar    1  UNL1       -0.2408
     10 C         -11.3425  -19.0539   20.2790 C.ar    1  UNL1        0.1160
     11 C         -10.4704  -18.3646   21.2860 C.ar    1  UNL1        0.0791
     12 N         -10.7936  -17.5360   22.4939 N.ar    1  UNL1       -0.3244
     13 C          -6.9551  -17.4038   22.6939 C.3     1  UNL1        0.0452
     14 C          -4.9274  -15.6328   25.6040 C.3     1  UNL1        0.1149
     15 N          -5.2316  -16.3059   24.2984 N.3     1  UNL1       -0.1551
     16 S          -4.1131  -16.7118   23.3852 S.O2    1  UNL1        0.0633
     17 O          -4.1193  -18.0853   23.9881 O.2     1  UNL1       -0.1528
     18 O          -4.1069  -15.3383   22.7823 O.2     1  UNL1       -0.1528
     19 C          -2.9945  -17.1177   22.4720 C.ar    1  UNL1        0.1223
     20 C          -2.1514  -16.0702   21.8073 C.ar    1  UNL1        0.0222
     21 C          -1.0328  -16.4761   20.8940 C.ar    1  UNL1        0.0310
     22 C          -0.7573  -17.9295   20.6455 C.ar    1  UNL1        0.1402
     23 F           0.3612  -18.3355   19.7322 F       1  UNL1       -0.2042
     24 C          -1.6005  -18.9770   21.3102 C.ar    1  UNL1        0.0310
     25 C          -2.7191  -18.5711   22.2235 C.ar    1  UNL1        0.0222
     26 C         -12.1687  -17.1959   22.9874 C.3     1  UNL1        0.1475
     27 C         -12.8434  -18.0784   23.9952 C.2     1  UNL1        0.0732
     28 O         -14.3392  -18.0807   24.1080 O.co2   1  UNL1       -0.5472
     29 O         -12.0225  -18.9587   24.8903 O.co2   1  UNL1       -0.5472
@<TRIPOS>UNITY_ATOM_ATTR
28 1
charge -1
@<TRIPOS>BOND
     1    14    15    1
     2     1    15    1
     3     1     2    1
     4     2     3    1
     5     3     4    1
     6     4     5   ar
     7     5     6   ar
     8     6     7   ar
     9     7     8   ar
    10     8     9   ar
    11     9    10   ar
    12    10    11   ar
    13    11    12   ar
    14    12    26    1
    15    26    27    1
    16    27    28   ar
    17    27    29   ar
    18     5    13    1
    19    15    16    1
    20    16    17    2
    21    16    18    2
    22    16    19    1
    23    19    20   ar
    24    20    21   ar
    25    21    22   ar
    26    22    23    1
    27    22    24   ar
    28    24    25   ar
    29    13     1    1
    30    25    19   ar
    31    12     4   ar
    32    11     6   ar
@<TRIPOS>MOLECULE
*****
 29 32 0 0 0
SMALL
GASTEIGER

@<TRIPOS>ATOM
      1 C          -6.3797  -16.5461   23.8457 C.3     1  UNL1        0.0844
      2 C          -5.0213  -15.9308   24.0069 C.3     1  UNL1        0.0243
      3 C          -3.8403  -16.5240   23.2973 C.3     1  UNL1        0.0449
      4 C          -4.0179  -17.7324   22.4265 C.ar    1  UNL1        0.0336
      5 C          -5.3764  -18.3476   22.2654 C.ar    1  UNL1       -0.0076
      6 C          -5.2453  -19.5270   21.3478 C.ar    1  UNL1        0.0160
      7 C          -6.2507  -20.5121   20.8295 C.ar    1  UNL1        0.0218
      8 C          -5.8166  -21.6108   19.9052 C.ar    1  UNL1        0.0990
      9 N          -4.3770  -21.7245   19.4993 N.ar    1  UNL1       -0.2408
     10 C          -3.3716  -20.7394   20.0176 C.ar    1  UNL1        0.1160
     11 C          -3.8057  -19.6407   20.9419 C.ar    1  UNL1        0.0791
     12 N          -3.0472  -18.5315   21.6086 N.ar    1  UNL1       -0.3244
     13 C          -6.5573  -17.7545   22.9750 C.3     1  UNL1        0.0452
     14 C          -7.3581  -14.8665   25.5696 C.3     1  UNL1        0.1149
     15 N          -7.5607  -15.9529   24.5554 N.3     1  UNL1       -0.1551
     16 S          -8.9442  -16.4461   24.2507 S.O2    1  UNL1        0.0633
     17 O          -8.9708  -17.1794   25.5589 O.2     1  UNL1       -0.1528
     18 O          -8.9175  -15.7127   22.9424 O.2     1  UNL1       -0.1528
     19 C         -10.3275  -16.9393   23.9460 C.ar    1  UNL1        0.1223
     20 C         -10.8480  -18.1755   24.6175 C.ar    1  UNL1        0.0222
     21 C         -12.2314  -18.6686   24.3127 C.ar    1  UNL1        0.0310
     22 C         -13.0945  -17.9256   23.3364 C.ar    1  UNL1        0.1402
     23 F         -14.4779  -18.4187   23.0316 F       1  UNL1       -0.2042
     24 C         -12.5740  -16.6894   22.6648 C.ar    1  UNL1        0.0310
     25 C         -11.1905  -16.1962   22.9696 C.ar    1  UNL1        0.0222
     26 C          -1.5762  -18.2679   21.4799 C.3     1  UNL1        0.1475
     27 C          -0.9584  -18.1103   20.1222 C.2     1  UNL1        0.0732
     28 O          -1.7050  -17.3925   19.0371 O.co2   1  UNL1       -0.5472
     29 O           0.4061  -18.6705   19.8494 O.co2   1  UNL1       -0.5472
@<TRIPOS>UNITY_ATOM_ATTR
28 1
charge -1
@<TRIPOS>BOND
     1    14    15    1
     2     1    15    1
     3     1     2    1
     4     2     3    1
     5     3     4    1
     6     4     5   ar
     7     5     6   ar
     8     6     7   ar
     9     7     8   ar
    10     8     9   ar
    11     9    10   ar
    12    10    11   ar
    13    11    12   ar
    14    12    26    1
    15    26    27    1
    16    27    28   ar
    17    27    29   ar
    18     5    13    1
    19    15    16    1
    20    16    17    2
    21    16    18    2
    22    16    19    1
    23    19    20   ar
    24    20    21   ar
    25    21    22   ar
    26    22    23    1
    27    22    24   ar
    28    24    25   ar
    29    13     1    1
    30    25    19   ar
    31    12     4   ar
    32    11     6   ar
@<TRIPOS>MOLECULE
*****
 29 32 0 0 0
SMALL
GASTEIGER

@<TRIPOS>ATOM
      1 C           0.6526    2.2719   20.0023 C.3     1  UNL1        0.0844
      2 C           0.8656    1.7144   18.6262 C.3     1  UNL1        0.0243
      3 C           1.7128    0.4913   18.4354 C.3     1  UNL1        0.0449
      4 C           2.3469   -0.1743   19.6207 C.ar    1  UNL1        0.0336
      5 C           2.1338    0.3832   20.9968 C.ar    1  UNL1       -0.0076
      6 C           2.8813   -0.4815   21.9682 C.ar    1  UNL1        0.0160
      7 C           3.0345   -0.4156   23.4588 C.ar    1  UNL1        0.0218
      8 C           3.8628   -1.4418   24.1737 C.ar    1  UNL1        0.0990
      9 N           4.5378   -2.5337   23.3978 N.ar    1  UNL1       -0.2408
     10 C           4.3846   -2.5996   21.9072 C.ar    1  UNL1        0.1160
     11 C           3.5564   -1.5734   21.1923 C.ar    1  UNL1        0.0791
     12 N           3.2261   -1.3836   19.7415 N.ar    1  UNL1       -0.3244
     13 C           1.2867    1.6063   21.1876 C.3     1  UNL1        0.0452
     14 C           0.0404    4.7098   19.3452 C.3     1  UNL1        0.1149
     15 N          -0.1946    3.4950   20.1932 N.3     1  UNL1       -0.1551
     16 S          -1.2766    3.5032   21.2320 S.O2    1  UNL1        0.0633
     17 O          -2.0065    2.4298   20.4803 O.2     1  UNL1       -0.1528
     18 O          -0.5467    4.5767   21.9837 O.2     1  UNL1       -0.1528
     19 C          -2.3586    3.5115   22.2708 C.ar    1  UNL1        0.1223
     20 C          -2.0016    3.6018   23.7249 C.ar    1  UNL1        0.0222
     21 C          -3.0837    3.6101   24.7637 C.ar    1  UNL1        0.0310
     22 C          -4.5227    3.5281   24.3484 C.ar    1  UNL1        0.1402
     23 F          -5.6048    3.5364   25.3872 F       1  UNL1       -0.2042
     24 C          -4.8797    3.4379   22.8943 C.ar    1  UNL1        0.0310
     25 C          -3.7976    3.4296   21.8555 C.ar    1  UNL1        0.0222
     26 C           3.6930   -2.2508   18.6102 C.3     1  UNL1        0.1475
     27 C           4.5508   -1.6707   17.5251 C.2     1  UNL1        0.0732
     28 O           6.0445   -1.6840   17.6620 O.co2   1  UNL1       -0.5472
     29 O           3.9150   -1.0772   16.3030 O.co2   1  UNL1       -0.5472
@<TRIPOS>UNITY_ATOM_ATTR
28 1
charge -1
@<TRIPOS>BOND
     1    14    15    1
     2     1    15    1
     3     1     2    1
     4     2     3    1
     5     3     4    1
     6     4     5   ar
     7     5     6   ar
     8     6     7   ar
     9     7     8   ar
    10     8     9   ar
    11     9    10   ar
    12    10    11   ar
    13    11    12   ar
    14    12    26    1
    15    26    27    1
    16    27    28   ar
    17    27    29   ar
    18     5    13    1
    19    15    16    1
    20    16    17    2
    21    16    18    2
    22    16    19    1
    23    19    20   ar
    24    20    21   ar
    25    21    22   ar
    26    22    23    1
    27    22    24   ar
    28    24    25   ar
    29    13     1    1
    30    25    19   ar
    31    12     4   ar
    32    11     6   ar
@<TRIPOS>MOLECULE
*****
 29 32 0 0 0
SMALL
GASTEIGER

@<TRIPOS>ATOM
      1 C           0.7669    1.6584   19.8791 C.3     1  UNL1        0.0844
      2 C           0.3319    0.3356   20.4366 C.3     1  UNL1        0.0243
      3 C           1.1999   -0.8749   20.2595 C.3     1  UNL1        0.0449
      4 C           2.5029   -0.7624   19.5250 C.ar    1  UNL1        0.0336
      5 C           2.9380    0.5604   18.9676 C.ar    1  UNL1       -0.0076
      6 C           4.2645    0.3663   18.2948 C.ar    1  UNL1        0.0160
      7 C           5.1717    1.3170   17.5715 C.ar    1  UNL1        0.0218
      8 C           6.4638    0.8247   16.9899 C.ar    1  UNL1        0.0990
      9 N           6.8486   -0.6181   17.1316 N.ar    1  UNL1       -0.2408
     10 C           5.9414   -1.5688   17.8548 C.ar    1  UNL1        0.1160
     11 C           4.6493   -1.0766   18.4365 C.ar    1  UNL1        0.0791
     12 N           3.5606   -1.7741   19.1968 N.ar    1  UNL1       -0.3244
     13 C           2.0700    1.7709   19.1446 C.3     1  UNL1        0.0452
     14 C          -0.2174    3.8764   18.9509 C.3     1  UNL1        0.1149
     15 N          -0.1011    2.8690   20.0561 N.3     1  UNL1       -0.1551
     16 S          -0.8527    3.0720   21.3383 S.O2    1  UNL1        0.0633
     17 O          -2.1306    2.6959   20.6487 O.2     1  UNL1       -0.1528
     18 O           0.4254    3.4480   22.0278 O.2     1  UNL1       -0.1528
     19 C          -1.6041    3.2750   22.6204 C.ar    1  UNL1        0.1223
     20 C          -0.9087    3.0840   23.9357 C.ar    1  UNL1        0.0222
     21 C          -1.6603    3.2870   25.2178 C.ar    1  UNL1        0.0310
     22 C          -3.1072    3.6810   25.1848 C.ar    1  UNL1        0.1402
     23 F          -3.8588    3.8840   26.4670 F       1  UNL1       -0.2042
     24 C          -3.8027    3.8719   23.8695 C.ar    1  UNL1        0.0310
     25 C          -3.0511    3.6689   22.5873 C.ar    1  UNL1        0.0222
     26 C           3.5342   -3.2282   19.5643 C.3     1  UNL1        0.1475
     27 C           4.5232   -3.7699   20.5534 C.2     1  UNL1        0.0732
     28 O           4.3471   -3.4949   22.0175 O.co2   1  UNL1       -0.5472
     29 O           5.6884   -4.5866   20.0786 O.co2   1  UNL1       -0.5472
@<TRIPOS>UNITY_ATOM_ATTR
28 1
charge -1
@<TRIPOS>BOND
     1    14    15    1
     2     1    15    1
     3     1     2    1
     4     2     3    1
     5     3     4    1
     6     4     5   ar
     7     5     6   ar
     8     6     7   ar
     9     7     8   ar
    10     8     9   ar
    11     9    10   ar
    12    10    11   ar
    13    11    12   ar
    14    12    26    1
    15    26    27    1
    16    27    28   ar
    17    27    29   ar
    18     5    13    1
    19    15    16    1
    20    16    17    2
    21    16    18    2
    22    16    19    1
    23    19    20   ar
    24    20    21   ar
    25    21    22   ar
    26    22    23    1
    27    22    24   ar
    28    24    25   ar
    29    13     1    1
    30    25    19   ar
    31    12     4   ar
    32    11     6   ar
@<TRIPOS>MOLECULE
*****
 29 32 0 0 0
SMALL
GASTEIGER

@<TRIPOS>ATOM
      1 C           0.7492    2.2913   20.1307 C.3     1  UNL1        0.0844
      2 C           0.9283    1.7618   18.7388 C.3     1  UNL1        0.0243
      3 C           1.7468    0.5265   18.5059 C.3     1  UNL1        0.0449
      4 C           2.3860   -0.1792   19.6649 C.ar    1  UNL1        0.0336
      5 C           2.2068    0.3503   21.0568 C.ar    1  UNL1       -0.0076
      6 C           2.9518   -0.5519   21.9955 C.ar    1  UNL1        0.0160
      7 C           3.1304   -0.5239   23.4845 C.ar    1  UNL1        0.0218
      8 C           3.9486   -1.5831   24.1617 C.ar    1  UNL1        0.0990
      9 N           4.5883   -2.6702   23.3499 N.ar    1  UNL1       -0.2408
     10 C           4.4097   -2.6981   21.8609 C.ar    1  UNL1        0.1160
     11 C           3.5915   -1.6390   21.1837 C.ar    1  UNL1        0.0791
     12 N           3.2417   -1.4087   19.7433 N.ar    1  UNL1       -0.3244
     13 C           1.3884    1.5855   21.2897 C.3     1  UNL1        0.0452
     14 C           0.5664    4.7451   20.9648 C.3     1  UNL1        0.1149
     15 N          -0.0693    3.5266   20.3637 N.3     1  UNL1       -0.1551
     16 S          -1.5233    3.5435   19.9955 S.O2    1  UNL1        0.0633
     17 O          -1.8120    2.5603   21.0909 O.2     1  UNL1       -0.1528
     18 O          -1.2345    4.5267   18.9000 O.2     1  UNL1       -0.1528
     19 C          -2.9772    3.5604   19.6273 C.ar    1  UNL1        0.1223
     20 C          -4.0195    3.3081   20.6761 C.ar    1  UNL1        0.0222
     21 C          -5.4735    3.3250   20.3077 C.ar    1  UNL1        0.0310
     22 C          -5.8853    3.5941   18.8907 C.ar    1  UNL1        0.1402
     23 F          -7.3392    3.6110   18.5224 F       1  UNL1       -0.2042
     24 C          -4.8429    3.8464   17.8419 C.ar    1  UNL1        0.0310
     25 C          -3.3889    3.8295   18.2102 C.ar    1  UNL1        0.0222
     26 C           3.6722   -2.2586   18.5847 C.3     1  UNL1        0.1475
     27 C           4.5605   -1.6834   17.5217 C.2     1  UNL1        0.0732
     28 O           6.0514   -1.7708   17.6619 O.co2   1  UNL1       -0.5472
     29 O           3.9579   -1.0208   16.3184 O.co2   1  UNL1       -0.5472
@<TRIPOS>UNITY_ATOM_ATTR
28 1
charge -1
@<TRIPOS>BOND
     1    14    15    1
     2     1    15    1
     3     1     2    1
     4     2     3    1
     5     3     4    1
     6     4     5   ar
     7     5     6   ar
     8     6     7   ar
     9     7     8   ar
    10     8     9   ar
    11     9    10   ar
    12    10    11   ar
    13    11    12   ar
    14    12    26    1
    15    26    27    1
    16    27    28   ar
    17    27    29   ar
    18     5    13    1
    19    15    16    1
    20    16    17    2
    21    16    18    2
    22    16    19    1
    23    19    20   ar
    24    20    21   ar
    25    21    22   ar
    26    22    23    1
    27    22    24   ar
    28    24    25   ar
    29    13     1    1
    30    25    19   ar
    31    12     4   ar
    32    11     6   ar
@<TRIPOS>MOLECULE
*****
 29 32 0 0 0
SMALL
GASTEIGER

@<TRIPOS>ATOM
      1 C          -7.2159  -16.4159   24.5909 C.3     1  UNL1        0.0844
      2 C          -7.8033  -17.2623   25.6811 C.3     1  UNL1        0.0243
      3 C          -9.1815  -17.8338   25.5267 C.3     1  UNL1        0.0449
      4 C          -9.9724  -17.5588   24.2821 C.ar    1  UNL1        0.0336
      5 C          -9.3849  -16.7124   23.1919 C.ar    1  UNL1       -0.0076
      6 C         -10.3944  -16.6137   22.0868 C.ar    1  UNL1        0.0160
      7 C         -10.3671  -15.9101   20.7624 C.ar    1  UNL1        0.0218
      8 C         -11.5511  -15.9919   19.8452 C.ar    1  UNL1        0.0990
      9 N         -12.7625  -16.7773   20.2524 N.ar    1  UNL1       -0.2408
     10 C         -12.7898  -17.4808   21.5768 C.ar    1  UNL1        0.1160
     11 C         -11.6058  -17.3990   22.4940 C.ar    1  UNL1        0.0791
     12 N         -11.3449  -17.9832   23.8508 N.ar    1  UNL1       -0.3244
     13 C          -8.0067  -16.1410   23.3463 C.3     1  UNL1        0.0452
     14 C          -5.5698  -14.8047   25.7928 C.3     1  UNL1        0.1149
     15 N          -5.8375  -15.8444   24.7453 N.3     1  UNL1       -0.1551
     16 S          -4.7271  -16.3127   23.8522 S.O2    1  UNL1        0.0633
     17 O          -4.5841  -17.5546   24.6812 O.2     1  UNL1       -0.1528
     18 O          -4.8702  -15.0707   23.0232 O.2     1  UNL1       -0.1528
     19 C          -3.6167  -16.7809   22.9591 C.ar    1  UNL1        0.1223
     20 C          -3.3349  -18.2474   22.8186 C.ar    1  UNL1        0.0222
     21 C          -2.2245  -18.7156   21.9254 C.ar    1  UNL1        0.0310
     22 C          -1.3958  -17.7172   21.1727 C.ar    1  UNL1        0.1402
     23 F          -0.2853  -18.1853   20.2795 F       1  UNL1       -0.2042
     24 C          -1.6777  -16.2506   21.3132 C.ar    1  UNL1        0.0310
     25 C          -2.7881  -15.7825   22.2064 C.ar    1  UNL1        0.0222
     26 C         -12.2906  -18.8410   24.6380 C.3     1  UNL1        0.1475
     27 C         -13.6716  -18.3450   24.9487 C.2     1  UNL1        0.0732
     28 O         -14.3713  -17.4256   23.9919 O.co2   1  UNL1       -0.5472
     29 O         -14.3532  -18.7682   26.2161 O.co2   1  UNL1       -0.5472
@<TRIPOS>UNITY_ATOM_ATTR
28 1
charge -1
@<TRIPOS>BOND
     1    14    15    1
     2     1    15    1
     3     1     2    1
     4     2     3    1
     5     3     4    1
     6     4     5   ar
     7     5     6   ar
     8     6     7   ar
     9     7     8   ar
    10     8     9   ar
    11     9    10   ar
    12    10    11   ar
    13    11    12   ar
    14    12    26    1
    15    26    27    1
    16    27    28   ar
    17    27    29   ar
    18     5    13    1
    19    15    16    1
    20    16    17    2
    21    16    18    2
    22    16    19    1
    23    19    20   ar
    24    20    21   ar
    25    21    22   ar
    26    22    23    1
    27    22    24   ar
    28    24    25   ar
    29    13     1    1
    30    25    19   ar
    31    12     4   ar
    32    11     6   ar
@<TRIPOS>MOLECULE
*****
 29 32 0 0 0
SMALL
GASTEIGER

@<TRIPOS>ATOM
      1 C           2.3710    0.1729   19.2388 C.3     1  UNL1        0.0844
      2 C           1.5909    0.9692   18.2351 C.3     1  UNL1        0.0243
      3 C           0.5310    1.9250   18.6963 C.3     1  UNL1        0.0449
      4 C           0.2510    2.0846   20.1613 C.ar    1  UNL1        0.0336
      5 C           1.0311    1.2883   21.1651 C.ar    1  UNL1       -0.0076
      6 C           0.5364    1.6547   22.5329 C.ar    1  UNL1        0.0160
      7 C           0.9343    1.1892   23.9022 C.ar    1  UNL1        0.0218
      8 C           0.2465    1.7465   25.1131 C.ar    1  UNL1        0.0990
      9 N          -0.8392    2.7692   24.9548 N.ar    1  UNL1       -0.2408
     10 C          -1.2372    3.2347   23.5855 C.ar    1  UNL1        0.1160
     11 C          -0.5494    2.6775   22.3746 C.ar    1  UNL1        0.0791
     12 N          -0.7257    2.9431   20.9089 N.ar    1  UNL1       -0.3244
     13 C           2.0910    0.3325   20.7038 C.3     1  UNL1        0.0452
     14 C           3.7414   -0.9101   17.3156 C.3     1  UNL1        0.1149
     15 N           3.4310   -0.7830   18.7776 N.3     1  UNL1       -0.1551
     16 S           4.1804   -1.6118   19.7783 S.O2    1  UNL1        0.0633
     17 O           5.2155   -0.5326   19.8969 O.2     1  UNL1       -0.1528
     18 O           3.1453   -2.6910   19.6598 O.2     1  UNL1       -0.1528
     19 C           4.9298   -2.4405   20.7790 C.ar    1  UNL1        0.1223
     20 C           4.3624   -2.6545   22.1510 C.ar    1  UNL1        0.0222
     21 C           5.1118   -3.4833   23.1517 C.ar    1  UNL1        0.0310
     22 C           6.4287   -4.0982   22.7805 C.ar    1  UNL1        0.1402
     23 F           7.1782   -4.9270   23.7812 F       1  UNL1       -0.2042
     24 C           6.9961   -3.8842   21.4085 C.ar    1  UNL1        0.0310
     25 C           6.2467   -3.0554   20.4078 C.ar    1  UNL1        0.0222
     26 C          -1.7067    3.8995   20.2980 C.3     1  UNL1        0.1475
     27 C          -3.1250    3.4715   20.0637 C.2     1  UNL1        0.0732
     28 O          -3.8898    2.7808   21.1538 O.co2   1  UNL1       -0.5472
     29 O          -3.7788    3.7340   18.7395 O.co2   1  UNL1       -0.5472
@<TRIPOS>UNITY_ATOM_ATTR
28 1
charge -1
@<TRIPOS>BOND
     1    14    15    1
     2     1    15    1
     3     1     2    1
     4     2     3    1
     5     3     4    1
     6     4     5   ar
     7     5     6   ar
     8     6     7   ar
     9     7     8   ar
    10     8     9   ar
    11     9    10   ar
    12    10    11   ar
    13    11    12   ar
    14    12    26    1
    15    26    27    1
    16    27    28   ar
    17    27    29   ar
    18     5    13    1
    19    15    16    1
    20    16    17    2
    21    16    18    2
    22    16    19    1
    23    19    20   ar
    24    20    21   ar
    25    21    22   ar
    26    22    23    1
    27    22    24   ar
    28    24    25   ar
    29    13     1    1
    30    25    19   ar
    31    12     4   ar
    32    11     6   ar
@<TRIPOS>MOLECULE
*****
 29 32 0 0 0
SMALL
GASTEIGER

@<TRIPOS>ATOM
      1 C         -16.2909   -4.0660   19.2351 C.3     1  UNL1        0.0844
      2 C         -16.0202   -2.5910   19.2023 C.3     1  UNL1        0.0243
      3 C         -14.6109   -2.0895   19.0911 C.3     1  UNL1        0.0449
      4 C         -13.4724   -3.0629   19.0127 C.ar    1  UNL1        0.0336
      5 C         -13.7431   -4.5379   19.0455 C.ar    1  UNL1       -0.0076
      6 C         -12.4278   -5.2528   18.9515 C.ar    1  UNL1        0.0160
      7 C         -12.0768   -6.7111   18.9370 C.ar    1  UNL1        0.0218
      8 C         -10.6422   -7.1362   18.8315 C.ar    1  UNL1        0.0990
      9 N          -9.5586   -6.1030   18.7406 N.ar    1  UNL1       -0.2408
     10 C          -9.9095   -4.6448   18.7552 C.ar    1  UNL1        0.1160
     11 C         -11.3441   -4.2197   18.8606 C.ar    1  UNL1        0.0791
     12 N         -11.9897   -2.8662   18.8984 N.ar    1  UNL1       -0.3244
     13 C         -15.1523   -5.0395   19.1567 C.3     1  UNL1        0.0452
     14 C         -18.7156   -3.7847   20.1247 C.3     1  UNL1        0.1149
     15 N         -17.7002   -4.5676   19.3463 N.3     1  UNL1       -0.1551
     16 S         -18.0940   -5.8521   18.6792 S.O2    1  UNL1        0.0633
     17 O         -18.1897   -5.1391   17.3629 O.2     1  UNL1       -0.1528
     18 O         -17.9983   -6.5651   19.9955 O.2     1  UNL1       -0.1528
     19 C         -18.4877   -7.1365   18.0121 C.ar    1  UNL1        0.1223
     20 C         -17.9534   -8.4416   18.5232 C.ar    1  UNL1        0.0222
     21 C         -18.3472   -9.7261   17.8560 C.ar    1  UNL1        0.0310
     22 C         -19.2753   -9.7055   16.6778 C.ar    1  UNL1        0.1402
     23 F         -19.6691  -10.9900   16.0107 F       1  UNL1       -0.2042
     24 C         -19.8097   -8.4004   16.1667 C.ar    1  UNL1        0.0310
     25 C         -19.4159   -7.1159   16.8339 C.ar    1  UNL1        0.0222
     26 C         -11.2776   -1.5476   18.8334 C.3     1  UNL1        0.1475
     27 C         -10.8832   -0.9729   17.5053 C.2     1  UNL1        0.0732
     28 O         -10.1052   -1.8049   16.5292 O.co2   1  UNL1       -0.5472
     29 O         -11.2668    0.4338   17.1530 O.co2   1  UNL1       -0.5472
@<TRIPOS>UNITY_ATOM_ATTR
28 1
charge -1
@<TRIPOS>BOND
     1    14    15    1
     2     1    15    1
     3     1     2    1
     4     2     3    1
     5     3     4    1
     6     4     5   ar
     7     5     6   ar
     8     6     7   ar
     9     7     8   ar
    10     8     9   ar
    11     9    10   ar
    12    10    11   ar
    13    11    12   ar
    14    12    26    1
    15    26    27    1
    16    27    28   ar
    17    27    29   ar
    18     5    13    1
    19    15    16    1
    20    16    17    2
    21    16    18    2
    22    16    19    1
    23    19    20   ar
    24    20    21   ar
    25    21    22   ar
    26    22    23    1
    27    22    24   ar
    28    24    25   ar
    29    13     1    1
    30    25    19   ar
    31    12     4   ar
    32    11     6   ar
@<TRIPOS>MOLECULE
*****
 29 32 0 0 0
SMALL
GASTEIGER

@<TRIPOS>ATOM
      1 C          -8.7243  -19.1194   20.5149 C.3     1  UNL1        0.0844
      2 C          -7.9277  -19.9879   19.5869 C.3     1  UNL1        0.0243
      3 C          -6.4383  -20.0797   19.7392 C.3     1  UNL1        0.0449
      4 C          -5.7455  -19.3031   20.8195 C.ar    1  UNL1        0.0336
      5 C          -6.5421  -18.4347   21.7475 C.ar    1  UNL1       -0.0076
      6 C          -5.5901  -17.7903   22.7110 C.ar    1  UNL1        0.0160
      7 C          -5.8054  -16.8361   23.8482 C.ar    1  UNL1        0.0218
      8 C          -4.6357  -16.3522   24.6529 C.ar    1  UNL1        0.0990
      9 N          -3.2507  -16.8224   24.3204 N.ar    1  UNL1       -0.2408
     10 C          -3.0353  -17.7766   23.1832 C.ar    1  UNL1        0.1160
     11 C          -4.2050  -18.2605   22.3785 C.ar    1  UNL1        0.0791
     12 N          -4.3011  -19.1955   21.2095 N.ar    1  UNL1       -0.3244
     13 C          -8.0315  -18.3428   21.5952 C.3     1  UNL1        0.0452
     14 C         -10.8340  -19.0992   18.9987 C.3     1  UNL1        0.1149
     15 N         -10.2138  -19.0276   20.3626 N.3     1  UNL1       -0.1551
     16 S         -11.0829  -18.8641   21.5742 S.O2    1  UNL1        0.0633
     17 O         -10.8127  -20.2882   21.9602 O.2     1  UNL1       -0.1528
     18 O         -11.3530  -17.4399   21.1882 O.2     1  UNL1       -0.1528
     19 C         -11.9520  -18.7006   22.7857 C.ar    1  UNL1        0.1223
     20 C         -13.3230  -18.1073   22.6507 C.ar    1  UNL1        0.0222
     21 C         -14.1921  -17.9438   23.8623 C.ar    1  UNL1        0.0310
     22 C         -13.6901  -18.3735   25.2090 C.ar    1  UNL1        0.1402
     23 F         -14.5592  -18.2100   26.4206 F       1  UNL1       -0.2042
     24 C         -12.3190  -18.9668   25.3440 C.ar    1  UNL1        0.0310
     25 C         -11.4500  -19.1303   24.1324 C.ar    1  UNL1        0.0222
     26 C          -3.1541  -19.8992   20.5469 C.3     1  UNL1        0.1475
     27 C          -2.0124  -19.1064   19.9832 C.2     1  UNL1        0.0732
     28 O          -0.7994  -18.8367   20.8234 O.co2   1  UNL1       -0.5472
     29 O          -2.0836  -18.5831   18.5792 O.co2   1  UNL1       -0.5472
@<TRIPOS>UNITY_ATOM_ATTR
28 1
charge -1
@<TRIPOS>BOND
     1    14    15    1
     2     1    15    1
     3     1     2    1
     4     2     3    1
     5     3     4    1
     6     4     5   ar
     7     5     6   ar
     8     6     7   ar
     9     7     8   ar
    10     8     9   ar
    11     9    10   ar
    12    10    11   ar
    13    11    12   ar
    14    12    26    1
    15    26    27    1
    16    27    28   ar
    17    27    29   ar
    18     5    13    1
    19    15    16    1
    20    16    17    2
    21    16    18    2
    22    16    19    1
    23    19    20   ar
    24    20    21   ar
    25    21    22   ar
    26    22    23    1
    27    22    24   ar
    28    24    25   ar
    29    13     1    1
    30    25    19   ar
    31    12     4   ar
    32    11     6   ar
