@<TRIPOS>MOLECULE
*****
 38 41 0 0 0
SMALL
GASTEIGER

@<TRIPOS>ATOM
      1 N          -4.2858  -16.6115   23.9852 N.am    1  UNL1       -0.2668
      2 C          -5.7801  -16.6194   24.1162 C.2     1  UNL1        0.3080
      3 O          -6.6254  -17.2103   23.0270 O.2     1  UNL1       -0.2522
      4 N          -6.4291  -16.0363   25.3364 N.am    1  UNL1       -0.2572
      5 C          -5.7178  -15.4139   26.5011 C.3     1  UNL1        0.0955
      6 C          -6.7524  -14.9662   27.4906 C.3     1  UNL1        0.0238
      7 C          -8.1032  -15.3119   26.9374 C.3     1  UNL1        0.0310
      8 C          -7.9033  -15.9733   25.6060 C.3     1  UNL1        0.1534
      9 H          -3.7310  -16.2236   24.7000 H       1  UNL1        0.1565
     10 N           0.0558  -16.3277   20.1780 N.am    1  UNL1       -0.3108
     11 C          -0.9447  -17.4275   19.9787 C.2     1  UNL1        0.3169
     12 O          -0.7888  -18.3849   18.8346 O.2     1  UNL1       -0.2494
     13 N          -2.1011  -17.5696   20.9234 N.ar    1  UNL1       -0.2601
     14 C          -2.3863  -16.6923   22.1062 C.ar    1  UNL1        0.0988
     15 C          -3.6368  -17.1946   22.7650 C.ar    1  UNL1        0.0708
     16 C          -4.1245  -18.3823   21.9893 C.ar    1  UNL1        0.0312
     17 C          -5.3101  -19.2826   22.1724 C.ar    1  UNL1        0.0027
     18 C          -5.5466  -20.4148   21.2173 C.ar    1  UNL1        0.0001
     19 C          -4.5975  -20.6466   20.0792 C.ar    1  UNL1        0.0015
     20 C          -3.4118  -19.7462   19.8961 C.ar    1  UNL1        0.0177
     21 C          -3.1753  -18.6141   20.8512 C.ar    1  UNL1        0.0693
     22 H           0.8148  -16.2344   19.5580 H       1  UNL1        0.1467
     23 H          -0.0465  -15.6993   20.9289 H       1  UNL1        0.1467
     24 C          -8.9874  -16.4823   24.7028 C.2     1  UNL1        0.2442
     25 O          -9.7571  -17.7146   25.0756 O.2     1  UNL1       -0.2730
     26 N          -9.3016  -15.7590   23.4269 N.am    1  UNL1       -0.2825
     27 H          -8.7964  -14.9502   23.1822 H       1  UNL1        0.1549
     28 C         -10.3856  -16.2680   22.5237 C.ar    1  UNL1        0.0534
     29 C         -11.8119  -15.8727   22.7670 C.ar    1  UNL1        0.0149
     30 C         -12.8959  -16.3818   21.8638 C.ar    1  UNL1        0.0044
     31 C         -12.5536  -17.2861   20.7172 C.ar    1  UNL1        0.0373
     32 C         -11.1273  -17.6815   20.4737 C.ar    1  UNL1        0.1480
     33 C         -10.0433  -17.1725   21.3769 C.ar    1  UNL1        0.0518
     34 O         -10.7849  -18.5859   19.3270 O.3     1  UNL1       -0.4044
     35 C          -9.7390  -19.6477   19.4957 C.3     1  UNL1        0.5753
     36 F          -8.6930  -20.7096   19.6645 F       1  UNL1       -0.1328
     37 F         -10.6251  -20.3658   20.4700 F       1  UNL1       -0.1328
     38 F          -8.8529  -18.9297   18.5215 F       1  UNL1       -0.1328
@<TRIPOS>BOND
     1    10    11   am
     2    11    12    2
     3    11    13   am
     4    13    14   ar
     5    14    15   ar
     6    15     1    1
     7     1     2   am
     8     2     3    2
     9     2     4   am
    10     4     5    1
    11     5     6    1
    12     6     7    1
    13     7     8    1
    14     8    24    1
    15    24    25    2
    16    24    26   am
    17    26    28    1
    18    28    29   ar
    19    29    30   ar
    20    30    31   ar
    21    31    32   ar
    22    32    34    1
    23    34    35    1
    24    35    36    1
    25    35    37    1
    26    35    38    1
    27    32    33   ar
    28    15    16   ar
    29    16    17   ar
    30    17    18   ar
    31    18    19   ar
    32    19    20   ar
    33    20    21   ar
    34    21    13   ar
    35     8     4    1
    36    33    28   ar
    37    21    16   ar
    38    10    22    1
    39    10    23    1
    40     1     9    1
    41    26    27    1
@<TRIPOS>MOLECULE
*****
 38 41 0 0 0
SMALL
GASTEIGER

@<TRIPOS>ATOM
      1 N          -4.4356  -16.9389   23.7229 N.am    1  UNL1       -0.2668
      2 C          -5.8997  -16.8373   24.0328 C.2     1  UNL1        0.3080
      3 O          -6.9027  -17.5152   23.1471 O.2     1  UNL1       -0.2522
      4 N          -6.3609  -16.0577   25.2285 N.am    1  UNL1       -0.2572
      5 C          -5.4796  -15.3303   26.2002 C.3     1  UNL1        0.0955
      6 C          -6.3584  -14.6918   27.2346 C.3     1  UNL1        0.0238
      7 C          -7.7827  -15.0245   26.9022 C.3     1  UNL1        0.0310
      8 C          -7.7843  -15.8687   25.6624 C.3     1  UNL1        0.1534
      9 H          -3.7773  -16.4940   24.3042 H       1  UNL1        0.1565
     10 N          -5.3531  -21.4205   20.1876 N.am    1  UNL1       -0.3108
     11 C          -4.1523  -20.5691   19.8989 C.2     1  UNL1        0.3169
     12 O          -3.2597  -20.8997   18.7397 O.2     1  UNL1       -0.2494
     13 N          -3.8442  -19.3871   20.7695 N.ar    1  UNL1       -0.2601
     14 C          -4.6409  -18.9356   21.9575 C.ar    1  UNL1        0.0988
     15 C          -3.9744  -17.7185   22.5272 C.ar    1  UNL1        0.0708
     16 C          -2.7658  -17.4178   21.6912 C.ar    1  UNL1        0.0312
     17 C          -1.7281  -16.3382   21.7789 C.ar    1  UNL1        0.0027
     18 C          -0.6100  -16.2899   20.7802 C.ar    1  UNL1        0.0001
     19 C          -0.5295  -17.3212   19.6939 C.ar    1  UNL1        0.0015
     20 C          -1.5672  -18.4007   19.6063 C.ar    1  UNL1        0.0177
     21 C          -2.6853  -18.4491   20.6049 C.ar    1  UNL1        0.0693
     22 H          -5.5553  -22.1963   19.6162 H       1  UNL1        0.1467
     23 H          -5.9390  -21.2035   20.9484 H       1  UNL1        0.1467
     24 C          -8.9964  -16.4261   24.9767 C.2     1  UNL1        0.2442
     25 O          -9.7850  -17.5257   25.6239 O.2     1  UNL1       -0.2730
     26 N          -9.4198  -15.8838   23.6438 N.am    1  UNL1       -0.2825
     27 H          -8.9022  -15.1621   23.2190 H       1  UNL1        0.1549
     28 C         -10.6319  -16.4412   22.9582 C.ar    1  UNL1        0.0534
     29 C         -11.9550  -15.7474   23.0921 C.ar    1  UNL1        0.0149
     30 C         -13.1671  -16.3047   22.4065 C.ar    1  UNL1        0.0044
     31 C         -13.0561  -17.5560   21.5868 C.ar    1  UNL1        0.0373
     32 C         -11.7330  -18.2500   21.4528 C.ar    1  UNL1        0.1480
     33 C         -10.5210  -17.6926   22.1384 C.ar    1  UNL1        0.0518
     34 O         -11.6221  -19.5013   20.6331 O.3     1  UNL1       -0.4044
     35 C         -10.3360  -19.8280   19.9335 C.3     1  UNL1        0.5753
     36 F          -9.0499  -20.1547   19.2339 F       1  UNL1       -0.1328
     37 F         -10.9003  -19.2981   18.6487 F       1  UNL1       -0.1328
     38 F          -9.7717  -20.3579   21.2183 F       1  UNL1       -0.1328
@<TRIPOS>BOND
     1    10    11   am
     2    11    12    2
     3    11    13   am
     4    13    14   ar
     5    14    15   ar
     6    15     1    1
     7     1     2   am
     8     2     3    2
     9     2     4   am
    10     4     5    1
    11     5     6    1
    12     6     7    1
    13     7     8    1
    14     8    24    1
    15    24    25    2
    16    24    26   am
    17    26    28    1
    18    28    29   ar
    19    29    30   ar
    20    30    31   ar
    21    31    32   ar
    22    32    34    1
    23    34    35    1
    24    35    36    1
    25    35    37    1
    26    35    38    1
    27    32    33   ar
    28    15    16   ar
    29    16    17   ar
    30    17    18   ar
    31    18    19   ar
    32    19    20   ar
    33    20    21   ar
    34    21    13   ar
    35     8     4    1
    36    33    28   ar
    37    21    16   ar
    38    10    22    1
    39    10    23    1
    40     1     9    1
    41    26    27    1
@<TRIPOS>MOLECULE
*****
 38 41 0 0 0
SMALL
GASTEIGER

@<TRIPOS>ATOM
      1 N           5.7675    0.7750   36.2626 N.am    1  UNL1       -0.2668
      2 C           5.7989    0.1578   34.8957 C.2     1  UNL1        0.3080
      3 O           4.5381    0.0568   34.0894 O.2     1  UNL1       -0.2522
      4 N           7.0910   -0.3582   34.3353 N.am    1  UNL1       -0.2572
      5 C           8.4247   -0.3261   35.0209 C.3     1  UNL1        0.0955
      6 C           9.4342   -0.9451   34.1002 C.3     1  UNL1        0.0238
      7 C           8.7244   -1.3598   32.8455 C.3     1  UNL1        0.0310
      8 C           7.2762   -0.9971   32.9908 C.3     1  UNL1        0.1534
      9 H           6.5950    0.8414   36.7919 H       1  UNL1        0.1565
     10 N           1.2204   -0.1994   39.6976 N.am    1  UNL1       -0.3108
     11 C           1.2556    1.1194   38.9837 C.2     1  UNL1        0.3169
     12 O           0.1448    2.1081   39.1798 O.2     1  UNL1       -0.2494
     13 N           2.4015    1.4494   38.0738 N.ar    1  UNL1       -0.2601
     14 C           3.5775    0.5655   37.7808 C.ar    1  UNL1        0.0988
     15 C           4.4754    1.2911   36.8231 C.ar    1  UNL1        0.0708
     16 C           3.8544    2.6234   36.5241 C.ar    1  UNL1        0.0312
     17 C           4.2904    3.7601   35.6479 C.ar    1  UNL1        0.0027
     18 C           3.4447    4.9946   35.5447 C.ar    1  UNL1        0.0001
     19 C           2.1630    5.0924   36.3177 C.ar    1  UNL1        0.0015
     20 C           1.7269    3.9557   37.1939 C.ar    1  UNL1        0.0177
     21 C           2.5726    2.7212   37.2971 C.ar    1  UNL1        0.0693
     22 H           0.4683   -0.4160   40.2948 H       1  UNL1        0.1467
     23 H           1.9495   -0.8484   39.5689 H       1  UNL1        0.1467
     24 C           6.2018   -1.2319   31.9708 C.2     1  UNL1        0.2442
     25 O           5.7105   -2.6242   31.7059 O.2     1  UNL1       -0.2730
     26 N           5.6186   -0.0745   31.2157 N.am    1  UNL1       -0.2825
     27 H           5.9410    0.8393   31.3895 H       1  UNL1        0.1549
     28 C           4.5442   -0.3093   30.1956 C.ar    1  UNL1        0.0534
     29 C           4.9125   -0.6897   28.7923 C.ar    1  UNL1        0.0149
     30 C           3.8381   -0.9245   27.7722 C.ar    1  UNL1        0.0044
     31 C           2.3953   -0.7790   28.1556 C.ar    1  UNL1        0.0373
     32 C           2.0269   -0.3987   29.5591 C.ar    1  UNL1        0.1480
     33 C           3.1013   -0.1638   30.5790 C.ar    1  UNL1        0.0518
     34 O           0.5840   -0.2531   29.9424 O.3     1  UNL1       -0.4044
     35 C          -0.3931    0.3429   28.9730 C.3     1  UNL1        0.5753
     36 F          -1.3703    0.9391   28.0035 F       1  UNL1       -0.1328
     37 F           0.3127    1.6627   29.0730 F       1  UNL1       -0.1328
     38 F          -1.0990   -0.9768   28.8730 F       1  UNL1       -0.1328
@<TRIPOS>BOND
     1    10    11   am
     2    11    12    2
     3    11    13   am
     4    13    14   ar
     5    14    15   ar
     6    15     1    1
     7     1     2   am
     8     2     3    2
     9     2     4   am
    10     4     5    1
    11     5     6    1
    12     6     7    1
    13     7     8    1
    14     8    24    1
    15    24    25    2
    16    24    26   am
    17    26    28    1
    18    28    29   ar
    19    29    30   ar
    20    30    31   ar
    21    31    32   ar
    22    32    34    1
    23    34    35    1
    24    35    36    1
    25    35    37    1
    26    35    38    1
    27    32    33   ar
    28    15    16   ar
    29    16    17   ar
    30    17    18   ar
    31    18    19   ar
    32    19    20   ar
    33    20    21   ar
    34    21    13   ar
    35     8     4    1
    36    33    28   ar
    37    21    16   ar
    38    10    22    1
    39    10    23    1
    40     1     9    1
    41    26    27    1
