@<TRIPOS>MOLECULE
*****
 27 29 0 0 0
SMALL
GASTEIGER

@<TRIPOS>ATOM
      1 C          -5.4809  -15.5660   24.5331 C.ar    1  UNL1        0.0144
      2 C          -5.0674  -15.6818   25.9703 C.ar    1  UNL1       -0.0006
      3 C          -6.1094  -15.7750   27.0453 C.ar    1  UNL1        0.0143
      4 C          -7.5649  -15.7524   26.6830 C.ar    1  UNL1        0.0943
      5 CL         -8.6069  -15.8455   27.7580 Cl      1  UNL1       -0.0790
      6 C          -7.9783  -15.6366   25.2458 C.ar    1  UNL1        0.1826
      7 C          -6.9363  -15.5434   24.1708 C.ar    1  UNL1        0.1716
      8 F          -7.3498  -15.4276   22.7335 F       1  UNL1       -0.2012
      9 C          -4.4389  -15.4728   23.4581 C.3     1  UNL1        0.0757
     10 C          -0.8101  -17.7756   20.5376 C.3     1  UNL1        0.0145
     11 C          -1.9920  -17.8719   21.4563 C.3     1  UNL1        0.1032
     12 C          -2.6245  -16.6242   21.9978 C.2     1  UNL1       -0.0006
     13 C          -3.8064  -16.7205   22.9165 C.2     1  UNL1        0.0789
     14 N          -4.3557  -18.0644   23.2937 N.2     1  UNL1       -0.1605
     15 N          -3.7231  -19.3120   22.7521 N.am    1  UNL1       -0.0793
     16 C          -2.5413  -19.2157   21.8334 C.2     1  UNL1        0.2663
     17 O          -1.9087  -20.4634   21.2919 O.2     1  UNL1       -0.2711
     18 O          -9.4338  -15.6140   24.8835 O.3     1  UNL1       -0.4503
     19 C          -9.9628  -16.5578   23.8446 C.ar    1  UNL1        0.1484
     20 C          -9.8669  -18.0392   24.0588 C.ar    1  UNL1        0.0671
     21 C         -10.3959  -18.9831   23.0199 C.ar    1  UNL1        0.1439
     22 F         -10.3000  -20.4646   23.2342 F       1  UNL1       -0.2040
     23 C         -11.0208  -18.4454   21.7668 C.ar    1  UNL1        0.0401
     24 C         -11.1167  -16.9639   21.5525 C.ar    1  UNL1        0.0737
     25 C         -10.5877  -16.0201   22.5914 C.ar    1  UNL1        0.0479
     26 C         -11.7416  -16.4262   20.2994 C.1     1  UNL1        0.1006
     27 N         -12.3665  -15.8885   19.0462 N.1     1  UNL1       -0.1908
@<TRIPOS>BOND
     1    10    11    1
     2    11    12    1
     3    12    13    2
     4    13     9    1
     5     9     1    1
     6     1     2   ar
     7     2     3   ar
     8     3     4   ar
     9     4     5    1
    10     4     6   ar
    11     6    18    1
    12    18    19    1
    13    19    20   ar
    14    20    21   ar
    15    21    22    1
    16    21    23   ar
    17    23    24   ar
    18    24    26    1
    19    26    27    3
    20    24    25   ar
    21     6     7   ar
    22     7     8    1
    23    13    14    1
    24    14    15    2
    25    15    16    1
    26    16    17    2
    27    16    11    1
    28     7     1   ar
    29    25    19   ar
@<TRIPOS>MOLECULE
*****
 27 29 0 0 0
SMALL
GASTEIGER

@<TRIPOS>ATOM
      1 C          -5.4261  -15.3434   24.3495 C.ar    1  UNL1        0.0144
      2 C          -5.0656  -15.4019   25.8044 C.ar    1  UNL1       -0.0006
      3 C          -6.1464  -15.4352   26.8440 C.ar    1  UNL1        0.0143
      4 C          -7.5876  -15.4101   26.4287 C.ar    1  UNL1        0.0943
      5 CL         -8.6684  -15.4435   27.4684 Cl      1  UNL1       -0.0790
      6 C          -7.9480  -15.3517   24.9739 C.ar    1  UNL1        0.1826
      7 C          -6.8672  -15.3183   23.9342 C.ar    1  UNL1        0.1716
      8 F          -7.2277  -15.2598   22.4793 F       1  UNL1       -0.2012
      9 C          -4.3453  -15.3100   23.3098 C.3     1  UNL1        0.0757
     10 C          -0.7518  -17.8049   20.5059 C.3     1  UNL1        0.0145
     11 C          -1.9526  -17.8385   21.4041 C.3     1  UNL1        0.1032
     12 C          -2.5485  -16.5575   21.9078 C.2     1  UNL1       -0.0006
     13 C          -3.7494  -16.5912   22.8061 C.2     1  UNL1        0.0789
     14 N          -4.3542  -17.9058   23.2007 N.2     1  UNL1       -0.1605
     15 N          -3.7583  -19.1868   22.6970 N.am    1  UNL1       -0.0793
     16 C          -2.5575  -19.1532   21.7987 C.2     1  UNL1        0.2663
     17 O          -1.9615  -20.4343   21.2950 O.2     1  UNL1       -0.2711
     18 O          -9.3892  -15.3266   24.5586 O.3     1  UNL1       -0.4503
     19 C         -10.0386  -16.5702   24.0280 C.ar    1  UNL1        0.1484
     20 C         -11.1071  -16.4697   22.9801 C.ar    1  UNL1        0.0671
     21 C         -11.7566  -17.7134   22.4494 C.ar    1  UNL1        0.1439
     22 F         -12.8251  -17.6129   21.4016 F       1  UNL1       -0.2040
     23 C         -11.3374  -19.0576   22.9667 C.ar    1  UNL1        0.0401
     24 C         -10.2688  -19.1580   24.0146 C.ar    1  UNL1        0.0737
     25 C          -9.6194  -17.9144   24.5452 C.ar    1  UNL1        0.0479
     26 C          -9.8496  -20.5022   24.5318 C.1     1  UNL1        0.1006
     27 N          -9.4304  -21.8463   25.0491 N.1     1  UNL1       -0.1908
@<TRIPOS>BOND
     1    10    11    1
     2    11    12    1
     3    12    13    2
     4    13     9    1
     5     9     1    1
     6     1     2   ar
     7     2     3   ar
     8     3     4   ar
     9     4     5    1
    10     4     6   ar
    11     6    18    1
    12    18    19    1
    13    19    20   ar
    14    20    21   ar
    15    21    22    1
    16    21    23   ar
    17    23    24   ar
    18    24    26    1
    19    26    27    3
    20    24    25   ar
    21     6     7   ar
    22     7     8    1
    23    13    14    1
    24    14    15    2
    25    15    16    1
    26    16    17    2
    27    16    11    1
    28     7     1   ar
    29    25    19   ar
@<TRIPOS>MOLECULE
*****
 27 29 0 0 0
SMALL
GASTEIGER

@<TRIPOS>ATOM
      1 C          -6.3504  -18.4966   22.3224 C.ar    1  UNL1        0.0144
      2 C          -5.6881  -17.1955   22.6671 C.ar    1  UNL1       -0.0006
      3 C          -6.3603  -16.2372   23.6050 C.ar    1  UNL1        0.0143
      4 C          -7.6947  -16.5799   24.1984 C.ar    1  UNL1        0.0943
      5 CL         -8.3669  -15.6216   25.1363 Cl      1  UNL1       -0.0790
      6 C          -8.3569  -17.8809   23.8537 C.ar    1  UNL1        0.1826
      7 C          -7.6847  -18.8392   22.9157 C.ar    1  UNL1        0.1716
      8 F          -8.3469  -20.1403   22.5710 F       1  UNL1       -0.2012
      9 C          -5.6782  -19.4549   21.3844 C.3     1  UNL1        0.0757
     10 C          -2.1034  -17.6501   18.0733 C.3     1  UNL1        0.0145
     11 C          -2.4528  -18.3500   19.3532 C.3     1  UNL1        0.1032
     12 C          -3.8907  -18.5525   19.7289 C.2     1  UNL1       -0.0006
     13 C          -4.2401  -19.2524   21.0087 C.2     1  UNL1        0.0789
     14 N          -3.1516  -19.7499   21.9128 N.2     1  UNL1       -0.1605
     15 N          -1.7136  -19.5475   21.5371 N.am    1  UNL1       -0.0793
     16 C          -1.3642  -18.8475   20.2573 C.2     1  UNL1        0.2663
     17 O           0.0739  -18.6451   19.8816 O.2     1  UNL1       -0.2711
     18 O          -9.6913  -18.2237   24.4470 O.3     1  UNL1       -0.4503
     19 C         -10.9489  -17.9304   23.6840 C.ar    1  UNL1        0.1484
     20 C         -12.2772  -18.3564   24.2354 C.ar    1  UNL1        0.0671
     21 C         -13.5350  -18.0631   23.4724 C.ar    1  UNL1        0.1439
     22 F         -14.8633  -18.4891   24.0238 F       1  UNL1       -0.2040
     23 C         -13.4644  -17.3438   22.1580 C.ar    1  UNL1        0.0401
     24 C         -12.1360  -16.9177   21.6066 C.ar    1  UNL1        0.0737
     25 C         -10.8783  -17.2110   22.3696 C.ar    1  UNL1        0.0479
     26 C         -12.0653  -16.1984   20.2923 C.1     1  UNL1        0.1006
     27 N         -11.9947  -15.4791   18.9779 N.1     1  UNL1       -0.1908
@<TRIPOS>BOND
     1    10    11    1
     2    11    12    1
     3    12    13    2
     4    13     9    1
     5     9     1    1
     6     1     2   ar
     7     2     3   ar
     8     3     4   ar
     9     4     5    1
    10     4     6   ar
    11     6    18    1
    12    18    19    1
    13    19    20   ar
    14    20    21   ar
    15    21    22    1
    16    21    23   ar
    17    23    24   ar
    18    24    26    1
    19    26    27    3
    20    24    25   ar
    21     6     7   ar
    22     7     8    1
    23    13    14    1
    24    14    15    2
    25    15    16    1
    26    16    17    2
    27    16    11    1
    28     7     1   ar
    29    25    19   ar
@<TRIPOS>MOLECULE
*****
 27 29 0 0 0
SMALL
GASTEIGER

@<TRIPOS>ATOM
      1 C          -7.0643  -20.2053   20.3036 C.ar    1  UNL1        0.0144
      2 C          -7.9099  -19.9143   19.0993 C.ar    1  UNL1       -0.0006
      3 C          -9.1949  -19.1553   19.2508 C.ar    1  UNL1        0.0143
      4 C          -9.6342  -18.6874   20.6066 C.ar    1  UNL1        0.0943
      5 CL        -10.9191  -17.9285   20.7582 Cl      1  UNL1       -0.0790
      6 C          -8.7885  -18.9785   21.8109 C.ar    1  UNL1        0.1826
      7 C          -7.5036  -19.7375   21.6593 C.ar    1  UNL1        0.1716
      8 F          -6.6580  -20.0285   22.8636 F       1  UNL1       -0.2012
      9 C          -5.7794  -20.9643   20.1521 C.3     1  UNL1        0.0757
     10 C          -2.6167  -17.1454   18.5984 C.3     1  UNL1        0.0145
     11 C          -2.8858  -18.3347   19.4720 C.3     1  UNL1        0.1032
     12 C          -4.1980  -19.0549   19.3753 C.2     1  UNL1       -0.0006
     13 C          -4.4671  -20.2442   20.2489 C.2     1  UNL1        0.0789
     14 N          -3.4239  -20.7133   21.2192 N.2     1  UNL1       -0.1605
     15 N          -2.1117  -19.9932   21.3160 N.am    1  UNL1       -0.0793
     16 C          -1.8426  -18.8039   20.4424 C.2     1  UNL1        0.2663
     17 O          -0.5303  -18.0837   20.5392 O.2     1  UNL1       -0.2711
     18 O          -9.2278  -18.5106   23.1667 O.3     1  UNL1       -0.4503
     19 C          -8.5097  -17.3779   23.8383 C.ar    1  UNL1        0.1484
     20 C          -9.0443  -16.8038   25.1167 C.ar    1  UNL1        0.0671
     21 C          -8.3261  -15.6710   25.7884 C.ar    1  UNL1        0.1439
     22 F          -8.8608  -15.0968   27.0668 F       1  UNL1       -0.2040
     23 C          -7.0733  -15.1124   25.1815 C.ar    1  UNL1        0.0401
     24 C          -6.5386  -15.6866   23.9030 C.ar    1  UNL1        0.0737
     25 C          -7.2568  -16.8193   23.2314 C.ar    1  UNL1        0.0479
     26 C          -5.2857  -15.1280   23.2961 C.1     1  UNL1        0.1006
     27 N          -4.0328  -14.5694   22.6893 N.1     1  UNL1       -0.1908
@<TRIPOS>BOND
     1    10    11    1
     2    11    12    1
     3    12    13    2
     4    13     9    1
     5     9     1    1
     6     1     2   ar
     7     2     3   ar
     8     3     4   ar
     9     4     5    1
    10     4     6   ar
    11     6    18    1
    12    18    19    1
    13    19    20   ar
    14    20    21   ar
    15    21    22    1
    16    21    23   ar
    17    23    24   ar
    18    24    26    1
    19    26    27    3
    20    24    25   ar
    21     6     7   ar
    22     7     8    1
    23    13    14    1
    24    14    15    2
    25    15    16    1
    26    16    17    2
    27    16    11    1
    28     7     1   ar
    29    25    19   ar
@<TRIPOS>MOLECULE
*****
 27 29 0 0 0
SMALL
GASTEIGER

@<TRIPOS>ATOM
      1 C          -9.6314  -17.6829   21.6289 C.ar    1  UNL1        0.0144
      2 C         -10.6073  -17.8436   20.5011 C.ar    1  UNL1       -0.0006
      3 C         -10.3287  -18.8264   19.4027 C.ar    1  UNL1        0.0143
      4 C          -9.0743  -19.6484   19.4321 C.ar    1  UNL1        0.0943
      5 CL         -8.7957  -20.6312   18.3336 Cl      1  UNL1       -0.0790
      6 C          -8.0985  -19.4876   20.5599 C.ar    1  UNL1        0.1826
      7 C          -8.3770  -18.5048   21.6583 C.ar    1  UNL1        0.1716
      8 F          -7.4012  -18.3441   22.7861 F       1  UNL1       -0.2012
      9 C          -9.9099  -16.7001   22.7274 C.3     1  UNL1        0.0757
     10 C          -7.6793  -15.9776   27.3644 C.3     1  UNL1        0.0145
     11 C          -7.6662  -15.8009   25.8749 C.3     1  UNL1        0.1032
     12 C          -8.7946  -16.3388   25.0459 C.2     1  UNL1       -0.0006
     13 C          -8.7815  -16.1621   23.5564 C.2     1  UNL1        0.0789
     14 N          -7.6400  -15.4475   22.8959 N.2     1  UNL1       -0.1605
     15 N          -6.5116  -14.9095   23.7250 N.am    1  UNL1       -0.0793
     16 C          -6.5247  -15.0863   25.2145 C.2     1  UNL1        0.2663
     17 O          -5.3962  -14.5483   26.0435 O.2     1  UNL1       -0.2711
     18 O          -6.8440  -20.3096   20.5892 O.3     1  UNL1       -0.4503
     19 C          -5.5267  -19.6572   20.8873 C.ar    1  UNL1        0.1484
     20 C          -5.1468  -19.3477   22.3050 C.ar    1  UNL1        0.0671
     21 C          -3.8294  -18.6953   22.6031 C.ar    1  UNL1        0.1439
     22 F          -3.4495  -18.3857   24.0207 F       1  UNL1       -0.2040
     23 C          -2.8919  -18.3524   21.4834 C.ar    1  UNL1        0.0401
     24 C          -3.2718  -18.6619   20.0657 C.ar    1  UNL1        0.0737
     25 C          -4.5892  -19.3143   19.7677 C.ar    1  UNL1        0.0479
     26 C          -2.3344  -18.3191   18.9461 C.1     1  UNL1        0.1006
     27 N          -1.3969  -17.9762   17.8264 N.1     1  UNL1       -0.1908
@<TRIPOS>BOND
     1    10    11    1
     2    11    12    1
     3    12    13    2
     4    13     9    1
     5     9     1    1
     6     1     2   ar
     7     2     3   ar
     8     3     4   ar
     9     4     5    1
    10     4     6   ar
    11     6    18    1
    12    18    19    1
    13    19    20   ar
    14    20    21   ar
    15    21    22    1
    16    21    23   ar
    17    23    24   ar
    18    24    26    1
    19    26    27    3
    20    24    25   ar
    21     6     7   ar
    22     7     8    1
    23    13    14    1
    24    14    15    2
    25    15    16    1
    26    16    17    2
    27    16    11    1
    28     7     1   ar
    29    25    19   ar
@<TRIPOS>MOLECULE
*****
 27 29 0 0 0
SMALL
GASTEIGER

@<TRIPOS>ATOM
      1 C          -6.1747  -20.4157   20.2661 C.ar    1  UNL1        0.0144
      2 C          -7.0602  -21.0748   19.2504 C.ar    1  UNL1       -0.0006
      3 C          -8.4269  -20.5212   18.9751 C.ar    1  UNL1        0.0143
      4 C          -8.9080  -19.3085   19.7155 C.ar    1  UNL1        0.0943
      5 CL        -10.2747  -18.7550   19.4401 Cl      1  UNL1       -0.0790
      6 C          -8.0225  -18.6495   20.7311 C.ar    1  UNL1        0.1826
      7 C          -6.6558  -19.2031   21.0064 C.ar    1  UNL1        0.1716
      8 F          -5.7703  -18.5440   22.0221 F       1  UNL1       -0.2012
      9 C          -4.8080  -20.9692   20.5414 C.3     1  UNL1        0.0757
     10 C          -1.9832  -17.4731   17.9342 C.3     1  UNL1        0.0145
     11 C          -2.1931  -18.3291   19.1479 C.3     1  UNL1        0.1032
     12 C          -3.3956  -19.2212   19.2378 C.2     1  UNL1       -0.0006
     13 C          -3.6054  -20.0772   20.4516 C.2     1  UNL1        0.0789
     14 N          -2.6127  -20.0411   21.5755 N.2     1  UNL1       -0.1605
     15 N          -1.4102  -19.1490   21.4856 N.am    1  UNL1       -0.0793
     16 C          -1.2004  -18.2931   20.2718 C.2     1  UNL1        0.2663
     17 O           0.0022  -17.4010   20.1820 O.2     1  UNL1       -0.2711
     18 O          -8.5036  -17.4369   21.4714 O.3     1  UNL1       -0.4503
     19 C          -8.9115  -17.5495   22.9105 C.ar    1  UNL1        0.1484
     20 C          -9.9529  -18.5488   23.3188 C.ar    1  UNL1        0.0671
     21 C         -10.3608  -18.6615   24.7579 C.ar    1  UNL1        0.1439
     22 F         -11.4022  -19.6607   25.1663 F       1  UNL1       -0.2040
     23 C          -9.7271  -17.7748   25.7887 C.ar    1  UNL1        0.0401
     24 C          -8.6856  -16.7755   25.3803 C.ar    1  UNL1        0.0737
     25 C          -8.2778  -16.6629   23.9412 C.ar    1  UNL1        0.0479
     26 C          -8.0520  -15.8889   26.4110 C.1     1  UNL1        0.1006
     27 N          -7.4184  -15.0023   27.4417 N.1     1  UNL1       -0.1908
@<TRIPOS>BOND
     1    10    11    1
     2    11    12    1
     3    12    13    2
     4    13     9    1
     5     9     1    1
     6     1     2   ar
     7     2     3   ar
     8     3     4   ar
     9     4     5    1
    10     4     6   ar
    11     6    18    1
    12    18    19    1
    13    19    20   ar
    14    20    21   ar
    15    21    22    1
    16    21    23   ar
    17    23    24   ar
    18    24    26    1
    19    26    27    3
    20    24    25   ar
    21     6     7   ar
    22     7     8    1
    23    13    14    1
    24    14    15    2
    25    15    16    1
    26    16    17    2
    27    16    11    1
    28     7     1   ar
    29    25    19   ar
@<TRIPOS>MOLECULE
*****
 27 29 0 0 0
SMALL
GASTEIGER

@<TRIPOS>ATOM
      1 C          -4.9575  -17.6884   23.1301 C.ar    1  UNL1        0.0144
      2 C          -4.5775  -16.3213   23.6167 C.ar    1  UNL1       -0.0006
      3 C          -5.6404  -15.3630   24.0662 C.ar    1  UNL1        0.0143
      4 C          -7.0832  -15.7719   24.0292 C.ar    1  UNL1        0.0943
      5 CL         -8.1460  -14.8136   24.4787 Cl      1  UNL1       -0.0790
      6 C          -7.4630  -17.1390   23.5426 C.ar    1  UNL1        0.1826
      7 C          -6.4002  -18.0972   23.0931 C.ar    1  UNL1        0.1716
      8 F          -6.7801  -19.4644   22.6065 F       1  UNL1       -0.2012
      9 C          -3.8946  -18.6467   22.6806 C.3     1  UNL1        0.0757
     10 C           0.4177  -17.6723   19.9503 C.3     1  UNL1        0.0145
     11 C          -1.0545  -17.9560   19.9961 C.3     1  UNL1        0.1032
     12 C          -1.7384  -18.1595   21.3154 C.2     1  UNL1       -0.0006
     13 C          -3.2107  -18.4431   21.3612 C.2     1  UNL1        0.0789
     14 N          -3.9989  -18.5232   20.0875 N.2     1  UNL1       -0.1605
     15 N          -3.3150  -18.3197   18.7682 N.am    1  UNL1       -0.0793
     16 C          -1.8428  -18.0361   18.7225 C.2     1  UNL1        0.2663
     17 O          -1.1588  -17.8325   17.4030 O.2     1  UNL1       -0.2711
     18 O          -8.9058  -17.5478   23.5056 O.3     1  UNL1       -0.4503
     19 C          -9.6146  -17.6790   22.1902 C.ar    1  UNL1        0.1484
     20 C         -10.7320  -16.7404   21.8435 C.ar    1  UNL1        0.0671
     21 C         -11.4409  -16.8715   20.5280 C.ar    1  UNL1        0.1439
     22 F         -12.5582  -15.9329   20.1813 F       1  UNL1       -0.2040
     23 C         -11.0323  -17.9414   19.5593 C.ar    1  UNL1        0.0401
     24 C          -9.9148  -18.8802   19.9061 C.ar    1  UNL1        0.0737
     25 C          -9.2060  -18.7489   21.2215 C.ar    1  UNL1        0.0479
     26 C          -9.5062  -19.9501   18.9374 C.1     1  UNL1        0.1006
     27 N          -9.0976  -21.0200   17.9687 N.1     1  UNL1       -0.1908
@<TRIPOS>BOND
     1    10    11    1
     2    11    12    1
     3    12    13    2
     4    13     9    1
     5     9     1    1
     6     1     2   ar
     7     2     3   ar
     8     3     4   ar
     9     4     5    1
    10     4     6   ar
    11     6    18    1
    12    18    19    1
    13    19    20   ar
    14    20    21   ar
    15    21    22    1
    16    21    23   ar
    17    23    24   ar
    18    24    26    1
    19    26    27    3
    20    24    25   ar
    21     6     7   ar
    22     7     8    1
    23    13    14    1
    24    14    15    2
    25    15    16    1
    26    16    17    2
    27    16    11    1
    28     7     1   ar
    29    25    19   ar
@<TRIPOS>MOLECULE
*****
 27 29 0 0 0
SMALL
GASTEIGER

@<TRIPOS>ATOM
      1 C          -6.9996  -20.2198   20.2601 C.ar    1  UNL1        0.0144
      2 C          -7.8868  -19.9890   19.0727 C.ar    1  UNL1       -0.0006
      3 C          -9.1751  -19.2378   19.2339 C.ar    1  UNL1        0.0143
      4 C          -9.5762  -18.7174   20.5824 C.ar    1  UNL1        0.0943
      5 CL        -10.8645  -17.9662   20.7435 Cl      1  UNL1       -0.0790
      6 C          -8.6890  -18.9481   21.7696 C.ar    1  UNL1        0.1826
      7 C          -7.4007  -19.6993   21.6085 C.ar    1  UNL1        0.1716
      8 F          -6.5135  -19.9300   22.7958 F       1  UNL1       -0.2012
      9 C          -5.7113  -20.9710   20.0990 C.3     1  UNL1        0.0757
     10 C          -2.5234  -17.1620   18.5728 C.3     1  UNL1        0.0145
     11 C          -2.8081  -18.3436   19.4518 C.3     1  UNL1        0.1032
     12 C          -4.1173  -19.0665   19.3359 C.2     1  UNL1       -0.0006
     13 C          -4.4020  -20.2481   20.2149 C.2     1  UNL1        0.0789
     14 N          -3.3776  -20.7068   21.2100 N.2     1  UNL1       -0.1605
     15 N          -2.0684  -19.9839   21.3259 N.am    1  UNL1       -0.0793
     16 C          -1.7837  -18.8023   20.4468 C.2     1  UNL1        0.2663
     17 O          -0.4744  -18.0794   20.5628 O.2     1  UNL1       -0.2711
     18 O          -9.0901  -18.4277   23.1181 O.3     1  UNL1       -0.4503
     19 C          -8.3006  -17.3270   23.7624 C.ar    1  UNL1        0.1484
     20 C          -7.0542  -16.8138   23.1044 C.ar    1  UNL1        0.0671
     21 C          -6.2646  -15.7132   23.7487 C.ar    1  UNL1        0.1439
     22 F          -5.0182  -15.1999   23.0906 F       1  UNL1       -0.2040
     23 C          -6.7214  -15.1258   25.0511 C.ar    1  UNL1        0.0401
     24 C          -7.9678  -15.6391   25.7092 C.ar    1  UNL1        0.0737
     25 C          -8.7574  -16.7397   25.0648 C.ar    1  UNL1        0.0479
     26 C          -8.4247  -15.0517   27.0116 C.1     1  UNL1        0.1006
     27 N          -8.8815  -14.4643   28.3140 N.1     1  UNL1       -0.1908
@<TRIPOS>BOND
     1    10    11    1
     2    11    12    1
     3    12    13    2
     4    13     9    1
     5     9     1    1
     6     1     2   ar
     7     2     3   ar
     8     3     4   ar
     9     4     5    1
    10     4     6   ar
    11     6    18    1
    12    18    19    1
    13    19    20   ar
    14    20    21   ar
    15    21    22    1
    16    21    23   ar
    17    23    24   ar
    18    24    26    1
    19    26    27    3
    20    24    25   ar
    21     6     7   ar
    22     7     8    1
    23    13    14    1
    24    14    15    2
    25    15    16    1
    26    16    17    2
    27    16    11    1
    28     7     1   ar
    29    25    19   ar
@<TRIPOS>MOLECULE
*****
 27 29 0 0 0
SMALL
GASTEIGER

@<TRIPOS>ATOM
      1 C          -6.2872  -20.5285   20.2458 C.ar    1  UNL1        0.0144
      2 C          -7.0804  -21.2774   19.2161 C.ar    1  UNL1       -0.0006
      3 C          -8.4641  -20.8221   18.8584 C.ar    1  UNL1        0.0143
      4 C          -9.0547  -19.6181   19.5304 C.ar    1  UNL1        0.0943
      5 CL        -10.4385  -19.1628   19.1726 Cl      1  UNL1       -0.0790
      6 C          -8.2616  -18.8693   20.5600 C.ar    1  UNL1        0.1826
      7 C          -6.8778  -19.3245   20.9177 C.ar    1  UNL1        0.1716
      8 F          -6.0846  -18.5757   21.9474 F       1  UNL1       -0.2012
      9 C          -4.9034  -20.9838   20.6035 C.3     1  UNL1        0.0757
     10 C          -2.4753  -17.1197   18.1189 C.3     1  UNL1        0.0145
     11 C          -2.5352  -18.0997   19.2529 C.3     1  UNL1        0.1032
     12 C          -3.6893  -19.0517   19.3612 C.2     1  UNL1       -0.0006
     13 C          -3.7492  -20.0318   20.4952 C.2     1  UNL1        0.0789
     14 N          -2.6550  -20.0599   21.5208 N.2     1  UNL1       -0.1605
     15 N          -1.5009  -19.1079   21.4125 N.am    1  UNL1       -0.0793
     16 C          -1.4410  -18.1279   20.2785 C.2     1  UNL1        0.2663
     17 O          -0.2869  -17.1759   20.1702 O.2     1  UNL1       -0.2711
     18 O          -8.8522  -17.6652   21.2320 O.3     1  UNL1       -0.4503
     19 C          -9.5800  -17.8151   22.5349 C.ar    1  UNL1        0.1484
     20 C          -8.8135  -17.8358   23.8241 C.ar    1  UNL1        0.0671
     21 C          -9.5414  -17.9857   25.1271 C.ar    1  UNL1        0.1439
     22 F          -8.7749  -18.0065   26.4163 F       1  UNL1       -0.2040
     23 C         -11.0358  -18.1147   25.1409 C.ar    1  UNL1        0.0401
     24 C         -11.8023  -18.0940   23.8517 C.ar    1  UNL1        0.0737
     25 C         -11.0744  -17.9441   22.5487 C.ar    1  UNL1        0.0479
     26 C         -13.2967  -18.2230   23.8654 C.1     1  UNL1        0.1006
     27 N         -14.7910  -18.3521   23.8792 N.1     1  UNL1       -0.1908
@<TRIPOS>BOND
     1    10    11    1
     2    11    12    1
     3    12    13    2
     4    13     9    1
     5     9     1    1
     6     1     2   ar
     7     2     3   ar
     8     3     4   ar
     9     4     5    1
    10     4     6   ar
    11     6    18    1
    12    18    19    1
    13    19    20   ar
    14    20    21   ar
    15    21    22    1
    16    21    23   ar
    17    23    24   ar
    18    24    26    1
    19    26    27    3
    20    24    25   ar
    21     6     7   ar
    22     7     8    1
    23    13    14    1
    24    14    15    2
    25    15    16    1
    26    16    17    2
    27    16    11    1
    28     7     1   ar
    29    25    19   ar
