@<TRIPOS>MOLECULE
*****
 14 14 0 0 0
SMALL
GASTEIGER

@<TRIPOS>ATOM
      1 C         -12.7759  -17.7553   23.4727 C.ar    1  UNL1       -0.0221
      2 C         -11.5781  -18.6108   23.7610 C.ar    1  UNL1       -0.0030
      3 C         -10.2405  -18.2460   23.1886 C.ar    1  UNL1        0.0143
      4 C         -10.1007  -17.0255   22.3279 C.ar    1  UNL1        0.0495
      5 C         -11.2985  -16.1700   22.0395 C.ar    1  UNL1        0.0143
      6 C         -12.6361  -16.5348   22.6119 C.ar    1  UNL1       -0.0030
      7 C         -14.2375  -18.4683   25.4988 C.3     1  UNL1        0.0050
      8 C         -14.1135  -18.1202   24.0451 C.3     1  UNL1        0.0264
      9 N          -8.7631  -16.6606   21.7554 N.pl3   1  UNL1       -0.2930
     10 H          -8.4105  -17.1501   20.9774 H       1  UNL1        0.1538
     11 C          -7.9627  -15.5500   22.3684 C.2     1  UNL1        0.2056
     12 N          -7.9059  -15.4011   23.8599 N.2     1  UNL1       -0.0679
     13 O          -7.1054  -14.2904   24.4728 O.2     1  UNL1       -0.4077
     14 H          -7.0700  -14.1974   25.4045 H       1  UNL1        0.3278
@<TRIPOS>BOND
     1     7     8    1
     2     8     1    1
     3     1     2   ar
     4     2     3   ar
     5     3     4   ar
     6     4     9    1
     7     9    11    1
     8    11    12    2
     9    12    13    1
    10     4     5   ar
    11     5     6   ar
    12     6     1   ar
    13     9    10    1
    14    13    14    1
@<TRIPOS>MOLECULE
*****
 14 14 0 0 0
SMALL
GASTEIGER

@<TRIPOS>ATOM
      1 C           5.4644  -12.3515   28.2186 C.ar    1  UNL1       -0.0221
      2 C           5.0276  -13.0767   26.9804 C.ar    1  UNL1       -0.0030
      3 C           3.6068  -13.5376   26.8429 C.ar    1  UNL1        0.0143
      4 C           2.6227  -13.2732   27.9437 C.ar    1  UNL1        0.0495
      5 C           3.0595  -12.5479   29.1819 C.ar    1  UNL1        0.0143
      6 C           4.4803  -12.0871   29.3194 C.ar    1  UNL1       -0.0030
      7 C           8.0117  -12.8234   28.0234 C.3     1  UNL1        0.0050
      8 C           6.8852  -11.8906   28.3561 C.3     1  UNL1        0.0264
      9 N           1.2019  -13.7340   27.8062 N.pl3   1  UNL1       -0.2930
     10 H           0.5367  -13.1549   27.3687 H       1  UNL1        0.1538
     11 C           0.7946  -15.0772   28.3352 C.2     1  UNL1        0.2056
     12 N           1.7750  -16.2124   28.3343 N.2     1  UNL1       -0.0679
     13 O           1.3676  -17.5557   28.8634 O.2     1  UNL1       -0.4077
     14 H           1.9801  -18.2648   28.8629 H       1  UNL1        0.3278
@<TRIPOS>BOND
     1     7     8    1
     2     8     1    1
     3     1     2   ar
     4     2     3   ar
     5     3     4   ar
     6     4     9    1
     7     9    11    1
     8    11    12    2
     9    12    13    1
    10     4     5   ar
    11     5     6   ar
    12     6     1   ar
    13     9    10    1
    14    13    14    1
@<TRIPOS>MOLECULE
*****
 14 14 0 0 0
SMALL
GASTEIGER

@<TRIPOS>ATOM
      1 C         -12.5142  -18.0586   22.6231 C.ar    1  UNL1       -0.0221
      2 C         -11.4160  -19.0110   22.9930 C.ar    1  UNL1       -0.0030
      3 C         -10.3328  -19.3270   22.0046 C.ar    1  UNL1        0.0143
      4 C         -10.3477  -18.6905   20.6465 C.ar    1  UNL1        0.0495
      5 C         -11.4459  -17.7381   20.2766 C.ar    1  UNL1        0.0143
      6 C         -12.5291  -17.4222   21.2650 C.ar    1  UNL1       -0.0030
      7 C         -13.6669  -18.4873   24.9116 C.3     1  UNL1        0.0050
      8 C         -13.5974  -17.7426   23.6114 C.3     1  UNL1        0.0264
      9 N          -9.2645  -19.0065   19.6582 N.pl3   1  UNL1       -0.2930
     10 H          -9.4536  -18.9717   18.6926 H       1  UNL1        0.1538
     11 C          -7.8931  -19.3756   20.1409 C.2     1  UNL1        0.2056
     12 N          -6.9258  -18.3023   20.5438 N.2     1  UNL1       -0.0679
     13 O          -5.5543  -18.6714   21.0266 O.2     1  UNL1       -0.4077
     14 H          -4.9500  -18.0010   21.2783 H       1  UNL1        0.3278
@<TRIPOS>BOND
     1     7     8    1
     2     8     1    1
     3     1     2   ar
     4     2     3   ar
     5     3     4   ar
     6     4     9    1
     7     9    11    1
     8    11    12    2
     9    12    13    1
    10     4     5   ar
    11     5     6   ar
    12     6     1   ar
    13     9    10    1
    14    13    14    1
@<TRIPOS>MOLECULE
*****
 14 14 0 0 0
SMALL
GASTEIGER

@<TRIPOS>ATOM
      1 C          -8.5057  -16.1874   25.4088 C.ar    1  UNL1       -0.0221
      2 C          -7.9324  -15.3496   24.3046 C.ar    1  UNL1       -0.0030
      3 C          -8.2819  -15.6493   22.8770 C.ar    1  UNL1        0.0143
      4 C          -9.2047  -16.7867   22.5536 C.ar    1  UNL1        0.0495
      5 C          -9.7781  -17.6245   23.6579 C.ar    1  UNL1        0.0143
      6 C          -9.4285  -17.3248   25.0855 C.ar    1  UNL1       -0.0030
      7 C          -6.7419  -15.5535   27.2081 C.3     1  UNL1        0.0050
      8 C          -8.1562  -15.8878   26.8365 C.3     1  UNL1        0.0264
      9 N          -9.5543  -17.0863   21.1260 N.pl3   1  UNL1       -0.2930
     10 H          -8.8977  -17.5288   20.5409 H       1  UNL1        0.1538
     11 C         -10.9042  -16.7118   20.5899 C.2     1  UNL1        0.2056
     12 N         -11.0166  -15.7355   19.4567 N.2     1  UNL1       -0.0679
     13 O         -12.3666  -15.3610   18.9206 O.2     1  UNL1       -0.4077
     14 H         -12.4369  -14.7511   18.2127 H       1  UNL1        0.3278
@<TRIPOS>BOND
     1     7     8    1
     2     8     1    1
     3     1     2   ar
     4     2     3   ar
     5     3     4   ar
     6     4     9    1
     7     9    11    1
     8    11    12    2
     9    12    13    1
    10     4     5   ar
    11     5     6   ar
    12     6     1   ar
    13     9    10    1
    14    13    14    1
@<TRIPOS>MOLECULE
*****
 14 14 0 0 0
SMALL
GASTEIGER

@<TRIPOS>ATOM
      1 C         -11.1198  -18.9633   23.3768 C.ar    1  UNL1       -0.0221
      2 C         -11.9737  -17.7415   23.5445 C.ar    1  UNL1       -0.0030
      3 C         -12.4243  -16.9701   22.3396 C.ar    1  UNL1        0.0143
      4 C         -12.0209  -17.4204   20.9668 C.ar    1  UNL1        0.0495
      5 C         -11.1671  -18.6422   20.7990 C.ar    1  UNL1        0.0143
      6 C         -10.7165  -19.4136   22.0040 C.ar    1  UNL1       -0.0030
      7 C          -9.6017  -20.7798   24.4471 C.3     1  UNL1        0.0050
      8 C         -10.6693  -19.7347   24.5817 C.3     1  UNL1        0.0264
      9 N         -12.4715  -16.6490   19.7619 N.pl3   1  UNL1       -0.2930
     10 H         -13.3067  -16.8962   19.3031 H       1  UNL1        0.1538
     11 C         -11.6494  -15.5009   19.2559 C.2     1  UNL1        0.2056
     12 N         -10.3497  -15.1582   19.9217 N.2     1  UNL1       -0.0679
     13 O          -9.5276  -14.0101   19.4156 O.2     1  UNL1       -0.4077
     14 H          -8.7157  -13.7960   19.8315 H       1  UNL1        0.3278
@<TRIPOS>BOND
     1     7     8    1
     2     8     1    1
     3     1     2   ar
     4     2     3   ar
     5     3     4   ar
     6     4     9    1
     7     9    11    1
     8    11    12    2
     9    12    13    1
    10     4     5   ar
    11     5     6   ar
    12     6     1   ar
    13     9    10    1
    14    13    14    1
@<TRIPOS>MOLECULE
*****
 14 14 0 0 0
SMALL
GASTEIGER

@<TRIPOS>ATOM
      1 C         -11.8176  -18.5072   23.0673 C.ar    1  UNL1       -0.0221
      2 C         -12.0945  -17.7857   21.7817 C.ar    1  UNL1       -0.0030
      3 C         -11.1915  -17.9846   20.6005 C.ar    1  UNL1        0.0143
      4 C         -10.0117  -18.9050   20.7050 C.ar    1  UNL1        0.0495
      5 C          -9.7349  -19.6264   21.9906 C.ar    1  UNL1        0.0143
      6 C         -10.6378  -19.4275   23.1717 C.ar    1  UNL1       -0.0030
      7 C         -14.1901  -18.0902   24.0408 C.3     1  UNL1        0.0050
      8 C         -12.7206  -18.3082   24.2484 C.3     1  UNL1        0.0264
      9 N          -9.1087  -19.1039   19.5239 N.pl3   1  UNL1       -0.2930
     10 H          -9.4659  -19.0151   18.6107 H       1  UNL1        0.1538
     11 C          -7.6616  -19.4380   19.7340 C.2     1  UNL1        0.2056
     12 N          -6.7536  -18.4505   20.4050 N.2     1  UNL1       -0.0679
     13 O          -5.3064  -18.7847   20.6151 O.2     1  UNL1       -0.4077
     14 H          -4.7392  -18.1678   21.0342 H       1  UNL1        0.3278
@<TRIPOS>BOND
     1     7     8    1
     2     8     1    1
     3     1     2   ar
     4     2     3   ar
     5     3     4   ar
     6     4     9    1
     7     9    11    1
     8    11    12    2
     9    12    13    1
    10     4     5   ar
    11     5     6   ar
    12     6     1   ar
    13     9    10    1
    14    13    14    1
@<TRIPOS>MOLECULE
*****
 14 14 0 0 0
SMALL
GASTEIGER

@<TRIPOS>ATOM
      1 C          -2.4613  -18.9337   20.5381 C.ar    1  UNL1       -0.0221
      2 C          -2.7898  -18.7660   21.9920 C.ar    1  UNL1       -0.0030
      3 C          -4.1497  -19.1414   22.5018 C.ar    1  UNL1        0.0143
      4 C          -5.1810  -19.6844   21.5576 C.ar    1  UNL1        0.0495
      5 C          -4.8525  -19.8521   20.1037 C.ar    1  UNL1        0.0143
      6 C          -3.4926  -19.4767   19.5940 C.ar    1  UNL1       -0.0030
      7 C          -0.6197  -17.1429   20.1488 C.3     1  UNL1        0.0050
      8 C          -1.1014  -18.5583   20.0283 C.3     1  UNL1        0.0264
      9 N          -6.5409  -20.0598   22.0674 N.pl3   1  UNL1       -0.2930
     10 H          -6.7362  -20.9947   22.3065 H       1  UNL1        0.1538
     11 C          -7.6031  -19.0109   22.2130 C.2     1  UNL1        0.2056
     12 N          -7.5822  -17.7953   21.3344 N.2     1  UNL1       -0.0679
     13 O          -8.6446  -16.7463   21.4801 O.2     1  UNL1       -0.4077
     14 H          -8.6315  -15.9869   20.9313 H       1  UNL1        0.3278
@<TRIPOS>BOND
     1     7     8    1
     2     8     1    1
     3     1     2   ar
     4     2     3   ar
     5     3     4   ar
     6     4     9    1
     7     9    11    1
     8    11    12    2
     9    12    13    1
    10     4     5   ar
    11     5     6   ar
    12     6     1   ar
    13     9    10    1
    14    13    14    1
@<TRIPOS>MOLECULE
*****
 14 14 0 0 0
SMALL
GASTEIGER

@<TRIPOS>ATOM
      1 C          -6.8828  -19.4596   21.3537 C.ar    1  UNL1       -0.0221
      2 C          -5.9962  -18.6979   22.2937 C.ar    1  UNL1       -0.0030
      3 C          -4.5069  -18.8597   22.2170 C.ar    1  UNL1        0.0143
      4 C          -3.9043  -19.7834   21.2003 C.ar    1  UNL1        0.0495
      5 C          -4.7909  -20.5451   20.2603 C.ar    1  UNL1        0.0143
      6 C          -6.2801  -20.3833   20.3370 C.ar    1  UNL1       -0.0030
      7 C          -9.1999  -19.3729   20.1819 C.3     1  UNL1        0.0050
      8 C          -8.3721  -19.2978   21.4304 C.3     1  UNL1        0.0264
      9 N          -2.4150  -19.9452   21.1235 N.pl3   1  UNL1       -0.2930
     10 H          -1.9800  -20.7121   21.5616 H       1  UNL1        0.1538
     11 C          -1.5885  -18.9387   20.3794 C.2     1  UNL1        0.2056
     12 N          -1.8829  -18.6448   18.9382 N.2     1  UNL1       -0.0679
     13 O          -1.0564  -17.6382   18.1941 O.2     1  UNL1       -0.4077
     14 H          -1.2402  -17.4546   17.2938 H       1  UNL1        0.3278
@<TRIPOS>BOND
     1     7     8    1
     2     8     1    1
     3     1     2   ar
     4     2     3   ar
     5     3     4   ar
     6     4     9    1
     7     9    11    1
     8    11    12    2
     9    12    13    1
    10     4     5   ar
    11     5     6   ar
    12     6     1   ar
    13     9    10    1
    14    13    14    1
@<TRIPOS>MOLECULE
*****
 14 14 0 0 0
SMALL
GASTEIGER

@<TRIPOS>ATOM
      1 C          -5.2406  -19.4023   21.6215 C.ar    1  UNL1       -0.0221
      2 C          -4.7144  -19.3923   20.2170 C.ar    1  UNL1       -0.0030
      3 C          -3.3142  -18.9287   19.9440 C.ar    1  UNL1        0.0143
      4 C          -2.4402  -18.4752   21.0755 C.ar    1  UNL1        0.0495
      5 C          -2.9665  -18.4852   22.4801 C.ar    1  UNL1        0.0143
      6 C          -4.3667  -18.9488   22.7531 C.ar    1  UNL1       -0.0030
      7 C          -7.7446  -19.5215   20.9391 C.3     1  UNL1        0.0050
      8 C          -6.6408  -19.8659   21.8945 C.3     1  UNL1        0.0264
      9 N          -1.0400  -18.0116   20.8025 N.pl3   1  UNL1       -0.2930
     10 H          -0.4770  -17.6847   21.5410 H       1  UNL1        0.1538
     11 C          -0.4977  -18.0462   19.4044 C.2     1  UNL1        0.2056
     12 N          -1.3912  -17.7182   18.2451 N.2     1  UNL1       -0.0679
     13 O          -0.8488  -17.7527   16.8470 O.2     1  UNL1       -0.4077
     14 H          -1.4070  -17.5478   16.1227 H       1  UNL1        0.3278
@<TRIPOS>BOND
     1     7     8    1
     2     8     1    1
     3     1     2   ar
     4     2     3   ar
     5     3     4   ar
     6     4     9    1
     7     9    11    1
     8    11    12    2
     9    12    13    1
    10     4     5   ar
    11     5     6   ar
    12     6     1   ar
    13     9    10    1
    14    13    14    1
