@<TRIPOS>MOLECULE
*****
 39 43 0 0 0
SMALL
GASTEIGER

@<TRIPOS>ATOM
      1 C           2.3153    0.1679   24.0506 C.3     1  UNL1        0.0933
      2 C           3.2482   -0.2432   25.1511 C.3     1  UNL1        0.0442
      3 C           2.9534    0.1471   26.5691 C.3     1  UNL1        0.0953
      4 N           1.7258    0.9484   26.8867 N.am    1  UNL1       -0.2794
      5 C           1.4310    1.3387   28.3048 C.2     1  UNL1        0.2252
      6 O           0.2034    2.1400   28.6224 O.2     1  UNL1       -0.2749
      7 C           0.7930    1.3594   25.7863 C.3     1  UNL1        0.0953
      8 C           1.0877    0.9691   24.3683 C.3     1  UNL1        0.0442
      9 N           2.6751   -0.2298   20.2065 N.ar    1  UNL1       -0.2799
     10 C           2.1546    0.5081   21.4042 C.ar    1  UNL1        0.3315
     11 O           1.3244    1.7571   21.3782 O.2     1  UNL1       -0.2463
     12 N           2.6100   -0.2224   22.6326 N.ar    1  UNL1       -0.2817
     13 C           3.4120   -1.4118   22.1940 C.ar    1  UNL1        0.0798
     14 C           4.1109   -2.4912   22.9663 C.ar    1  UNL1        0.0211
     15 C           4.8499   -3.5751   22.2392 C.ar    1  UNL1        0.0312
     16 C           4.8901   -3.5797   20.7397 C.ar    1  UNL1        0.1417
     17 F           5.6292   -4.6637   20.0126 F       1  UNL1       -0.2041
     18 C           4.1913   -2.5003   19.9674 C.ar    1  UNL1        0.0484
     19 C           3.4522   -1.4163   20.6946 C.ar    1  UNL1        0.0819
     20 C           2.4568    0.1518   18.7723 C.3     1  UNL1        0.1105
     21 C           4.6222    1.3477   17.9779 C.3     1  UNL1        0.0020
     22 C           3.6232    0.2381   17.8333 C.3     1  UNL1        0.0228
     23 C           3.7908   -0.7854   16.7495 C.3     1  UNL1        0.0020
     24 C           2.3639    0.9276   29.4051 C.3     1  UNL1        0.0795
     25 C           2.1730   -0.3892   30.0975 C.3     1  UNL1        0.0264
     26 C           3.1060   -0.8002   31.1979 C.3     1  UNL1        0.0729
     27 N           4.2298    0.1056   31.6058 N.3     1  UNL1       -0.2689
     28 C           4.4207    1.4225   30.9134 C.3     1  UNL1        0.0729
     29 C           3.4878    1.8335   29.8131 C.3     1  UNL1        0.0264
     30 C           5.1627   -0.3054   32.7061 C.3     1  UNL1        0.0993
     31 C           6.1931   -1.3669   32.4584 C.ar    1  UNL1       -0.0018
     32 C           7.6131   -0.9804   32.1676 C.ar    1  UNL1        0.0179
     33 C           8.6435   -2.0419   31.9199 C.ar    1  UNL1        0.1000
     34 N           8.2541   -3.4898   31.9630 N.ar    1  UNL1       -0.2296
     35 C           6.8342   -3.8763   32.2538 C.ar    1  UNL1        0.1251
     36 N           6.4449   -5.3242   32.2969 N.pl3   1  UNL1       -0.3426
     37 C           5.8037   -2.8148   32.5015 C.ar    1  UNL1        0.0310
     38 H           7.1212   -6.0208   32.1343 H       1  UNL1        0.1437
     39 H           5.5130   -5.5779   32.4877 H       1  UNL1        0.1437
@<TRIPOS>BOND
     1    21    22    1
     2    22    23    1
     3    22    20    1
     4    20     9    1
     5     9    10   ar
     6    10    11    2
     7    10    12   ar
     8    12     1    1
     9     1     2    1
    10     2     3    1
    11     3     4    1
    12     4     5   am
    13     5     6    2
    14     5    24    1
    15    24    25    1
    16    25    26    1
    17    26    27    1
    18    27    30    1
    19    30    31    1
    20    31    32   ar
    21    32    33   ar
    22    33    34   ar
    23    34    35   ar
    24    35    36    1
    25    35    37   ar
    26    27    28    1
    27    28    29    1
    28     4     7    1
    29     7     8    1
    30    12    13   ar
    31    13    14   ar
    32    14    15   ar
    33    15    16   ar
    34    16    17    1
    35    16    18   ar
    36    18    19   ar
    37    19     9   ar
    38     8     1    1
    39    19    13   ar
    40    29    24    1
    41    37    31   ar
    42    36    38    1
    43    36    39    1
@<TRIPOS>MOLECULE
*****
 39 43 0 0 0
SMALL
GASTEIGER

@<TRIPOS>ATOM
      1 C           0.8426    2.0942   19.1394 C.3     1  UNL1        0.0933
      2 C          -0.0774    2.2496   20.3139 C.3     1  UNL1        0.0442
      3 C          -1.3141    3.0897   20.1919 C.3     1  UNL1        0.0953
      4 N          -1.6307    3.7744   18.8954 N.am    1  UNL1       -0.2794
      5 C          -2.8674    4.6145   18.7733 C.2     1  UNL1        0.2252
      6 O          -3.1840    5.2992   17.4768 O.2     1  UNL1       -0.2749
      7 C          -0.7107    3.6190   17.7209 C.3     1  UNL1        0.0953
      8 C           0.5260    2.7789   17.8430 C.3     1  UNL1        0.0442
      9 N           3.5737   -0.5984   19.7360 N.ar    1  UNL1       -0.2799
     10 C           2.1451   -0.1455   19.7971 C.ar    1  UNL1        0.3315
     11 O           0.9858   -0.9506   20.3048 O.2     1  UNL1       -0.2463
     12 N           2.0793    1.2541   19.2615 N.ar    1  UNL1       -0.2817
     13 C           3.4673    1.6661   18.8692 C.ar    1  UNL1        0.0798
     14 C           4.0094    2.9358   18.2829 C.ar    1  UNL1        0.0211
     15 C           5.4752    3.0606   17.9899 C.ar    1  UNL1        0.0312
     16 C           6.3988    1.9157   18.2832 C.ar    1  UNL1        0.1417
     17 F           7.8646    2.0405   17.9902 F       1  UNL1       -0.2041
     18 C           5.8567    0.6459   18.8695 C.ar    1  UNL1        0.0484
     19 C           4.3909    0.5211   19.1625 C.ar    1  UNL1        0.0819
     20 C           4.0939   -1.9362   20.1718 C.3     1  UNL1        0.1105
     21 C           3.2737   -4.1639   19.1162 C.3     1  UNL1        0.0020
     22 C           4.2636   -3.0381   19.1684 C.3     1  UNL1        0.0228
     23 C           5.4232   -3.0144   18.2171 C.3     1  UNL1        0.0020
     24 C          -3.7873    4.7699   19.9478 C.3     1  UNL1        0.0795
     25 C          -3.6686    5.9699   20.8400 C.3     1  UNL1        0.0264
     26 C          -4.5887    6.1252   22.0146 C.3     1  UNL1        0.0729
     27 N          -5.6274    5.0805   22.2969 N.3     1  UNL1       -0.2689
     28 C          -5.7462    3.8806   21.4047 C.3     1  UNL1        0.0729
     29 C          -4.8262    3.7253   20.2302 C.3     1  UNL1        0.0264
     30 C          -6.5474    5.2359   23.4714 C.3     1  UNL1        0.0993
     31 C          -6.0056    5.1378   24.8667 C.ar    1  UNL1       -0.0018
     32 C          -4.8786    4.1952   25.1691 C.ar    1  UNL1        0.0179
     33 C          -4.3368    4.0970   26.5643 C.ar    1  UNL1        0.1000
     34 N          -4.9220    4.9416   27.6572 N.ar    1  UNL1       -0.2296
     35 C          -6.0489    5.8842   27.3548 C.ar    1  UNL1        0.1251
     36 N          -6.6340    6.7286   28.4477 N.pl3   1  UNL1       -0.3426
     37 C          -6.5907    5.9823   25.9595 C.ar    1  UNL1        0.0310
     38 H          -6.2784    6.6642   29.3635 H       1  UNL1        0.1437
     39 H          -7.3737    7.3473   28.2493 H       1  UNL1        0.1437
@<TRIPOS>BOND
     1    21    22    1
     2    22    23    1
     3    22    20    1
     4    20     9    1
     5     9    10   ar
     6    10    11    2
     7    10    12   ar
     8    12     1    1
     9     1     2    1
    10     2     3    1
    11     3     4    1
    12     4     5   am
    13     5     6    2
    14     5    24    1
    15    24    25    1
    16    25    26    1
    17    26    27    1
    18    27    30    1
    19    30    31    1
    20    31    32   ar
    21    32    33   ar
    22    33    34   ar
    23    34    35   ar
    24    35    36    1
    25    35    37   ar
    26    27    28    1
    27    28    29    1
    28     4     7    1
    29     7     8    1
    30    12    13   ar
    31    13    14   ar
    32    14    15   ar
    33    15    16   ar
    34    16    17    1
    35    16    18   ar
    36    18    19   ar
    37    19     9   ar
    38     8     1    1
    39    19    13   ar
    40    29    24    1
    41    37    31   ar
    42    36    38    1
    43    36    39    1
@<TRIPOS>MOLECULE
*****
 39 43 0 0 0
SMALL
GASTEIGER

@<TRIPOS>ATOM
      1 C           6.5391   -3.9773   25.4344 C.3     1  UNL1        0.0933
      2 C           6.5471   -2.9186   26.4972 C.3     1  UNL1        0.0442
      3 C           6.9612   -3.2641   27.8969 C.3     1  UNL1        0.0953
      4 N           7.3673   -4.6682   28.2339 N.am    1  UNL1       -0.2794
      5 C           7.7813   -5.0138   29.6336 C.2     1  UNL1        0.2252
      6 O           8.1874   -6.4179   29.9706 O.2     1  UNL1       -0.2749
      7 C           7.3593   -5.7268   27.1712 C.3     1  UNL1        0.0953
      8 C           6.9452   -5.3813   25.7715 C.3     1  UNL1        0.0442
      9 N           5.9979   -3.5794   21.6116 N.ar    1  UNL1       -0.2799
     10 C           6.7070   -4.2043   22.7764 C.ar    1  UNL1        0.3315
     11 O           7.8051   -5.2230   22.6967 O.2     1  UNL1       -0.2463
     12 N           6.1250   -3.6317   24.0347 N.ar    1  UNL1       -0.2817
     13 C           5.0563   -2.6529   23.6477 C.ar    1  UNL1        0.0798
     14 C           4.1446   -1.7869   24.4655 C.ar    1  UNL1        0.0211
     15 C           3.1543   -0.8885   23.7856 C.ar    1  UNL1        0.0312
     16 C           3.0757   -0.8562   22.2880 C.ar    1  UNL1        0.1417
     17 F           2.0854    0.0422   21.6082 F       1  UNL1       -0.2041
     18 C           3.9874   -1.7222   21.4703 C.ar    1  UNL1        0.0484
     19 C           4.9777   -2.6206   22.1501 C.ar    1  UNL1        0.0819
     20 C           6.2625   -3.8634   20.1627 C.3     1  UNL1        0.1105
     21 C           4.0580   -4.8745   19.2311 C.3     1  UNL1        0.0020
     22 C           5.1349   -3.8319   19.1741 C.3     1  UNL1        0.0228
     23 C           5.0840   -2.7576   18.1284 C.3     1  UNL1        0.0020
     24 C           7.7893   -3.9551   30.6962 C.3     1  UNL1        0.0795
     25 C           9.0241   -3.1362   30.9299 C.3     1  UNL1        0.0264
     26 C           9.0319   -2.0775   31.9926 C.3     1  UNL1        0.0729
     27 N           7.8050   -1.8379   32.8216 N.3     1  UNL1       -0.2689
     28 C           6.5702   -2.6568   32.5880 C.3     1  UNL1        0.0729
     29 C           6.5624   -3.7154   31.5253 C.3     1  UNL1        0.0264
     30 C           7.8130   -0.7792   33.8842 C.3     1  UNL1        0.0993
     31 C           6.5376   -0.0858   34.2617 C.ar    1  UNL1       -0.0018
     32 C           5.8474    0.8057   33.2723 C.ar    1  UNL1        0.0179
     33 C           4.5720    1.4992   33.6498 C.ar    1  UNL1        0.1000
     34 N           3.9868    1.3011   35.0166 N.ar    1  UNL1       -0.2296
     35 C           4.6770    0.4096   36.0060 C.ar    1  UNL1        0.1251
     36 N           4.0917    0.2116   37.3728 N.pl3   1  UNL1       -0.3426
     37 C           5.9524   -0.2839   35.6285 C.ar    1  UNL1        0.0310
     38 H           3.2546    0.6667   37.6205 H       1  UNL1        0.1437
     39 H           4.5447   -0.3735   38.0222 H       1  UNL1        0.1437
@<TRIPOS>BOND
     1    21    22    1
     2    22    23    1
     3    22    20    1
     4    20     9    1
     5     9    10   ar
     6    10    11    2
     7    10    12   ar
     8    12     1    1
     9     1     2    1
    10     2     3    1
    11     3     4    1
    12     4     5   am
    13     5     6    2
    14     5    24    1
    15    24    25    1
    16    25    26    1
    17    26    27    1
    18    27    30    1
    19    30    31    1
    20    31    32   ar
    21    32    33   ar
    22    33    34   ar
    23    34    35   ar
    24    35    36    1
    25    35    37   ar
    26    27    28    1
    27    28    29    1
    28     4     7    1
    29     7     8    1
    30    12    13   ar
    31    13    14   ar
    32    14    15   ar
    33    15    16   ar
    34    16    17    1
    35    16    18   ar
    36    18    19   ar
    37    19     9   ar
    38     8     1    1
    39    19    13   ar
    40    29    24    1
    41    37    31   ar
    42    36    38    1
    43    36    39    1
@<TRIPOS>MOLECULE
*****
 39 43 0 0 0
SMALL
GASTEIGER

@<TRIPOS>ATOM
      1 C           1.7251    0.6150   23.9274 C.3     1  UNL1        0.0933
      2 C           2.7883    0.1870   24.8952 C.3     1  UNL1        0.0442
      3 C           2.6148    0.4453   26.3626 C.3     1  UNL1        0.0953
      4 N           1.3781    1.1317   26.8622 N.am    1  UNL1       -0.2794
      5 C           1.2046    1.3900   28.3296 C.2     1  UNL1        0.2252
      6 O          -0.0320    2.0764   28.8292 O.2     1  UNL1       -0.2749
      7 C           0.3150    1.5597   25.8945 C.3     1  UNL1        0.0953
      8 C           0.4885    1.3013   24.4271 C.3     1  UNL1        0.0442
      9 N           2.6182   -0.6182   20.3572 N.ar    1  UNL1       -0.2799
     10 C           2.7331   -0.7295   21.8487 C.ar    1  UNL1        0.3315
     11 O           3.5406   -1.7480   22.5973 O.2     1  UNL1       -0.2463
     12 N           1.8986    0.3567   22.4601 N.ar    1  UNL1       -0.2817
     13 C           1.2680    1.1392   21.3465 C.ar    1  UNL1        0.0798
     14 C           0.3463    2.3226   21.3480 C.ar    1  UNL1        0.0211
     15 C          -0.1307    2.9034   20.0499 C.ar    1  UNL1        0.0312
     16 C           0.3141    2.3008   18.7502 C.ar    1  UNL1        0.1417
     17 F          -0.1628    2.8817   17.4521 F       1  UNL1       -0.2041
     18 C           1.2359    1.1175   18.7487 C.ar    1  UNL1        0.0484
     19 C           1.7128    0.5367   20.0468 C.ar    1  UNL1        0.0819
     20 C           3.2908   -1.5060   19.3525 C.3     1  UNL1        0.1105
     21 C           3.8587   -0.8477   16.9042 C.3     1  UNL1        0.0020
     22 C           4.2429   -0.9203   18.3524 C.3     1  UNL1        0.0228
     23 C           5.5793   -0.4069   18.8004 C.3     1  UNL1        0.0020
     24 C           2.2678    0.9620   29.2972 C.3     1  UNL1        0.0795
     25 C           2.1662   -0.3681   29.9832 C.3     1  UNL1        0.0264
     26 C           3.2295   -0.7961   30.9509 C.3     1  UNL1        0.0729
     27 N           4.3943    0.1060   31.2326 N.3     1  UNL1       -0.2689
     28 C           4.4959    1.4361   30.5467 C.3     1  UNL1        0.0729
     29 C           3.4327    1.8640   29.5790 C.3     1  UNL1        0.0264
     30 C           5.4575   -0.3220   32.2003 C.3     1  UNL1        0.0993
     31 C           6.3375   -1.4933   31.8780 C.ar    1  UNL1       -0.0018
     32 C           7.6104   -1.2866   31.1119 C.ar    1  UNL1        0.0179
     33 C           8.4904   -2.4579   30.7897 C.ar    1  UNL1        0.1000
     34 N           8.0974   -3.8358   31.2335 N.ar    1  UNL1       -0.2296
     35 C           6.8244   -4.0424   31.9996 C.ar    1  UNL1        0.1251
     36 N           6.4315   -5.4203   32.4433 N.pl3   1  UNL1       -0.3426
     37 C           5.9444   -2.8712   32.3218 C.ar    1  UNL1        0.0310
     38 H           7.0091   -6.1890   32.2318 H       1  UNL1        0.1437
     39 H           5.5960   -5.5560   32.9461 H       1  UNL1        0.1437
@<TRIPOS>BOND
     1    21    22    1
     2    22    23    1
     3    22    20    1
     4    20     9    1
     5     9    10   ar
     6    10    11    2
     7    10    12   ar
     8    12     1    1
     9     1     2    1
    10     2     3    1
    11     3     4    1
    12     4     5   am
    13     5     6    2
    14     5    24    1
    15    24    25    1
    16    25    26    1
    17    26    27    1
    18    27    30    1
    19    30    31    1
    20    31    32   ar
    21    32    33   ar
    22    33    34   ar
    23    34    35   ar
    24    35    36    1
    25    35    37   ar
    26    27    28    1
    27    28    29    1
    28     4     7    1
    29     7     8    1
    30    12    13   ar
    31    13    14   ar
    32    14    15   ar
    33    15    16   ar
    34    16    17    1
    35    16    18   ar
    36    18    19   ar
    37    19     9   ar
    38     8     1    1
    39    19    13   ar
    40    29    24    1
    41    37    31   ar
    42    36    38    1
    43    36    39    1
@<TRIPOS>MOLECULE
*****
 39 43 0 0 0
SMALL
GASTEIGER

@<TRIPOS>ATOM
      1 C           2.6614    0.8705   19.2618 C.3     1  UNL1        0.0933
      2 C           3.3506    0.3741   20.4983 C.3     1  UNL1        0.0442
      3 C           4.4871   -0.5982   20.3844 C.3     1  UNL1        0.0953
      4 N           4.9344   -1.0742   19.0341 N.am    1  UNL1       -0.2794
      5 C           6.0709   -2.0465   18.9203 C.2     1  UNL1        0.2252
      6 O           6.5183   -2.5225   17.5700 O.2     1  UNL1       -0.2749
      7 C           4.2453   -0.5778   17.7977 C.3     1  UNL1        0.0953
      8 C           3.1088    0.3945   17.9116 C.3     1  UNL1        0.0442
      9 N          -0.6309    2.8214   19.9097 N.ar    1  UNL1       -0.2799
     10 C           0.1983    1.5766   20.0232 C.ar    1  UNL1        0.3315
     11 O          -0.2247    0.2913   20.6705 O.2     1  UNL1       -0.2463
     12 N           1.5249    1.8429   19.3757 N.ar    1  UNL1       -0.2817
     13 C           1.5156    3.2522   18.8621 C.ar    1  UNL1        0.0798
     14 C           2.5481    4.0628   18.1365 C.ar    1  UNL1        0.0211
     15 C           2.2483    5.4783   17.7409 C.ar    1  UNL1        0.0312
     16 C           0.9159    6.0831   18.0710 C.ar    1  UNL1        0.1417
     17 F           0.6161    7.4986   17.6754 F       1  UNL1       -0.2041
     18 C          -0.1167    5.2724   18.7966 C.ar    1  UNL1        0.0484
     19 C           0.1832    3.8569   19.1921 C.ar    1  UNL1        0.0819
     20 C          -2.0288    2.9994   20.4237 C.3     1  UNL1        0.1105
     21 C          -3.3912    4.7650   21.7565 C.3     1  UNL1        0.0020
     22 C          -2.2709    3.7700   21.6875 C.3     1  UNL1        0.0228
     23 C          -1.3925    3.5456   22.8827 C.3     1  UNL1        0.0020
     24 C           6.7600   -2.5428   20.1567 C.3     1  UNL1        0.0795
     25 C           6.0827   -3.5477   21.0407 C.3     1  UNL1        0.0264
     26 C           6.7718   -4.0439   22.2773 C.3     1  UNL1        0.0729
     27 N           8.1383   -3.5354   22.6296 N.3     1  UNL1       -0.2689
     28 C           8.8156   -2.5305   21.7456 C.3     1  UNL1        0.0729
     29 C           8.1264   -2.0343   20.5092 C.3     1  UNL1        0.0264
     30 C           8.8274   -4.0316   23.8661 C.3     1  UNL1        0.0993
     31 C           8.2443   -5.1754   24.6418 C.ar    1  UNL1       -0.0018
     32 C           8.5847   -6.5872   24.2663 C.ar    1  UNL1        0.0179
     33 C           8.0017   -7.7310   25.0420 C.ar    1  UNL1        0.1000
     34 N           7.0783   -7.4631   26.1933 N.ar    1  UNL1       -0.2296
     35 C           6.7379   -6.0513   26.5688 C.ar    1  UNL1        0.1251
     36 N           5.8144   -5.7834   27.7201 N.pl3   1  UNL1       -0.3426
     37 C           7.3209   -4.9075   25.7931 C.ar    1  UNL1        0.0310
     38 H           5.4318   -6.5342   28.2292 H       1  UNL1        0.1437
     39 H           5.5910   -4.8568   27.9666 H       1  UNL1        0.1437
@<TRIPOS>BOND
     1    21    22    1
     2    22    23    1
     3    22    20    1
     4    20     9    1
     5     9    10   ar
     6    10    11    2
     7    10    12   ar
     8    12     1    1
     9     1     2    1
    10     2     3    1
    11     3     4    1
    12     4     5   am
    13     5     6    2
    14     5    24    1
    15    24    25    1
    16    25    26    1
    17    26    27    1
    18    27    30    1
    19    30    31    1
    20    31    32   ar
    21    32    33   ar
    22    33    34   ar
    23    34    35   ar
    24    35    36    1
    25    35    37   ar
    26    27    28    1
    27    28    29    1
    28     4     7    1
    29     7     8    1
    30    12    13   ar
    31    13    14   ar
    32    14    15   ar
    33    15    16   ar
    34    16    17    1
    35    16    18   ar
    36    18    19   ar
    37    19     9   ar
    38     8     1    1
    39    19    13   ar
    40    29    24    1
    41    37    31   ar
    42    36    38    1
    43    36    39    1
@<TRIPOS>MOLECULE
*****
 39 43 0 0 0
SMALL
GASTEIGER

@<TRIPOS>ATOM
      1 C           1.3777    1.1506   19.8402 C.3     1  UNL1        0.0933
      2 C           0.3131    1.3483   20.8783 C.3     1  UNL1        0.0442
      3 C          -0.7833    2.3458   20.6477 C.3     1  UNL1        0.0953
      4 N          -0.8150    3.1456   19.3791 N.am    1  UNL1       -0.2794
      5 C          -1.9113    4.1430   19.1486 C.2     1  UNL1        0.2252
      6 O          -1.9430    4.9428   17.8800 O.2     1  UNL1       -0.2749
      7 C           0.2496    2.9479   18.3411 C.3     1  UNL1        0.0953
      8 C           1.3460    1.9504   18.5717 C.3     1  UNL1        0.0442
      9 N           4.2666   -1.4369   19.6850 N.ar    1  UNL1       -0.2799
     10 C           3.2892   -0.5224   19.0081 C.ar    1  UNL1        0.3315
     11 O           3.1512   -0.3190   17.5283 O.2     1  UNL1       -0.2463
     12 N           2.4741    0.1532   20.0707 N.ar    1  UNL1       -0.2817
     13 C           2.9476   -0.3439   21.4044 C.ar    1  UNL1        0.0798
     14 C           2.5132   -0.0286   22.8050 C.ar    1  UNL1        0.0211
     15 C           3.1866   -0.6961   23.9673 C.ar    1  UNL1        0.0312
     16 C           4.2945   -1.6788   23.7289 C.ar    1  UNL1        0.1417
     17 F           4.9680   -2.3463   24.8913 F       1  UNL1       -0.2041
     18 C           4.7290   -1.9941   22.3283 C.ar    1  UNL1        0.0484
     19 C           4.0555   -1.3266   21.1660 C.ar    1  UNL1        0.0819
     20 C           5.2777   -2.3087   19.0011 C.3     1  UNL1        0.1105
     21 C           6.5640   -4.2179   20.2054 C.3     1  UNL1        0.0020
     22 C           5.4001   -3.7547   19.3803 C.3     1  UNL1        0.0228
     23 C           4.3585   -4.7378   18.9344 C.3     1  UNL1        0.0020
     24 C          -2.9758    4.3406   20.1867 C.3     1  UNL1        0.0795
     25 C          -4.1041    3.3588   20.3003 C.3     1  UNL1        0.0264
     26 C          -5.1687    3.5565   21.3385 C.3     1  UNL1        0.0729
     27 N          -5.1050    4.7360   22.2630 N.3     1  UNL1       -0.2689
     28 C          -3.9767    5.7178   22.1493 C.3     1  UNL1        0.0729
     29 C          -2.9121    5.5202   21.1112 C.3     1  UNL1        0.0264
     30 C          -6.1695    4.9336   23.3010 C.3     1  UNL1        0.0993
     31 C          -5.8028    4.9635   24.7552 C.ar    1  UNL1       -0.0018
     32 C          -4.6689    4.1213   25.2602 C.ar    1  UNL1        0.0179
     33 C          -4.3022    4.1513   26.7144 C.ar    1  UNL1        0.1000
     34 N          -5.0694    5.0233   27.6635 N.ar    1  UNL1       -0.2296
     35 C          -6.2033    5.8655   27.1585 C.ar    1  UNL1        0.1251
     36 N          -6.9704    6.7375   28.1077 N.pl3   1  UNL1       -0.3426
     37 C          -6.5700    5.8356   25.7043 C.ar    1  UNL1        0.0310
     38 H          -6.7297    6.7571   29.0621 H       1  UNL1        0.1437
     39 H          -7.7146    7.2903   27.7763 H       1  UNL1        0.1437
@<TRIPOS>BOND
     1    21    22    1
     2    22    23    1
     3    22    20    1
     4    20     9    1
     5     9    10   ar
     6    10    11    2
     7    10    12   ar
     8    12     1    1
     9     1     2    1
    10     2     3    1
    11     3     4    1
    12     4     5   am
    13     5     6    2
    14     5    24    1
    15    24    25    1
    16    25    26    1
    17    26    27    1
    18    27    30    1
    19    30    31    1
    20    31    32   ar
    21    32    33   ar
    22    33    34   ar
    23    34    35   ar
    24    35    36    1
    25    35    37   ar
    26    27    28    1
    27    28    29    1
    28     4     7    1
    29     7     8    1
    30    12    13   ar
    31    13    14   ar
    32    14    15   ar
    33    15    16   ar
    34    16    17    1
    35    16    18   ar
    36    18    19   ar
    37    19     9   ar
    38     8     1    1
    39    19    13   ar
    40    29    24    1
    41    37    31   ar
    42    36    38    1
    43    36    39    1
@<TRIPOS>MOLECULE
*****
 39 43 0 0 0
SMALL
GASTEIGER

@<TRIPOS>ATOM
      1 C           6.4002   -2.8869   26.9570 C.3     1  UNL1        0.0933
      2 C           6.3345   -1.7754   27.9622 C.3     1  UNL1        0.0442
      3 C           6.4176   -2.0837   29.4278 C.3     1  UNL1        0.0953
      4 N           6.5664   -3.5035   29.8883 N.am    1  UNL1       -0.2794
      5 C           6.6495   -3.8118   31.3539 C.2     1  UNL1        0.2252
      6 O           6.7983   -5.2316   31.8144 O.2     1  UNL1       -0.2749
      7 C           6.6321   -4.6149   28.8831 C.3     1  UNL1        0.0953
      8 C           6.5491   -4.3066   27.4175 C.3     1  UNL1        0.0442
      9 N           6.8543   -2.4337   23.1290 N.ar    1  UNL1       -0.2799
     10 C           7.3444   -2.9308   24.4567 C.ar    1  UNL1        0.3315
     11 O           8.6352   -3.6532   24.7059 O.2     1  UNL1       -0.2463
     12 N           6.3172   -2.5785   25.4914 N.ar    1  UNL1       -0.2817
     13 C           5.1922   -1.8638   24.8032 C.ar    1  UNL1        0.0798
     14 C           3.9084   -1.2829   25.3174 C.ar    1  UNL1        0.0211
     15 C           2.9566   -0.6125   24.3716 C.ar    1  UNL1        0.0312
     16 C           3.2886   -0.5230   22.9115 C.ar    1  UNL1        0.1417
     17 F           2.3368    0.1474   21.9656 F       1  UNL1       -0.2041
     18 C           4.5724   -1.1039   22.3973 C.ar    1  UNL1        0.0484
     19 C           5.5242   -1.7743   23.3431 C.ar    1  UNL1        0.0819
     20 C           7.5689   -2.5719   21.8174 C.3     1  UNL1        0.1105
     21 C           8.4231   -4.8936   21.0239 C.3     1  UNL1        0.0020
     22 C           7.3865   -3.8100   20.9906 C.3     1  UNL1        0.0228
     23 C           6.1673   -3.9646   20.1304 C.3     1  UNL1        0.0020
     24 C           6.5837   -2.7004   32.3590 C.3     1  UNL1        0.0795
     25 C           5.2762   -2.3498   33.0051 C.3     1  UNL1        0.0264
     26 C           5.2105   -1.2382   34.0102 C.3     1  UNL1        0.0729
     27 N           6.4524   -0.4772   34.3692 N.3     1  UNL1       -0.2689
     28 C           7.7599   -0.8278   33.7230 C.3     1  UNL1        0.0729
     29 C           7.8255   -1.9393   32.7180 C.3     1  UNL1        0.0264
     30 C           6.3866    0.6342   35.3742 C.3     1  UNL1        0.0993
     31 C           5.0588    1.0905   35.9021 C.ar    1  UNL1       -0.0018
     32 C           4.2395    2.0751   35.1215 C.ar    1  UNL1        0.0179
     33 C           2.9117    2.5314   35.6494 C.ar    1  UNL1        0.1000
     34 N           2.4032    2.0032   36.9579 N.ar    1  UNL1       -0.2296
     35 C           3.2225    1.0186   37.7386 C.ar    1  UNL1        0.1251
     36 N           2.7138    0.4904   39.0471 N.pl3   1  UNL1       -0.3426
     37 C           4.5503    0.5623   37.2107 C.ar    1  UNL1        0.0310
     38 H           1.8423    0.7899   39.3935 H       1  UNL1        0.1437
     39 H           3.2515   -0.1558   39.5595 H       1  UNL1        0.1437
@<TRIPOS>BOND
     1    21    22    1
     2    22    23    1
     3    22    20    1
     4    20     9    1
     5     9    10   ar
     6    10    11    2
     7    10    12   ar
     8    12     1    1
     9     1     2    1
    10     2     3    1
    11     3     4    1
    12     4     5   am
    13     5     6    2
    14     5    24    1
    15    24    25    1
    16    25    26    1
    17    26    27    1
    18    27    30    1
    19    30    31    1
    20    31    32   ar
    21    32    33   ar
    22    33    34   ar
    23    34    35   ar
    24    35    36    1
    25    35    37   ar
    26    27    28    1
    27    28    29    1
    28     4     7    1
    29     7     8    1
    30    12    13   ar
    31    13    14   ar
    32    14    15   ar
    33    15    16   ar
    34    16    17    1
    35    16    18   ar
    36    18    19   ar
    37    19     9   ar
    38     8     1    1
    39    19    13   ar
    40    29    24    1
    41    37    31   ar
    42    36    38    1
    43    36    39    1
@<TRIPOS>MOLECULE
*****
 39 43 0 0 0
SMALL
GASTEIGER

@<TRIPOS>ATOM
      1 C           3.2217    0.0224   22.4800 C.3     1  UNL1        0.0933
      2 C           4.0418   -0.3106   23.6912 C.3     1  UNL1        0.0442
      3 C           3.5400    0.0479   25.0585 C.3     1  UNL1        0.0953
      4 N           2.2180    0.7394   25.2148 N.am    1  UNL1       -0.2794
      5 C           1.7162    1.0979   26.5821 C.2     1  UNL1        0.2252
      6 O           0.3942    1.7893   26.7384 O.2     1  UNL1       -0.2749
      7 C           1.3980    1.0723   24.0037 C.3     1  UNL1        0.0953
      8 C           1.8998    0.7137   22.6364 C.3     1  UNL1        0.0442
      9 N           4.5320   -0.1601   18.8311 N.ar    1  UNL1       -0.2799
     10 C           4.0770    0.6307   20.0217 C.ar    1  UNL1        0.3315
     11 O           3.9906    2.1258   20.1065 O.2     1  UNL1       -0.2463
     12 N           3.7236   -0.3361   21.1127 N.ar    1  UNL1       -0.2817
     13 C           3.9601   -1.7245   20.5964 C.ar    1  UNL1        0.0798
     14 C           3.7851   -3.0736   21.2280 C.ar    1  UNL1        0.0211
     15 C           4.1097   -4.3140   20.4496 C.ar    1  UNL1        0.0312
     16 C           4.6093   -4.2052   19.0394 C.ar    1  UNL1        0.1417
     17 F           4.9340   -5.4457   18.2609 F       1  UNL1       -0.2041
     18 C           4.7844   -2.8560   18.4077 C.ar    1  UNL1        0.0484
     19 C           4.4597   -1.6157   19.1862 C.ar    1  UNL1        0.0819
     20 C           4.9805    0.4054   17.5161 C.3     1  UNL1        0.1105
     21 C           7.5541    0.6476   17.7759 C.3     1  UNL1        0.0020
     22 C           6.2197    1.2475   17.4453 C.3     1  UNL1        0.0228
     23 C           6.1245    2.6897   17.0439 C.3     1  UNL1        0.0020
     24 C           2.5363    0.7649   27.7931 C.3     1  UNL1        0.0795
     25 C           3.6618    1.6657   28.2076 C.3     1  UNL1        0.0264
     26 C           4.4819    1.3327   29.4187 C.3     1  UNL1        0.0729
     27 N           4.1765    0.0989   30.2152 N.3     1  UNL1       -0.2689
     28 C           3.0510   -0.8019   29.8007 C.3     1  UNL1        0.0729
     29 C           2.2309   -0.4689   28.5897 C.3     1  UNL1        0.0264
     30 C           4.9966   -0.2340   31.4262 C.3     1  UNL1        0.0993
     31 C           5.9946   -1.3526   31.3718 C.ar    1  UNL1       -0.0018
     32 C           7.3152   -1.1470   30.6909 C.ar    1  UNL1        0.0179
     33 C           8.3131   -2.2655   30.6366 C.ar    1  UNL1        0.1000
     34 N           7.9905   -3.5896   31.2632 N.ar    1  UNL1       -0.2296
     35 C           6.6699   -3.7951   31.9442 C.ar    1  UNL1        0.1251
     36 N           6.3473   -5.1192   32.5708 N.pl3   1  UNL1       -0.3426
     37 C           5.6719   -2.6766   31.9985 C.ar    1  UNL1        0.0310
     38 H           7.0023   -5.8533   32.5351 H       1  UNL1        0.1437
     39 H           5.4805   -5.2542   33.0177 H       1  UNL1        0.1437
@<TRIPOS>BOND
     1    21    22    1
     2    22    23    1
     3    22    20    1
     4    20     9    1
     5     9    10   ar
     6    10    11    2
     7    10    12   ar
     8    12     1    1
     9     1     2    1
    10     2     3    1
    11     3     4    1
    12     4     5   am
    13     5     6    2
    14     5    24    1
    15    24    25    1
    16    25    26    1
    17    26    27    1
    18    27    30    1
    19    30    31    1
    20    31    32   ar
    21    32    33   ar
    22    33    34   ar
    23    34    35   ar
    24    35    36    1
    25    35    37   ar
    26    27    28    1
    27    28    29    1
    28     4     7    1
    29     7     8    1
    30    12    13   ar
    31    13    14   ar
    32    14    15   ar
    33    15    16   ar
    34    16    17    1
    35    16    18   ar
    36    18    19   ar
    37    19     9   ar
    38     8     1    1
    39    19    13   ar
    40    29    24    1
    41    37    31   ar
    42    36    38    1
    43    36    39    1
@<TRIPOS>MOLECULE
*****
 39 43 0 0 0
SMALL
GASTEIGER

@<TRIPOS>ATOM
      1 C           6.4329   -2.6783   21.0087 C.3     1  UNL1        0.0933
      2 C           6.2635   -2.3579   22.4644 C.3     1  UNL1        0.0442
      3 C           6.8623   -3.2572   23.5049 C.3     1  UNL1        0.0953
      4 N           7.6305   -4.4769   23.0899 N.am    1  UNL1       -0.2794
      5 C           8.2292   -5.3761   24.1305 C.2     1  UNL1        0.2252
      6 O           8.9974   -6.5958   23.7155 O.2     1  UNL1       -0.2749
      7 C           7.7999   -4.7973   21.6344 C.3     1  UNL1        0.0953
      8 C           7.2011   -3.8980   20.5938 C.3     1  UNL1        0.0442
      9 N           5.5704   -0.3736   18.0072 N.ar    1  UNL1       -0.2799
     10 C           6.5464   -1.2155   18.7744 C.ar    1  UNL1        0.3315
     11 O           7.9825   -1.4522   18.4116 O.2     1  UNL1       -0.2463
     12 N           5.8342   -1.7790   19.9682 N.ar    1  UNL1       -0.2817
     13 C           4.4180   -1.2855   19.9387 C.ar    1  UNL1        0.0798
     14 C           3.2558   -1.5148   20.8589 C.ar    1  UNL1        0.0211
     15 C           1.9307   -0.8755   20.5671 C.ar    1  UNL1        0.0312
     16 C           1.7677   -0.0068   19.3551 C.ar    1  UNL1        0.1417
     17 F           0.4424    0.6325   19.0633 F       1  UNL1       -0.2041
     18 C           2.9298    0.2225   18.4349 C.ar    1  UNL1        0.0484
     19 C           4.2550   -0.4168   18.7267 C.ar    1  UNL1        0.0819
     20 C           5.8591    0.3794   16.7424 C.3     1  UNL1        0.1105
     21 C           5.8582    2.8875   17.4204 C.3     1  UNL1        0.0020
     22 C           6.5507    1.7091   16.8023 C.3     1  UNL1        0.0228
     23 C           7.9348    1.8605   16.2442 C.3     1  UNL1        0.0020
     24 C           8.0598   -5.0556   25.5860 C.3     1  UNL1        0.0795
     25 C           9.0545   -4.1736   26.2806 C.3     1  UNL1        0.0264
     26 C           8.8850   -3.8531   27.7362 C.3     1  UNL1        0.0729
     27 N           7.7207   -4.4147   28.4971 N.3     1  UNL1       -0.2689
     28 C           6.7260   -5.2968   27.8026 C.3     1  UNL1        0.0729
     29 C           6.8955   -5.6172   26.3471 C.3     1  UNL1        0.0264
     30 C           7.5512   -4.0942   29.9526 C.3     1  UNL1        0.0993
     31 C           6.5257   -3.0885   30.3848 C.ar    1  UNL1       -0.0018
     32 C           6.0266   -2.0611   29.4125 C.ar    1  UNL1        0.0179
     33 C           5.0010   -1.0554   29.8446 C.ar    1  UNL1        0.1000
     34 N           4.4745   -1.0771   31.2490 N.ar    1  UNL1       -0.2296
     35 C           4.9736   -2.1045   32.2213 C.ar    1  UNL1        0.1251
     36 N           4.4471   -2.1262   33.6256 N.pl3   1  UNL1       -0.3426
     37 C           5.9992   -3.1103   31.7892 C.ar    1  UNL1        0.0310
     38 H           3.7740   -1.4661   33.9092 H       1  UNL1        0.1437
     39 H           4.7747   -2.8005   34.2638 H       1  UNL1        0.1437
@<TRIPOS>BOND
     1    21    22    1
     2    22    23    1
     3    22    20    1
     4    20     9    1
     5     9    10   ar
     6    10    11    2
     7    10    12   ar
     8    12     1    1
     9     1     2    1
    10     2     3    1
    11     3     4    1
    12     4     5   am
    13     5     6    2
    14     5    24    1
    15    24    25    1
    16    25    26    1
    17    26    27    1
    18    27    30    1
    19    30    31    1
    20    31    32   ar
    21    32    33   ar
    22    33    34   ar
    23    34    35   ar
    24    35    36    1
    25    35    37   ar
    26    27    28    1
    27    28    29    1
    28     4     7    1
    29     7     8    1
    30    12    13   ar
    31    13    14   ar
    32    14    15   ar
    33    15    16   ar
    34    16    17    1
    35    16    18   ar
    36    18    19   ar
    37    19     9   ar
    38     8     1    1
    39    19    13   ar
    40    29    24    1
    41    37    31   ar
    42    36    38    1
    43    36    39    1
