@<TRIPOS>MOLECULE
*****
 29 32 0 0 0
SMALL
GASTEIGER

@<TRIPOS>ATOM
      1 C          -5.5778  -19.4799   21.0376 C.ar    1  UNL1        0.1534
      2 C          -6.3799  -18.3484   21.6091 C.ar    1  UNL1        0.0351
      3 C          -7.8506  -18.2556   21.3298 C.ar    1  UNL1        0.0722
      4 CL         -8.6527  -17.1241   21.9013 Cl      1  UNL1       -0.0809
      5 C          -8.5195  -19.2942   20.4790 C.ar    1  UNL1        0.0577
      6 C          -7.7176  -20.4256   19.9075 C.ar    1  UNL1        0.0462
      7 C          -6.2467  -20.5185   20.1868 C.ar    1  UNL1        0.1602
      8 F          -5.4448  -21.6500   19.6153 F       1  UNL1       -0.2027
      9 O          -3.8216  -19.4698   19.8479 O.2     1  UNL1       -0.1498
     10 S          -4.1071  -19.5727   21.3170 S.O2    1  UNL1        0.0772
     11 O          -4.3925  -19.6756   22.7859 O.2     1  UNL1       -0.1498
     12 N          -2.6362  -19.6654   21.5962 N.pl3   1  UNL1       -0.1936
     13 H          -2.2868  -20.3946   22.1579 H       1  UNL1        0.1758
     14 C          -1.6977  -18.6473   21.0197 C.ar    1  UNL1        0.1786
     15 N          -0.5126  -18.9353   20.1464 N.ar    1  UNL1       -0.2214
     16 C           0.1381  -17.6283   19.8021 C.ar    1  UNL1        0.1079
     17 C          -0.6448  -16.5326   20.4627 C.ar    1  UNL1        0.0588
     18 S          -1.7794  -17.1623   21.2151 S.2     1  UNL1       -0.0497
     19 N          -9.9904  -19.2013   20.1996 N.pl3   1  UNL1       -0.3309
     20 H         -10.3087  -18.7606   19.3789 H       1  UNL1        0.1469
     21 C         -10.9762  -19.7799   21.1709 C.3     1  UNL1        0.1018
     22 C         -11.4588  -18.9578   22.3290 C.3     1  UNL1        0.0634
     23 C         -11.9458  -18.3107   21.0665 C.3     1  UNL1        0.0178
     24 C         -12.7294  -17.0888   21.4444 C.3     1  UNL1        0.0187
     25 C         -12.7266  -16.9806   22.9405 C.3     1  UNL1        0.0721
     26 N         -11.9413  -18.1358   23.4873 N.3     1  UNL1       -0.2736
     27 C         -11.4543  -18.7829   24.7498 C.3     1  UNL1        0.0721
     28 C         -10.6707  -20.0049   24.3719 C.3     1  UNL1        0.0187
     29 C         -10.6735  -20.1130   22.8758 C.3     1  UNL1        0.0178
@<TRIPOS>BOND
     1     9    10    2
     2    10    11    2
     3    10    12    1
     4    12    14    1
     5    14    15   ar
     6    15    16   ar
     7    16    17   ar
     8    17    18   ar
     9    10     1    1
    10     1     2   ar
    11     2     3   ar
    12     3     4    1
    13     3     5   ar
    14     5    19    1
    15    19    21    1
    16    21    22    1
    17    22    23    1
    18    23    24    1
    19    24    25    1
    20    25    26    1
    21    26    27    1
    22    27    28    1
    23    28    29    1
    24     5     6   ar
    25     6     7   ar
    26     7     8    1
    27    18    14   ar
    28     7     1   ar
    29    26    22    1
    30    29    22    1
    31    12    13    1
    32    19    20    1
@<TRIPOS>MOLECULE
*****
 29 32 0 0 0
SMALL
GASTEIGER

@<TRIPOS>ATOM
      1 C          -5.7401  -19.5629   20.8324 C.ar    1  UNL1        0.1534
      2 C          -6.3955  -20.3998   19.7740 C.ar    1  UNL1        0.0351
      3 C          -7.8629  -20.2505   19.5016 C.ar    1  UNL1        0.0722
      4 CL         -8.5182  -21.0874   18.4431 Cl      1  UNL1       -0.0809
      5 C          -8.6751  -19.2644   20.2875 C.ar    1  UNL1        0.0577
      6 C          -8.0199  -18.4275   21.3460 C.ar    1  UNL1        0.0462
      7 C          -6.5524  -18.5767   21.6184 C.ar    1  UNL1        0.1602
      8 F          -5.8972  -17.7399   22.6768 F       1  UNL1       -0.2027
      9 O          -3.9857  -19.5623   19.6401 O.2     1  UNL1       -0.1498
     10 S          -4.2727  -19.7122   21.1048 S.O2    1  UNL1        0.0772
     11 O          -4.5597  -19.8621   22.5693 O.2     1  UNL1       -0.1498
     12 N          -2.8052  -19.8615   21.3770 N.pl3   1  UNL1       -0.1936
     13 H          -2.4721  -20.6520   21.8601 H       1  UNL1        0.1758
     14 C          -1.8452  -18.8065   20.9131 C.ar    1  UNL1        0.1786
     15 N          -0.6035  -19.0385   20.1043 N.ar    1  UNL1       -0.2214
     16 C           0.0509  -17.7096   19.8679 C.ar    1  UNL1        0.1079
     17 C          -0.7865  -16.6562   20.5307 C.ar    1  UNL1        0.0588
     18 S          -1.9583  -17.3342   21.1767 S.2     1  UNL1       -0.0497
     19 N         -10.1426  -19.1151   20.0151 N.pl3   1  UNL1       -0.3309
     20 H         -10.4476  -18.6805   19.1861 H       1  UNL1        0.1469
     21 C         -11.1453  -19.6280   21.0058 C.3     1  UNL1        0.1018
     22 C         -11.5365  -18.7838   22.1824 C.3     1  UNL1        0.0634
     23 C         -10.8847  -20.0306   22.7027 C.3     1  UNL1        0.0178
     24 C         -10.8731  -19.9569   24.2009 C.3     1  UNL1        0.0187
     25 C         -11.5178  -18.6646   24.6064 C.3     1  UNL1        0.0721
     26 N         -11.9278  -17.9396   23.3589 N.3     1  UNL1       -0.2736
     27 C         -12.5796  -16.6929   22.8386 C.3     1  UNL1        0.0721
     28 C         -12.5912  -16.7665   21.3404 C.3     1  UNL1        0.0187
     29 C         -11.9466  -18.0589   20.9349 C.3     1  UNL1        0.0178
@<TRIPOS>BOND
     1     9    10    2
     2    10    11    2
     3    10    12    1
     4    12    14    1
     5    14    15   ar
     6    15    16   ar
     7    16    17   ar
     8    17    18   ar
     9    10     1    1
    10     1     2   ar
    11     2     3   ar
    12     3     4    1
    13     3     5   ar
    14     5    19    1
    15    19    21    1
    16    21    22    1
    17    22    23    1
    18    23    24    1
    19    24    25    1
    20    25    26    1
    21    26    27    1
    22    27    28    1
    23    28    29    1
    24     5     6   ar
    25     6     7   ar
    26     7     8    1
    27    18    14   ar
    28     7     1   ar
    29    26    22    1
    30    29    22    1
    31    12    13    1
    32    19    20    1
@<TRIPOS>MOLECULE
*****
 29 32 0 0 0
SMALL
GASTEIGER

@<TRIPOS>ATOM
      1 C          -5.7397  -18.7030   22.1367 C.ar    1  UNL1        0.1534
      2 C          -7.0040  -19.4683   21.8796 C.ar    1  UNL1        0.0351
      3 C          -8.3087  -18.9655   22.4226 C.ar    1  UNL1        0.0722
      4 CL         -9.5729  -19.7308   22.1655 Cl      1  UNL1       -0.0809
      5 C          -8.3492  -17.6974   23.2228 C.ar    1  UNL1        0.0577
      6 C          -7.0850  -16.9321   23.4799 C.ar    1  UNL1        0.0462
      7 C          -5.7803  -17.4349   22.9369 C.ar    1  UNL1        0.1602
      8 F          -4.5161  -16.6696   23.1940 F       1  UNL1       -0.2027
      9 O          -4.0062  -19.5890   22.9790 O.2     1  UNL1       -0.1498
     10 S          -4.4351  -19.2058   21.5936 S.O2    1  UNL1        0.0772
     11 O          -4.8640  -18.8227   20.2083 O.2     1  UNL1       -0.1498
     12 N          -3.1304  -19.7087   21.0506 N.pl3   1  UNL1       -0.1936
     13 H          -2.9888  -20.6749   20.9259 H       1  UNL1        0.1758
     14 C          -2.0414  -18.7394   20.6977 C.ar    1  UNL1        0.1786
     15 N          -0.7559  -19.0732   20.0006 N.ar    1  UNL1       -0.2214
     16 C           0.0334  -17.8062   19.8520 C.ar    1  UNL1        0.1079
     17 C          -0.7645  -16.6895   20.4572 C.ar    1  UNL1        0.0588
     18 S          -2.0468  -17.2662   20.9799 S.2     1  UNL1       -0.0497
     19 N          -9.6540  -17.1947   23.7658 N.pl3   1  UNL1       -0.3309
     20 H          -9.9923  -17.5333   24.6261 H       1  UNL1        0.1469
     21 C         -10.4432  -16.1759   22.9982 C.3     1  UNL1        0.1018
     22 C         -11.4870  -16.6200   22.0166 C.3     1  UNL1        0.0634
     23 C         -10.4963  -15.7642   21.2843 C.3     1  UNL1        0.0178
     24 C         -10.9279  -15.6794   19.8503 C.3     1  UNL1        0.0187
     25 C         -12.1852  -16.4827   19.6963 C.3     1  UNL1        0.0721
     26 N         -12.5308  -17.0641   21.0352 N.3     1  UNL1       -0.2736
     27 C         -13.5214  -17.9199   21.7674 C.3     1  UNL1        0.0721
     28 C         -13.0899  -18.0047   23.2016 C.3     1  UNL1        0.0187
     29 C         -11.8325  -17.2013   23.3555 C.3     1  UNL1        0.0178
@<TRIPOS>BOND
     1     9    10    2
     2    10    11    2
     3    10    12    1
     4    12    14    1
     5    14    15   ar
     6    15    16   ar
     7    16    17   ar
     8    17    18   ar
     9    10     1    1
    10     1     2   ar
    11     2     3   ar
    12     3     4    1
    13     3     5   ar
    14     5    19    1
    15    19    21    1
    16    21    22    1
    17    22    23    1
    18    23    24    1
    19    24    25    1
    20    25    26    1
    21    26    27    1
    22    27    28    1
    23    28    29    1
    24     5     6   ar
    25     6     7   ar
    26     7     8    1
    27    18    14   ar
    28     7     1   ar
    29    26    22    1
    30    29    22    1
    31    12    13    1
    32    19    20    1
@<TRIPOS>MOLECULE
*****
 29 32 0 0 0
SMALL
GASTEIGER

@<TRIPOS>ATOM
      1 C          -5.0570  -17.1678   23.1628 C.ar    1  UNL1        0.1534
      2 C          -5.3873  -16.2225   24.2797 C.ar    1  UNL1        0.0351
      3 C          -6.8181  -15.8887   24.5813 C.ar    1  UNL1        0.0722
      4 CL         -7.1485  -14.9433   25.6982 Cl      1  UNL1       -0.0809
      5 C          -7.9188  -16.5001   23.7660 C.ar    1  UNL1        0.0577
      6 C          -7.5886  -17.4453   22.6492 C.ar    1  UNL1        0.0462
      7 C          -6.1577  -17.7792   22.3476 C.ar    1  UNL1        0.1602
      8 F          -5.8274  -18.7245   21.2307 F       1  UNL1       -0.2027
      9 O          -3.8590  -18.9116   23.3172 O.2     1  UNL1       -0.1498
     10 S          -3.6261  -17.5016   22.8613 S.O2    1  UNL1        0.0772
     11 O          -3.3931  -16.0918   22.4055 O.2     1  UNL1       -0.1498
     12 N          -2.1951  -17.8355   22.5598 N.pl3   1  UNL1       -0.1936
     13 H          -1.5665  -18.0171   23.2954 H       1  UNL1        0.1758
     14 C          -1.7219  -17.8928   21.1376 C.ar    1  UNL1        0.1786
     15 N          -2.5247  -18.3590   19.9594 N.ar    1  UNL1       -0.2214
     16 C          -1.6619  -18.2483   18.7374 C.ar    1  UNL1        0.1079
     17 C          -0.3258  -17.7136   19.1604 C.ar    1  UNL1        0.0588
     18 S          -0.3629  -17.4939   20.6438 S.2     1  UNL1       -0.0497
     19 N          -9.3498  -16.1662   24.0676 N.pl3   1  UNL1       -0.3309
     20 H          -9.6267  -15.2261   24.1611 H       1  UNL1        0.1469
     21 C         -10.3587  -17.2646   24.2269 C.3     1  UNL1        0.1018
     22 C         -10.9509  -17.9205   23.0148 C.3     1  UNL1        0.0634
     23 C         -11.2551  -16.4534   22.9432 C.3     1  UNL1        0.0178
     24 C         -12.0353  -16.2027   21.6868 C.3     1  UNL1        0.0187
     25 C         -12.2133  -17.5148   20.9820 C.3     1  UNL1        0.0721
     26 N         -11.5431  -18.5765   21.8027 N.3     1  UNL1       -0.2736
     27 C         -11.2389  -20.0435   21.8743 C.3     1  UNL1        0.0721
     28 C         -10.4587  -20.2944   23.1307 C.3     1  UNL1        0.0187
     29 C         -10.2807  -18.9822   23.8355 C.3     1  UNL1        0.0178
@<TRIPOS>BOND
     1     9    10    2
     2    10    11    2
     3    10    12    1
     4    12    14    1
     5    14    15   ar
     6    15    16   ar
     7    16    17   ar
     8    17    18   ar
     9    10     1    1
    10     1     2   ar
    11     2     3   ar
    12     3     4    1
    13     3     5   ar
    14     5    19    1
    15    19    21    1
    16    21    22    1
    17    22    23    1
    18    23    24    1
    19    24    25    1
    20    25    26    1
    21    26    27    1
    22    27    28    1
    23    28    29    1
    24     5     6   ar
    25     6     7   ar
    26     7     8    1
    27    18    14   ar
    28     7     1   ar
    29    26    22    1
    30    29    22    1
    31    12    13    1
    32    19    20    1
@<TRIPOS>MOLECULE
*****
 29 32 0 0 0
SMALL
GASTEIGER

@<TRIPOS>ATOM
      1 C          -5.2345  -17.3824   23.0985 C.ar    1  UNL1        0.1534
      2 C          -5.7425  -16.3636   24.0754 C.ar    1  UNL1        0.0351
      3 C          -7.2179  -16.2024   24.2916 C.ar    1  UNL1        0.0722
      4 CL         -7.7260  -15.1836   25.2685 Cl      1  UNL1       -0.0809
      5 C          -8.1856  -17.0598   23.5311 C.ar    1  UNL1        0.0577
      6 C          -7.6776  -18.0786   22.5543 C.ar    1  UNL1        0.0462
      7 C          -6.2021  -18.2398   22.3380 C.ar    1  UNL1        0.1602
      8 F          -5.6942  -19.2585   21.3612 F       1  UNL1       -0.2027
      9 O          -3.8736  -19.0070   23.1911 O.2     1  UNL1       -0.1498
     10 S          -3.7590  -17.5435   22.8824 S.O2    1  UNL1        0.0772
     11 O          -3.6443  -16.0802   22.5736 O.2     1  UNL1       -0.1498
     12 N          -2.2834  -17.7048   22.6662 N.pl3   1  UNL1       -0.1936
     13 H          -1.6705  -17.7085   23.4367 H       1  UNL1        0.1758
     14 C          -1.7416  -17.8605   21.2762 C.ar    1  UNL1        0.1786
     15 N          -0.2982  -18.0338   20.9068 N.ar    1  UNL1       -0.2214
     16 C          -0.2126  -18.1506   19.4137 C.ar    1  UNL1        0.1079
     17 C          -1.6031  -18.0494   18.8604 C.ar    1  UNL1        0.0588
     18 S          -2.5481  -17.8701   20.0115 S.2     1  UNL1       -0.0497
     19 N          -9.6611  -16.8986   23.7473 N.pl3   1  UNL1       -0.3309
     20 H         -10.1101  -17.3956   24.4689 H       1  UNL1        0.1469
     21 C         -10.4526  -15.9800   22.8643 C.3     1  UNL1        0.1018
     22 C         -11.4681  -16.5433   21.9148 C.3     1  UNL1        0.0634
     23 C         -11.7799  -17.0611   23.2876 C.3     1  UNL1        0.0178
     24 C         -12.9881  -17.9443   23.1865 C.3     1  UNL1        0.0187
     25 C         -13.4230  -17.9724   21.7512 C.3     1  UNL1        0.0721
     26 N         -12.4836  -17.1065   20.9652 N.3     1  UNL1       -0.2736
     27 C         -12.1718  -16.5887   19.5924 C.3     1  UNL1        0.0721
     28 C         -10.9635  -15.7054   19.6934 C.3     1  UNL1        0.0187
     29 C         -10.5287  -15.6774   21.1288 C.3     1  UNL1        0.0178
@<TRIPOS>BOND
     1     9    10    2
     2    10    11    2
     3    10    12    1
     4    12    14    1
     5    14    15   ar
     6    15    16   ar
     7    16    17   ar
     8    17    18   ar
     9    10     1    1
    10     1     2   ar
    11     2     3   ar
    12     3     4    1
    13     3     5   ar
    14     5    19    1
    15    19    21    1
    16    21    22    1
    17    22    23    1
    18    23    24    1
    19    24    25    1
    20    25    26    1
    21    26    27    1
    22    27    28    1
    23    28    29    1
    24     5     6   ar
    25     6     7   ar
    26     7     8    1
    27    18    14   ar
    28     7     1   ar
    29    26    22    1
    30    29    22    1
    31    12    13    1
    32    19    20    1
@<TRIPOS>MOLECULE
*****
 29 32 0 0 0
SMALL
GASTEIGER

@<TRIPOS>ATOM
      1 C          -7.7749  -19.1148   20.9695 C.ar    1  UNL1        0.1534
      2 C          -6.7910  -18.6808   19.9236 C.ar    1  UNL1        0.0351
      3 C          -5.3589  -19.1172   20.0141 C.ar    1  UNL1        0.0722
      4 CL         -4.3750  -18.6832   18.9682 Cl      1  UNL1       -0.0809
      5 C          -4.9104  -19.9877   21.1503 C.ar    1  UNL1        0.0577
      6 C          -5.8942  -20.4217   22.1962 C.ar    1  UNL1        0.0462
      7 C          -7.3264  -19.9853   22.1058 C.ar    1  UNL1        0.1602
      8 F          -8.3102  -20.4193   23.1516 F       1  UNL1       -0.2027
      9 O          -8.8373  -17.3450   21.4584 O.2     1  UNL1       -0.1498
     10 S          -9.2071  -18.6783   20.8790 S.O2    1  UNL1        0.0772
     11 O          -9.5769  -20.0114   20.2996 O.2     1  UNL1       -0.1498
     12 N         -10.6393  -18.2416   20.7885 N.pl3   1  UNL1       -0.1936
     13 H         -11.0140  -17.9591   19.9231 H       1  UNL1        0.1758
     14 C         -11.5005  -18.2355   22.0166 C.ar    1  UNL1        0.1786
     15 N         -11.1428  -18.8285   23.3472 N.ar    1  UNL1       -0.2214
     16 C         -12.2919  -18.5948   24.2828 C.ar    1  UNL1        0.1079
     17 C         -13.3596  -17.8574   23.5303 C.ar    1  UNL1        0.0588
     18 S         -12.8705  -17.6353   22.1298 S.2     1  UNL1       -0.0497
     19 N          -3.4781  -20.4242   21.2408 N.pl3   1  UNL1       -0.3309
     20 H          -3.1812  -21.2382   20.7735 H       1  UNL1        0.1469
     21 C          -2.4983  -19.6203   22.0431 C.3     1  UNL1        0.1018
     22 C          -2.1556  -18.2211   21.6248 C.3     1  UNL1        0.0634
     23 C          -3.1139  -18.1392   22.7758 C.3     1  UNL1        0.0178
     24 C          -3.3634  -16.6894   23.0689 C.3     1  UNL1        0.0187
     25 C          -2.5593  -15.8753   22.0989 C.3     1  UNL1        0.0721
     26 N          -1.8128  -16.8220   21.2065 N.3     1  UNL1       -0.2736
     27 C          -0.8545  -16.9040   20.0554 C.3     1  UNL1        0.0721
     28 C          -0.6049  -18.3539   19.7624 C.3     1  UNL1        0.0187
     29 C          -1.4091  -19.1678   20.7323 C.3     1  UNL1        0.0178
@<TRIPOS>BOND
     1     9    10    2
     2    10    11    2
     3    10    12    1
     4    12    14    1
     5    14    15   ar
     6    15    16   ar
     7    16    17   ar
     8    17    18   ar
     9    10     1    1
    10     1     2   ar
    11     2     3   ar
    12     3     4    1
    13     3     5   ar
    14     5    19    1
    15    19    21    1
    16    21    22    1
    17    22    23    1
    18    23    24    1
    19    24    25    1
    20    25    26    1
    21    26    27    1
    22    27    28    1
    23    28    29    1
    24     5     6   ar
    25     6     7   ar
    26     7     8    1
    27    18    14   ar
    28     7     1   ar
    29    26    22    1
    30    29    22    1
    31    12    13    1
    32    19    20    1
@<TRIPOS>MOLECULE
*****
 29 32 0 0 0
SMALL
GASTEIGER

@<TRIPOS>ATOM
      1 C          -8.0885  -16.5269   22.8357 C.ar    1  UNL1        0.1534
      2 C          -7.2152  -15.6794   23.7128 C.ar    1  UNL1        0.0351
      3 C          -5.8016  -16.0966   23.9912 C.ar    1  UNL1        0.0722
      4 CL         -4.9283  -15.2491   24.8684 Cl      1  UNL1       -0.0809
      5 C          -5.2612  -17.3613   23.3926 C.ar    1  UNL1        0.0577
      6 C          -6.1344  -18.2088   22.5155 C.ar    1  UNL1        0.0462
      7 C          -7.5480  -17.7916   22.2371 C.ar    1  UNL1        0.1602
      8 F          -8.4212  -18.6390   21.3600 F       1  UNL1       -0.2027
      9 O          -9.9151  -16.6056   23.9114 O.2     1  UNL1       -0.1498
     10 S          -9.5020  -16.1095   22.5574 S.O2    1  UNL1        0.0772
     11 O          -9.0891  -15.6136   21.2034 O.2     1  UNL1       -0.1498
     12 N         -10.9157  -15.6923   22.2791 N.pl3   1  UNL1       -0.1936
     13 H         -11.1106  -14.7679   22.0019 H       1  UNL1        0.1758
     14 C         -12.0324  -16.6833   22.4231 C.ar    1  UNL1        0.1786
     15 N         -12.8631  -16.9030   23.6526 N.ar    1  UNL1       -0.2214
     16 C         -13.8586  -17.9842   23.3524 C.ar    1  UNL1        0.1079
     17 C         -13.6431  -18.4327   21.9373 C.ar    1  UNL1        0.0588
     18 S         -12.5145  -17.6287   21.3630 S.2     1  UNL1       -0.0497
     19 N          -3.8475  -17.7785   23.6710 N.pl3   1  UNL1       -0.3309
     20 H          -3.3580  -17.3840   24.4286 H       1  UNL1        0.1469
     21 C          -3.1798  -18.7969   22.7953 C.3     1  UNL1        0.1018
     22 C          -2.8212  -18.4499   21.3806 C.3     1  UNL1        0.0634
     23 C          -3.5577  -19.7565   21.3649 C.3     1  UNL1        0.0178
     24 C          -3.6544  -20.2170   19.9406 C.3     1  UNL1        0.0187
     25 C          -2.9775  -19.1950   19.0761 C.3     1  UNL1        0.0721
     26 N          -2.4626  -18.1028   19.9661 N.3     1  UNL1       -0.2736
     27 C          -1.7261  -16.7962   19.9818 C.3     1  UNL1        0.0721
     28 C          -1.6294  -16.3357   21.4062 C.3     1  UNL1        0.0187
     29 C          -2.3063  -17.3578   22.2706 C.3     1  UNL1        0.0178
@<TRIPOS>BOND
     1     9    10    2
     2    10    11    2
     3    10    12    1
     4    12    14    1
     5    14    15   ar
     6    15    16   ar
     7    16    17   ar
     8    17    18   ar
     9    10     1    1
    10     1     2   ar
    11     2     3   ar
    12     3     4    1
    13     3     5   ar
    14     5    19    1
    15    19    21    1
    16    21    22    1
    17    22    23    1
    18    23    24    1
    19    24    25    1
    20    25    26    1
    21    26    27    1
    22    27    28    1
    23    28    29    1
    24     5     6   ar
    25     6     7   ar
    26     7     8    1
    27    18    14   ar
    28     7     1   ar
    29    26    22    1
    30    29    22    1
    31    12    13    1
    32    19    20    1
@<TRIPOS>MOLECULE
*****
 29 32 0 0 0
SMALL
GASTEIGER

@<TRIPOS>ATOM
      1 C          -7.8182  -19.4283   21.2662 C.ar    1  UNL1        0.1534
      2 C          -6.9746  -18.8270   20.1813 C.ar    1  UNL1        0.0351
      3 C          -5.5100  -19.1422   20.1083 C.ar    1  UNL1        0.0722
      4 CL         -4.6665  -18.5409   19.0234 Cl      1  UNL1       -0.0809
      5 C          -4.8888  -20.0588   21.1202 C.ar    1  UNL1        0.0577
      6 C          -5.7322  -20.6601   22.2051 C.ar    1  UNL1        0.0462
      7 C          -7.1969  -20.3449   22.2781 C.ar    1  UNL1        0.1602
      8 F          -8.0403  -20.9462   23.3630 F       1  UNL1       -0.2027
      9 O          -9.5283  -19.9759   20.1369 O.2     1  UNL1       -0.1498
     10 S          -9.2828  -19.1131   21.3392 S.O2    1  UNL1        0.0772
     11 O          -9.0373  -18.2503   22.5413 O.2     1  UNL1       -0.1498
     12 N         -10.7475  -18.7979   21.4120 N.pl3   1  UNL1       -0.1936
     13 H         -11.3570  -19.3997   21.8973 H       1  UNL1        0.1758
     14 C         -11.2835  -17.5657   20.7453 C.ar    1  UNL1        0.1786
     15 N         -10.6548  -16.8436   19.5906 N.ar    1  UNL1       -0.2214
     16 C         -11.5251  -15.6709   19.2480 C.ar    1  UNL1        0.1079
     17 C         -12.6916  -15.6682   20.1909 C.ar    1  UNL1        0.0588
     18 S         -12.5423  -16.8392   21.1164 S.2     1  UNL1       -0.0497
     19 N          -3.4241  -20.3740   21.0472 N.pl3   1  UNL1       -0.3309
     20 H          -3.1032  -21.0866   20.4485 H       1  UNL1        0.1469
     21 C          -2.4483  -19.6035   21.8864 C.3     1  UNL1        0.1018
     22 C          -2.1009  -18.1898   21.5250 C.3     1  UNL1        0.0634
     23 C          -1.3553  -19.1021   20.5967 C.3     1  UNL1        0.0178
     24 C          -0.5472  -18.2522   19.6616 C.3     1  UNL1        0.0187
     25 C          -0.7933  -16.8146   20.0119 C.3     1  UNL1        0.0721
     26 N          -1.7535  -16.7760   21.1636 N.3     1  UNL1       -0.2736
     27 C          -2.4991  -15.8637   22.0919 C.3     1  UNL1        0.0721
     28 C          -3.3074  -16.7136   23.0271 C.3     1  UNL1        0.0187
     29 C          -3.0612  -18.1512   22.6767 C.3     1  UNL1        0.0178
@<TRIPOS>BOND
     1     9    10    2
     2    10    11    2
     3    10    12    1
     4    12    14    1
     5    14    15   ar
     6    15    16   ar
     7    16    17   ar
     8    17    18   ar
     9    10     1    1
    10     1     2   ar
    11     2     3   ar
    12     3     4    1
    13     3     5   ar
    14     5    19    1
    15    19    21    1
    16    21    22    1
    17    22    23    1
    18    23    24    1
    19    24    25    1
    20    25    26    1
    21    26    27    1
    22    27    28    1
    23    28    29    1
    24     5     6   ar
    25     6     7   ar
    26     7     8    1
    27    18    14   ar
    28     7     1   ar
    29    26    22    1
    30    29    22    1
    31    12    13    1
    32    19    20    1
@<TRIPOS>MOLECULE
*****
 29 32 0 0 0
SMALL
GASTEIGER

@<TRIPOS>ATOM
      1 C           4.2605   -1.8846   20.8428 C.ar    1  UNL1        0.1534
      2 C           3.8513   -1.3328   22.1763 C.ar    1  UNL1        0.0351
      3 C           4.3624   -1.9631   23.4377 C.ar    1  UNL1        0.0722
      4 CL          3.9532   -1.4113   24.7712 Cl      1  UNL1       -0.0809
      5 C           5.2829   -3.1453   23.3658 C.ar    1  UNL1        0.0577
      6 C           5.6922   -3.6971   22.0324 C.ar    1  UNL1        0.0462
      7 C           5.1810   -3.0668   20.7709 C.ar    1  UNL1        0.1602
      8 F           5.5903   -3.6186   19.4376 F       1  UNL1       -0.2027
      9 O           2.3869   -1.8215   19.8502 O.2     1  UNL1       -0.1498
     10 S           3.7493   -1.2542   19.5815 S.O2    1  UNL1        0.0772
     11 O           5.1116   -0.6870   19.3127 O.2     1  UNL1       -0.1498
     12 N           3.2379   -0.6238   18.3201 N.pl3   1  UNL1       -0.1936
     13 H           3.4364   -1.0360   17.4483 H       1  UNL1        0.1758
     14 C           2.4242    0.6344   18.3869 C.ar    1  UNL1        0.1786
     15 N           0.9318    0.7267   18.2667 N.ar    1  UNL1       -0.2214
     16 C           0.5451    2.1706   18.3912 C.ar    1  UNL1        0.1079
     17 C           1.7985    2.9708   18.5884 C.ar    1  UNL1        0.0588
     18 S           2.9598    2.0213   18.5857 S.2     1  UNL1       -0.0497
     19 N           5.7941   -3.7757   24.6273 N.pl3   1  UNL1       -0.3309
     20 H           5.2299   -3.7901   25.4340 H       1  UNL1        0.1469
     21 C           7.1648   -4.3839   24.6598 C.3     1  UNL1        0.1018
     22 C           7.4539   -5.5328   25.5799 C.3     1  UNL1        0.0634
     23 C           7.8009   -5.9583   24.1840 C.3     1  UNL1        0.0178
     24 C           8.3044   -7.3701   24.2415 C.3     1  UNL1        0.0187
     25 C           8.2686   -7.8171   25.6729 C.3     1  UNL1        0.0721
     26 N           7.7430   -6.6816   26.5001 N.3     1  UNL1       -0.2736
     27 C           7.3960   -6.2561   27.8960 C.3     1  UNL1        0.0721
     28 C           6.8924   -4.8442   27.8385 C.3     1  UNL1        0.0187
     29 C           6.9283   -4.3973   26.4071 C.3     1  UNL1        0.0178
@<TRIPOS>BOND
     1     9    10    2
     2    10    11    2
     3    10    12    1
     4    12    14    1
     5    14    15   ar
     6    15    16   ar
     7    16    17   ar
     8    17    18   ar
     9    10     1    1
    10     1     2   ar
    11     2     3   ar
    12     3     4    1
    13     3     5   ar
    14     5    19    1
    15    19    21    1
    16    21    22    1
    17    22    23    1
    18    23    24    1
    19    24    25    1
    20    25    26    1
    21    26    27    1
    22    27    28    1
    23    28    29    1
    24     5     6   ar
    25     6     7   ar
    26     7     8    1
    27    18    14   ar
    28     7     1   ar
    29    26    22    1
    30    29    22    1
    31    12    13    1
    32    19    20    1
