@<TRIPOS>MOLECULE
*****
 29 32 0 0 0
SMALL
GASTEIGER

@<TRIPOS>ATOM
      1 C           6.6113   -4.0998   29.3107 C.ar    1  UNL1        0.0515
      2 C           6.8590   -4.7306   30.6488 C.ar    1  UNL1        0.0160
      3 C           6.7285   -3.9127   31.8993 C.ar    1  UNL1        0.0175
      4 C           6.3502   -2.4638   31.8118 C.ar    1  UNL1        0.0718
      5 C           6.1025   -1.8330   30.4737 C.ar    1  UNL1        0.0730
      6 CL          5.7242   -0.3840   30.3860 Cl      1  UNL1       -0.0809
      7 C           6.2331   -2.6509   29.2231 C.ar    1  UNL1        0.0273
      8 N           6.2197   -1.6458   33.0623 N.am    1  UNL1       -0.2003
      9 C           7.2706   -0.7450   33.6404 C.2     1  UNL1        0.2589
     10 O           8.6366   -0.5041   33.0694 O.2     1  UNL1       -0.2691
     11 C           6.7157   -0.1275   34.8897 C.ar    1  UNL1        0.0587
     12 C           7.2996    0.8404   35.8757 C.ar    1  UNL1        0.0055
     13 C           6.4896    1.2892   37.0557 C.ar    1  UNL1        0.0115
     14 C           5.0957    0.7701   37.2497 C.ar    1  UNL1        0.0578
     15 CL          4.2857    1.2189   38.4298 Cl      1  UNL1       -0.0822
     16 C           4.5119   -0.1979   36.2638 C.ar    1  UNL1        0.0161
     17 C           5.3218   -0.6467   35.0838 C.ar    1  UNL1        0.0595
     18 C           5.0153   -1.5850   33.9544 C.2     1  UNL1        0.2589
     19 O           3.7300   -2.3315   33.7525 O.2     1  UNL1       -0.2691
     20 C           8.0388   -4.9344   27.3068 C.2     1  UNL1        0.2839
     21 O           9.2054   -4.1331   27.8040 O.2     1  UNL1       -0.2665
     22 N           6.7419   -4.9178   28.0601 N.am    1  UNL1       -0.2778
     23 H           5.9763   -5.4437   27.7338 H       1  UNL1        0.1553
     24 C           8.0240   -8.1933   27.1360 C.3     1  UNL1        0.0345
     25 C           8.1626   -7.2504   25.9778 C.ar    1  UNL1        0.0204
     26 C           8.3186   -7.6398   24.5376 C.ar    1  UNL1        0.0396
     27 C           8.4219   -6.3825   23.7260 C.ar    1  UNL1        0.1795
     28 O           8.3297   -5.2161   24.6646 O.2     1  UNL1       -0.4461
     29 C           8.1694   -5.7524   26.0563 C.ar    1  UNL1        0.1948
@<TRIPOS>BOND
     1    24    25    1
     2    25    26   ar
     3    26    27   ar
     4    27    28   ar
     5    28    29   ar
     6    29    20    1
     7    20    21    2
     8    20    22   am
     9    22     1    1
    10     1     2   ar
    11     2     3   ar
    12     3     4   ar
    13     4     8    1
    14     8     9   am
    15     9    10    2
    16     9    11    1
    17    11    12   ar
    18    12    13   ar
    19    13    14   ar
    20    14    15    1
    21    14    16   ar
    22    16    17   ar
    23    17    18    1
    24    18    19    2
    25     4     5   ar
    26     5     6    1
    27     5     7   ar
    28    29    25   ar
    29     7     1   ar
    30    18     8   am
    31    17    11   ar
    32    22    23    1
@<TRIPOS>MOLECULE
*****
 29 32 0 0 0
SMALL
GASTEIGER

@<TRIPOS>ATOM
      1 C           5.2286   -0.9752   34.6102 C.ar    1  UNL1        0.0515
      2 C           4.2579   -1.9241   33.9722 C.ar    1  UNL1        0.0160
      3 C           4.6569   -2.6957   32.7493 C.ar    1  UNL1        0.0175
      4 C           6.0267   -2.5183   32.1644 C.ar    1  UNL1        0.0718
      5 C           6.9975   -1.5693   32.8024 C.ar    1  UNL1        0.0730
      6 CL          8.3674   -1.3919   32.2175 Cl      1  UNL1       -0.0809
      7 C           6.5984   -0.7978   34.0253 C.ar    1  UNL1        0.0273
      8 N           6.4258   -3.2898   30.9415 N.am    1  UNL1       -0.2003
      9 C           6.5322   -2.7420   29.5491 C.2     1  UNL1        0.2589
     10 O           6.2583   -1.3265   29.1352 O.2     1  UNL1       -0.2691
     11 C           6.9607   -3.8583   28.6433 C.ar    1  UNL1        0.0587
     12 C           7.2270   -3.9076   27.1680 C.ar    1  UNL1        0.0055
     13 C           7.6518   -5.1946   26.5252 C.ar    1  UNL1        0.0115
     14 C           7.8102   -6.4322   27.3578 C.ar    1  UNL1        0.0578
     15 CL          8.2350   -7.7193   26.7149 Cl      1  UNL1       -0.0822
     16 C           7.5438   -6.3829   28.8331 C.ar    1  UNL1        0.0161
     17 C           7.1191   -5.0959   29.4758 C.ar    1  UNL1        0.0595
     18 C           6.7885   -4.7446   30.8962 C.2     1  UNL1        0.2589
     19 O           6.8158   -5.6833   32.0658 O.2     1  UNL1       -0.2691
     20 C           3.9796    1.0251   35.7004 C.2     1  UNL1        0.2839
     21 O           3.5285    1.4823   34.3448 O.2     1  UNL1       -0.2665
     22 N           4.8296   -0.2037   35.8331 N.am    1  UNL1       -0.2778
     23 H           5.1256   -0.5038   36.7228 H       1  UNL1        0.1553
     24 C           6.0127    2.3091   37.9066 C.3     1  UNL1        0.0345
     25 C           4.5151    2.3868   37.9374 C.ar    1  UNL1        0.0204
     26 C           3.6890    3.0684   38.9877 C.ar    1  UNL1        0.0396
     27 C           2.2439    2.8994   38.6228 C.ar    1  UNL1        0.1795
     28 O           2.1769    2.1134   37.3469 O.2     1  UNL1       -0.4461
     29 C           3.5805    1.7966   36.9233 C.ar    1  UNL1        0.1948
@<TRIPOS>BOND
     1    24    25    1
     2    25    26   ar
     3    26    27   ar
     4    27    28   ar
     5    28    29   ar
     6    29    20    1
     7    20    21    2
     8    20    22   am
     9    22     1    1
    10     1     2   ar
    11     2     3   ar
    12     3     4   ar
    13     4     8    1
    14     8     9   am
    15     9    10    2
    16     9    11    1
    17    11    12   ar
    18    12    13   ar
    19    13    14   ar
    20    14    15    1
    21    14    16   ar
    22    16    17   ar
    23    17    18    1
    24    18    19    2
    25     4     5   ar
    26     5     6    1
    27     5     7   ar
    28    29    25   ar
    29     7     1   ar
    30    18     8   am
    31    17    11   ar
    32    22    23    1
@<TRIPOS>MOLECULE
*****
 29 32 0 0 0
SMALL
GASTEIGER

@<TRIPOS>ATOM
      1 C           6.1471   -2.8020   32.7771 C.ar    1  UNL1        0.0515
      2 C           4.7271   -2.9311   33.2428 C.ar    1  UNL1        0.0160
      3 C           4.0275   -1.7525   33.8520 C.ar    1  UNL1        0.0175
      4 C           4.7478   -0.4446   33.9957 C.ar    1  UNL1        0.0718
      5 C           6.1678   -0.3155   33.5300 C.ar    1  UNL1        0.0730
      6 CL          6.8882    0.9924   33.6737 Cl      1  UNL1       -0.0809
      7 C           6.8674   -1.4941   32.9207 C.ar    1  UNL1        0.0273
      8 N           4.0481    0.7340   34.6050 N.am    1  UNL1       -0.2003
      9 C           4.0844    1.1300   36.0513 C.2     1  UNL1        0.2589
     10 O           4.8267    0.4167   37.1423 O.2     1  UNL1       -0.2691
     11 C           3.2480    2.3643   36.2152 C.ar    1  UNL1        0.0587
     12 C           2.9187    3.2016   37.4154 C.ar    1  UNL1        0.0055
     13 C           2.0362    4.4058   37.2705 C.ar    1  UNL1        0.0115
     14 C           1.4831    4.7728   35.9253 C.ar    1  UNL1        0.0578
     15 CL          0.6005    5.9770   35.7805 Cl      1  UNL1       -0.0822
     16 C           1.8124    3.9355   34.7251 C.ar    1  UNL1        0.0161
     17 C           2.6949    2.7313   34.8700 C.ar    1  UNL1        0.0595
     18 C           3.1894    1.7237   33.8749 C.2     1  UNL1        0.2589
     19 O           2.8795    1.7085   32.4074 O.2     1  UNL1       -0.2691
     20 C           7.1127   -4.0143   30.6920 C.2     1  UNL1        0.2839
     21 O           6.6791   -2.8693   29.8254 O.2     1  UNL1       -0.2665
     22 N           6.8468   -3.9806   32.1678 N.am    1  UNL1       -0.2778
     23 H           7.1314   -4.7321   32.7366 H       1  UNL1        0.1553
     24 C           6.2969   -5.4975   27.9020 C.3     1  UNL1        0.0345
     25 C           7.4373   -5.8747   28.8002 C.ar    1  UNL1        0.0204
     26 C           8.4031   -6.9999   28.5738 C.ar    1  UNL1        0.0396
     27 C           9.3750   -7.0136   29.7163 C.ar    1  UNL1        0.1795
     28 O           9.0099   -5.8968   30.6488 O.2     1  UNL1       -0.4461
     29 C           7.8124   -5.1930   30.0827 C.ar    1  UNL1        0.1948
@<TRIPOS>BOND
     1    24    25    1
     2    25    26   ar
     3    26    27   ar
     4    27    28   ar
     5    28    29   ar
     6    29    20    1
     7    20    21    2
     8    20    22   am
     9    22     1    1
    10     1     2   ar
    11     2     3   ar
    12     3     4   ar
    13     4     8    1
    14     8     9   am
    15     9    10    2
    16     9    11    1
    17    11    12   ar
    18    12    13   ar
    19    13    14   ar
    20    14    15    1
    21    14    16   ar
    22    16    17   ar
    23    17    18    1
    24    18    19    2
    25     4     5   ar
    26     5     6    1
    27     5     7   ar
    28    29    25   ar
    29     7     1   ar
    30    18     8   am
    31    17    11   ar
    32    22    23    1
@<TRIPOS>MOLECULE
*****
 29 32 0 0 0
SMALL
GASTEIGER

@<TRIPOS>ATOM
      1 C           5.1361   -0.3240   28.7527 C.ar    1  UNL1        0.0515
      2 C           3.8309   -0.9540   28.3664 C.ar    1  UNL1        0.0160
      3 C           3.5918   -1.3735   26.9462 C.ar    1  UNL1        0.0175
      4 C           4.6580   -1.1630   25.9124 C.ar    1  UNL1        0.0718
      5 C           5.9632   -0.5330   26.2987 C.ar    1  UNL1        0.0730
      6 CL          7.0295   -0.3225   25.2648 Cl      1  UNL1       -0.0809
      7 C           6.2023   -0.1135   27.7189 C.ar    1  UNL1        0.0273
      8 N           4.4189   -1.5826   24.4922 N.am    1  UNL1       -0.2003
      9 C           3.5623   -0.8634   23.4927 C.2     1  UNL1        0.2589
     10 O           2.7944    0.4016   23.7379 O.2     1  UNL1       -0.2691
     11 C           3.6084   -1.6313   22.2050 C.ar    1  UNL1        0.0587
     12 C           2.9588   -1.3977   20.8733 C.ar    1  UNL1        0.0055
     13 C           3.1943   -2.3579   19.7453 C.ar    1  UNL1        0.0115
     14 C           4.0794   -3.5517   19.9489 C.ar    1  UNL1        0.0578
     15 CL          4.3149   -4.5119   18.8208 Cl      1  UNL1       -0.0822
     16 C           4.7290   -3.7853   21.2806 C.ar    1  UNL1        0.0161
     17 C           4.4935   -2.8251   22.4086 C.ar    1  UNL1        0.0595
     18 C           4.9944   -2.7949   23.8222 C.2     1  UNL1        0.2589
     19 O           5.9100   -3.8007   24.4547 O.2     1  UNL1       -0.2691
     20 C           5.8636   -0.9047   31.1783 C.2     1  UNL1        0.2839
     21 O           6.1129   -2.3246   30.7636 O.2     1  UNL1       -0.2665
     22 N           5.3752    0.0955   30.1729 N.am    1  UNL1       -0.2778
     23 H           5.2116    1.0274   30.4450 H       1  UNL1        0.1553
     24 C           4.3559   -2.1039   33.8124 C.3     1  UNL1        0.0345
     25 C           5.4096   -1.0365   33.8092 C.ar    1  UNL1        0.0204
     26 C           5.9554   -0.3327   35.0163 C.ar    1  UNL1        0.0396
     27 C           6.9857    0.6534   34.5515 C.ar    1  UNL1        0.1795
     28 O           7.0767    0.5591   33.0572 O.2     1  UNL1       -0.4461
     29 C           6.1027   -0.4852   32.5985 C.ar    1  UNL1        0.1948
@<TRIPOS>BOND
     1    24    25    1
     2    25    26   ar
     3    26    27   ar
     4    27    28   ar
     5    28    29   ar
     6    29    20    1
     7    20    21    2
     8    20    22   am
     9    22     1    1
    10     1     2   ar
    11     2     3   ar
    12     3     4   ar
    13     4     8    1
    14     8     9   am
    15     9    10    2
    16     9    11    1
    17    11    12   ar
    18    12    13   ar
    19    13    14   ar
    20    14    15    1
    21    14    16   ar
    22    16    17   ar
    23    17    18    1
    24    18    19    2
    25     4     5   ar
    26     5     6    1
    27     5     7   ar
    28    29    25   ar
    29     7     1   ar
    30    18     8   am
    31    17    11   ar
    32    22    23    1
@<TRIPOS>MOLECULE
*****
 29 32 0 0 0
SMALL
GASTEIGER

@<TRIPOS>ATOM
      1 C          -2.0032    3.8220   21.3680 C.ar    1  UNL1        0.0515
      2 C          -1.0769    3.0841   22.2886 C.ar    1  UNL1        0.0160
      3 C           0.0995    2.3396   21.7301 C.ar    1  UNL1        0.0175
      4 C           0.3495    2.3329   20.2512 C.ar    1  UNL1        0.0718
      5 C          -0.5769    3.0707   19.3306 C.ar    1  UNL1        0.0730
      6 CL         -0.3269    3.0640   17.8516 Cl      1  UNL1       -0.0809
      7 C          -1.7532    3.8152   19.8891 C.ar    1  UNL1        0.0273
      8 N           1.5258    1.5883   19.6927 N.am    1  UNL1       -0.2003
      9 C           2.6972    2.1970   18.9805 C.2     1  UNL1        0.2589
     10 O           2.8980    3.6571   18.7016 O.2     1  UNL1       -0.2691
     11 C           3.6327    1.0892   18.5960 C.ar    1  UNL1        0.0587
     12 C           4.9480    1.0911   17.8751 C.ar    1  UNL1        0.0055
     13 C           5.6701   -0.2003   17.6288 C.ar    1  UNL1        0.0115
     14 C           5.0769   -1.4936   18.1035 C.ar    1  UNL1        0.0578
     15 CL          5.7990   -2.7851   17.8572 Cl      1  UNL1       -0.0822
     16 C           3.7615   -1.4955   18.8244 C.ar    1  UNL1        0.0161
     17 C           3.0394   -0.2041   19.0707 C.ar    1  UNL1        0.0595
     18 C           1.7373    0.1044   19.7485 C.2     1  UNL1        0.2589
     19 O           0.8096   -0.8956   20.3725 O.2     1  UNL1       -0.2691
     20 C          -4.5107    3.8854   22.0451 C.2     1  UNL1        0.2839
     21 O          -4.6655    2.4596   21.6053 O.2     1  UNL1       -0.2665
     22 N          -3.1796    4.5665   21.9265 N.am    1  UNL1       -0.2778
     23 H          -3.0780    5.5022   22.2151 H       1  UNL1        0.1553
     24 C          -5.4239    3.9578   25.1773 C.3     1  UNL1        0.0345
     25 C          -6.1068    4.6632   24.0433 C.ar    1  UNL1        0.0204
     26 C          -7.3294    5.5258   24.1498 C.ar    1  UNL1        0.0396
     27 C          -7.6653    6.0255   22.7760 C.ar    1  UNL1        0.1795
     28 O          -6.6502    5.4719   21.8204 O.2     1  UNL1       -0.4461
     29 C          -5.6871    4.6299   22.6036 C.ar    1  UNL1        0.1948
@<TRIPOS>BOND
     1    24    25    1
     2    25    26   ar
     3    26    27   ar
     4    27    28   ar
     5    28    29   ar
     6    29    20    1
     7    20    21    2
     8    20    22   am
     9    22     1    1
    10     1     2   ar
    11     2     3   ar
    12     3     4   ar
    13     4     8    1
    14     8     9   am
    15     9    10    2
    16     9    11    1
    17    11    12   ar
    18    12    13   ar
    19    13    14   ar
    20    14    15    1
    21    14    16   ar
    22    16    17   ar
    23    17    18    1
    24    18    19    2
    25     4     5   ar
    26     5     6    1
    27     5     7   ar
    28    29    25   ar
    29     7     1   ar
    30    18     8   am
    31    17    11   ar
    32    22    23    1
@<TRIPOS>MOLECULE
*****
 29 32 0 0 0
SMALL
GASTEIGER

@<TRIPOS>ATOM
      1 C          -1.9679    3.8623   21.6432 C.ar    1  UNL1        0.0515
      2 C          -0.8952    3.1914   22.4489 C.ar    1  UNL1        0.0160
      3 C           0.2904    2.5832   21.7601 C.ar    1  UNL1        0.0175
      4 C           0.4033    2.6458   20.2657 C.ar    1  UNL1        0.0718
      5 C          -0.6694    3.3166   19.4601 C.ar    1  UNL1        0.0730
      6 CL         -0.5566    3.3792   17.9656 Cl      1  UNL1       -0.0809
      7 C          -1.8550    3.9248   20.1488 C.ar    1  UNL1        0.0273
      8 N           1.5889    2.0375   19.5770 N.am    1  UNL1       -0.2003
      9 C           1.8217    0.5731   19.3508 C.2     1  UNL1        0.2589
     10 O           0.9098   -0.5403   19.7736 O.2     1  UNL1       -0.2691
     11 C           3.1266    0.4174   18.6275 C.ar    1  UNL1        0.0587
     12 C           3.8665   -0.7935   18.1415 C.ar    1  UNL1        0.0055
     13 C           5.1801   -0.6361   17.4347 C.ar    1  UNL1        0.0115
     14 C           5.7538    0.7322   17.2139 C.ar    1  UNL1        0.0578
     15 CL          7.0675    0.8895   16.5070 Cl      1  UNL1       -0.0822
     16 C           5.0139    1.9430   17.6999 C.ar    1  UNL1        0.0161
     17 C           3.7003    1.7857   18.4068 C.ar    1  UNL1        0.0595
     18 C           2.7500    2.7869   18.9936 C.2     1  UNL1        0.2589
     19 O           2.9292    4.2762   18.9964 O.2     1  UNL1       -0.2691
     20 C          -4.4843    3.7801   22.2841 C.2     1  UNL1        0.2839
     21 O          -4.6296    2.4814   21.5476 O.2     1  UNL1       -0.2665
     22 N          -3.1535    4.4705   22.3319 N.am    1  UNL1       -0.2778
     23 H          -3.0582    5.3228   22.8153 H       1  UNL1        0.1553
     24 C          -4.9387    3.9723   25.5100 C.3     1  UNL1        0.0345
     25 C          -5.8788    4.4767   24.4557 C.ar    1  UNL1        0.0204
     26 C          -7.1928    5.1580   24.6989 C.ar    1  UNL1        0.0396
     27 C          -7.7961    5.4907   23.3665 C.ar    1  UNL1        0.1795
     28 O          -6.8549    5.0151   22.2998 O.2     1  UNL1       -0.4461
     29 C          -5.6700    4.3884   22.9729 C.ar    1  UNL1        0.1948
@<TRIPOS>BOND
     1    24    25    1
     2    25    26   ar
     3    26    27   ar
     4    27    28   ar
     5    28    29   ar
     6    29    20    1
     7    20    21    2
     8    20    22   am
     9    22     1    1
    10     1     2   ar
    11     2     3   ar
    12     3     4   ar
    13     4     8    1
    14     8     9   am
    15     9    10    2
    16     9    11    1
    17    11    12   ar
    18    12    13   ar
    19    13    14   ar
    20    14    15    1
    21    14    16   ar
    22    16    17   ar
    23    17    18    1
    24    18    19    2
    25     4     5   ar
    26     5     6    1
    27     5     7   ar
    28    29    25   ar
    29     7     1   ar
    30    18     8   am
    31    17    11   ar
    32    22    23    1
@<TRIPOS>MOLECULE
*****
 29 32 0 0 0
SMALL
GASTEIGER

@<TRIPOS>ATOM
      1 C           0.6245    2.8228   28.7203 C.ar    1  UNL1        0.0515
      2 C          -0.0384    1.6653   28.0342 C.ar    1  UNL1        0.0160
      3 C          -1.1361    1.9103   27.0417 C.ar    1  UNL1        0.0175
      4 C          -1.5710    3.3128   26.7354 C.ar    1  UNL1        0.0718
      5 C          -0.9081    4.4703   27.4215 C.ar    1  UNL1        0.0730
      6 CL         -1.3430    5.8728   27.1151 Cl      1  UNL1       -0.0809
      7 C           0.1896    4.2253   28.4139 C.ar    1  UNL1        0.0273
      8 N          -2.6687    3.5578   25.7429 N.am    1  UNL1       -0.2003
      9 C          -4.0852    3.9284   26.0686 C.2     1  UNL1        0.2589
     10 O          -4.6527    4.1192   27.4439 O.2     1  UNL1       -0.2691
     11 C          -4.8347    4.0749   24.7775 C.ar    1  UNL1        0.0587
     12 C          -6.2620    4.4271   24.4799 C.ar    1  UNL1        0.0055
     13 C          -6.7360    4.4992   23.0586 C.ar    1  UNL1        0.0115
     14 C          -5.7826    4.2190   21.9349 C.ar    1  UNL1        0.0578
     15 CL         -6.2566    4.2910   20.5136 Cl      1  UNL1       -0.0822
     16 C          -4.3553    3.8667   22.2325 C.ar    1  UNL1        0.0161
     17 C          -3.8813    3.7947   23.6538 C.ar    1  UNL1        0.0595
     18 C          -2.5427    3.4751   24.2505 C.2     1  UNL1        0.2589
     19 O          -1.2968    3.1329   23.4885 O.2     1  UNL1       -0.2691
     20 C           1.4023    1.9893   31.0548 C.2     1  UNL1        0.2839
     21 O          -0.0153    1.6457   31.4045 O.2     1  UNL1       -0.2665
     22 N           1.7222    2.5778   29.7127 N.am    1  UNL1       -0.2778
     23 H           2.6527    2.8033   29.4832 H       1  UNL1        0.1553
     24 C           3.1934   -0.7274   31.3023 C.3     1  UNL1        0.0345
     25 C           3.3234    0.4955   32.1610 C.ar    1  UNL1        0.0204
     26 C           4.2994    0.6845   33.2843 C.ar    1  UNL1        0.0396
     27 C           4.0793    2.0500   33.8647 C.ar    1  UNL1        0.1795
     28 O           2.9673    2.7050   33.1002 O.2     1  UNL1       -0.4461
     29 C           2.5001    1.7443   32.0472 C.ar    1  UNL1        0.1948
@<TRIPOS>BOND
     1    24    25    1
     2    25    26   ar
     3    26    27   ar
     4    27    28   ar
     5    28    29   ar
     6    29    20    1
     7    20    21    2
     8    20    22   am
     9    22     1    1
    10     1     2   ar
    11     2     3   ar
    12     3     4   ar
    13     4     8    1
    14     8     9   am
    15     9    10    2
    16     9    11    1
    17    11    12   ar
    18    12    13   ar
    19    13    14   ar
    20    14    15    1
    21    14    16   ar
    22    16    17   ar
    23    17    18    1
    24    18    19    2
    25     4     5   ar
    26     5     6    1
    27     5     7   ar
    28    29    25   ar
    29     7     1   ar
    30    18     8   am
    31    17    11   ar
    32    22    23    1
@<TRIPOS>MOLECULE
*****
 29 32 0 0 0
SMALL
GASTEIGER

@<TRIPOS>ATOM
      1 C           0.7409    2.5618   29.0292 C.ar    1  UNL1        0.0515
      2 C           0.0414    1.4339   28.3302 C.ar    1  UNL1        0.0160
      3 C          -0.9590    1.7256   27.2513 C.ar    1  UNL1        0.0175
      4 C          -1.2599    3.1451   26.8713 C.ar    1  UNL1        0.0718
      5 C          -0.5604    4.2729   27.5703 C.ar    1  UNL1        0.0730
      6 CL         -0.8613    5.6925   27.1904 Cl      1  UNL1       -0.0809
      7 C           0.4400    3.9813   28.6493 C.ar    1  UNL1        0.0273
      8 N          -2.2603    3.4367   25.7924 N.am    1  UNL1       -0.2003
      9 C          -2.0178    3.3391   24.3154 C.2     1  UNL1        0.2589
     10 O          -0.7323    2.9326   23.6579 O.2     1  UNL1       -0.2691
     11 C          -3.2865    3.7193   23.6112 C.ar    1  UNL1        0.0587
     12 C          -3.6396    3.8055   22.1559 C.ar    1  UNL1        0.0055
     13 C          -5.0193    4.2244   21.7425 C.ar    1  UNL1        0.0115
     14 C          -6.0459    4.5570   22.7843 C.ar    1  UNL1        0.0578
     15 CL         -7.4256    4.9760   22.3708 Cl      1  UNL1       -0.0822
     16 C          -5.6928    4.4708   24.2396 C.ar    1  UNL1        0.0161
     17 C          -4.3131    4.0519   24.6530 C.ar    1  UNL1        0.0595
     18 C          -3.6789    3.8773   26.0011 C.2     1  UNL1        0.2589
     19 O          -4.3462    4.1035   27.3253 O.2     1  UNL1       -0.2691
     20 C           1.2747    1.8403   31.4673 C.2     1  UNL1        0.2839
     21 O          -0.1924    1.7021   31.7477 O.2     1  UNL1       -0.2665
     22 N           1.7413    2.2701   30.1081 N.am    1  UNL1       -0.2778
     23 H           2.7042    2.3608   29.9242 H       1  UNL1        0.1553
     24 C           1.7710    3.6224   34.1557 C.3     1  UNL1        0.0345
     25 C           2.5032    2.3678   33.7820 C.ar    1  UNL1        0.0204
     26 C           3.5922    1.7120   34.5784 C.ar    1  UNL1        0.0396
     27 C           4.0371    0.4876   33.8348 C.ar    1  UNL1        0.1795
     28 O           3.2231    0.3866   32.5790 O.2     1  UNL1       -0.4461
     29 C           2.2751    1.5486   32.5463 C.ar    1  UNL1        0.1948
@<TRIPOS>BOND
     1    24    25    1
     2    25    26   ar
     3    26    27   ar
     4    27    28   ar
     5    28    29   ar
     6    29    20    1
     7    20    21    2
     8    20    22   am
     9    22     1    1
    10     1     2   ar
    11     2     3   ar
    12     3     4   ar
    13     4     8    1
    14     8     9   am
    15     9    10    2
    16     9    11    1
    17    11    12   ar
    18    12    13   ar
    19    13    14   ar
    20    14    15    1
    21    14    16   ar
    22    16    17   ar
    23    17    18    1
    24    18    19    2
    25     4     5   ar
    26     5     6    1
    27     5     7   ar
    28    29    25   ar
    29     7     1   ar
    30    18     8   am
    31    17    11   ar
    32    22    23    1
@<TRIPOS>MOLECULE
*****
 29 32 0 0 0
SMALL
GASTEIGER

@<TRIPOS>ATOM
      1 C           3.8513   -1.2951   27.7127 C.ar    1  UNL1        0.0515
      2 C           5.1432   -1.6385   28.3931 C.ar    1  UNL1        0.0160
      3 C           5.3610   -1.2550   29.8268 C.ar    1  UNL1        0.0175
      4 C           4.2867   -0.5280   30.5801 C.ar    1  UNL1        0.0718
      5 C           2.9948   -0.1846   29.8998 C.ar    1  UNL1        0.0730
      6 CL          1.9205    0.5424   30.6531 Cl      1  UNL1       -0.0809
      7 C           2.7771   -0.5681   28.4660 C.ar    1  UNL1        0.0273
      8 N           4.5045   -0.1445   32.0138 N.am    1  UNL1       -0.2003
      9 C           4.3083   -1.0355   33.2044 C.2     1  UNL1        0.2589
     10 O           3.8600   -2.4666   33.1704 O.2     1  UNL1       -0.2691
     11 C           4.6392   -0.2444   34.4351 C.ar    1  UNL1        0.0587
     12 C           4.6274   -0.6023   35.8917 C.ar    1  UNL1        0.0055
     13 C           5.0162    0.4199   36.9183 C.ar    1  UNL1        0.0115
     14 C           5.4169    1.8000   36.4883 C.ar    1  UNL1        0.0578
     15 CL          5.8058    2.8221   37.5150 Cl      1  UNL1       -0.0822
     16 C           5.4287    2.1579   35.0317 C.ar    1  UNL1        0.0161
     17 C           5.0398    1.1357   34.0051 C.ar    1  UNL1        0.0595
     18 C           4.9566    1.1974   32.5087 C.2     1  UNL1        0.2589
     19 O           5.2704    2.3914   31.6567 O.2     1  UNL1       -0.2691
     20 C           4.0633   -0.7514   25.1810 C.2     1  UNL1        0.2839
     21 O           4.7108    0.5594   25.5167 O.2     1  UNL1       -0.2665
     22 N           3.6336   -1.6786   26.2790 N.am    1  UNL1       -0.2778
     23 H           3.2086   -2.5389   26.0587 H       1  UNL1        0.1553
     24 C           1.9738    0.6647   23.1126 C.3     1  UNL1        0.0345
     25 C           2.8851   -0.4839   22.7966 C.ar    1  UNL1        0.0204
     26 C           2.9961   -1.1835   21.4743 C.ar    1  UNL1        0.0396
     27 C           4.0251   -2.2667   21.6078 C.ar    1  UNL1        0.1795
     28 O           4.5501   -2.2367   23.0126 O.2     1  UNL1       -0.4461
     29 C           3.8456   -1.1349   23.7473 C.ar    1  UNL1        0.1948
@<TRIPOS>BOND
     1    24    25    1
     2    25    26   ar
     3    26    27   ar
     4    27    28   ar
     5    28    29   ar
     6    29    20    1
     7    20    21    2
     8    20    22   am
     9    22     1    1
    10     1     2   ar
    11     2     3   ar
    12     3     4   ar
    13     4     8    1
    14     8     9   am
    15     9    10    2
    16     9    11    1
    17    11    12   ar
    18    12    13   ar
    19    13    14   ar
    20    14    15    1
    21    14    16   ar
    22    16    17   ar
    23    17    18    1
    24    18    19    2
    25     4     5   ar
    26     5     6    1
    27     5     7   ar
    28    29    25   ar
    29     7     1   ar
    30    18     8   am
    31    17    11   ar
    32    22    23    1
