@<TRIPOS>MOLECULE
*****
 39 43 0 0 0
SMALL
GASTEIGER

@<TRIPOS>ATOM
      1 C           4.7745   -2.8760   21.0399 C.ar    1  UNL1       -0.0183
      2 C           6.1703   -3.2928   20.6823 C.ar    1  UNL1       -0.0043
      3 C           7.2034   -3.4545   21.7576 C.ar    1  UNL1       -0.0048
      4 C           6.8408   -3.1992   23.1906 C.ar    1  UNL1       -0.0228
      5 C           5.4450   -2.7824   23.5482 C.ar    1  UNL1       -0.0065
      6 C           4.4119   -2.6207   22.4729 C.ar    1  UNL1       -0.0069
      7 C           5.0824   -2.5272   24.9812 C.3     1  UNL1        0.1201
      8 N           6.1156   -2.6888   26.0565 N.am    1  UNL1       -0.2717
      9 C           5.7530   -2.4336   27.4895 C.2     1  UNL1        0.2486
     10 O           4.3572   -2.0167   27.8471 O.2     1  UNL1       -0.2699
     11 C           7.5115   -3.1057   25.6989 C.3     1  UNL1        0.0987
     12 C           7.8741   -3.3609   24.2660 C.3     1  UNL1        0.0476
     13 C           6.7862   -2.5953   28.5648 C.ar    1  UNL1        0.0451
     14 C           7.0723   -3.9541   29.1318 C.ar    1  UNL1       -0.0217
     15 C           6.3252   -5.1514   28.6235 C.3     1  UNL1        0.0308
     16 C           8.1056   -4.1158   30.2072 C.ar    1  UNL1       -0.0260
     17 C           8.3917   -5.4747   30.7742 C.3     1  UNL1        0.0307
     18 C           8.8527   -2.9185   30.7155 C.ar    1  UNL1       -0.0091
     19 C           8.5665   -1.5596   30.1484 C.ar    1  UNL1       -0.0260
     20 C           9.3136   -0.3623   30.6567 C.3     1  UNL1        0.0307
     21 C           7.5333   -1.3980   29.0731 C.ar    1  UNL1       -0.0217
     22 C           7.2472   -0.0390   28.5061 C.3     1  UNL1        0.0308
     23 C           3.7412   -2.7143   19.9646 C.3     1  UNL1        0.0498
     24 N           1.4384    2.7012   18.9281 N.ar    1  UNL1       -0.2318
     25 N           2.6187    3.3321   18.2506 N.ar    1  UNL1       -0.0639
     26 N           3.7177    2.3130   18.1899 N.ar    1  UNL1       -0.1291
     27 C           3.2166    1.0523   18.8298 C.ar    1  UNL1        0.1174
     28 C           3.8610   -0.2832   19.0560 C.ar    1  UNL1       -0.0046
     29 C           5.2697   -0.5232   18.5997 C.3     1  UNL1        0.0324
     30 C           3.0968   -1.3788   19.7384 C.ar    1  UNL1       -0.0204
     31 C           1.6881   -1.1389   20.1946 C.ar    1  UNL1       -0.0026
     32 C           1.0437    0.1966   19.9684 C.ar    1  UNL1        0.0200
     33 C           1.8080    1.2922   19.2860 C.ar    1  UNL1        0.0985
     34 C          -0.8108    3.6742   18.0655 C.3     1  UNL1        0.0285
     35 C           0.1201    3.3631   19.1998 C.3     1  UNL1        0.1292
     36 C           3.3524   -3.8881   19.1155 C.3     1  UNL1        0.0504
     37 C           3.7944   -5.2695   19.4979 C.2     1  UNL1        0.0510
     38 O           3.1297   -5.9806   20.6393 O.co2   1  UNL1       -0.5491
     39 O           4.9010   -5.9399   18.7391 O.co2   1  UNL1       -0.5491
@<TRIPOS>UNITY_ATOM_ATTR
38 1
charge -1
@<TRIPOS>BOND
     1    34    35    1
     2    35    24    1
     3    24    25   ar
     4    25    26   ar
     5    26    27   ar
     6    27    28   ar
     7    28    29    1
     8    28    30   ar
     9    30    23    1
    10    23    36    1
    11    36    37    1
    12    37    38   ar
    13    37    39   ar
    14    23     1    1
    15     1     2   ar
    16     2     3   ar
    17     3     4   ar
    18     4     5   ar
    19     5     6   ar
    20     5     7    1
    21     7     8    1
    22     8     9   am
    23     9    10    2
    24     9    13    1
    25    13    14   ar
    26    14    15    1
    27    14    16   ar
    28    16    17    1
    29    16    18   ar
    30    18    19   ar
    31    19    20    1
    32    19    21   ar
    33    21    22    1
    34     8    11    1
    35    11    12    1
    36    30    31   ar
    37    31    32   ar
    38    32    33   ar
    39    33    24   ar
    40    33    27   ar
    41     6     1   ar
    42    21    13   ar
    43    12     4    1
@<TRIPOS>MOLECULE
*****
 39 43 0 0 0
SMALL
GASTEIGER

@<TRIPOS>ATOM
      1 C           4.7782   -2.6619   21.0057 C.ar    1  UNL1       -0.0183
      2 C           6.2069   -2.9551   20.6555 C.ar    1  UNL1       -0.0043
      3 C           7.2394   -3.0545   21.7390 C.ar    1  UNL1       -0.0048
      4 C           6.8432   -2.8606   23.1727 C.ar    1  UNL1       -0.0228
      5 C           5.4145   -2.5673   23.5229 C.ar    1  UNL1       -0.0065
      6 C           4.3820   -2.4680   22.4394 C.ar    1  UNL1       -0.0069
      7 C           5.0182   -2.3734   24.9566 C.3     1  UNL1        0.1201
      8 N           6.0508   -2.4728   26.0400 N.am    1  UNL1       -0.2717
      9 C           5.6545   -2.2789   27.4737 C.2     1  UNL1        0.2486
     10 O           4.2258   -1.9856   27.8239 O.2     1  UNL1       -0.2699
     11 C           7.4796   -2.7661   25.6899 C.3     1  UNL1        0.0987
     12 C           7.8758   -2.9600   24.2562 C.3     1  UNL1        0.0476
     13 C           6.6871   -2.3783   28.5572 C.ar    1  UNL1        0.0451
     14 C           7.3649   -1.1395   29.0633 C.ar    1  UNL1       -0.0217
     15 C           7.0101    0.1987   28.4858 C.3     1  UNL1        0.0308
     16 C           8.3975   -1.2389   30.1468 C.ar    1  UNL1       -0.0260
     17 C           9.0752   -0.0001   30.6528 C.3     1  UNL1        0.0307
     18 C           8.7523   -2.5771   30.7242 C.ar    1  UNL1       -0.0091
     19 C           8.0745   -3.8159   30.2181 C.ar    1  UNL1       -0.0260
     20 C           8.4293   -5.1540   30.7955 C.3     1  UNL1        0.0307
     21 C           7.0419   -3.7164   29.1347 C.ar    1  UNL1       -0.0217
     22 C           6.3641   -4.9552   28.6286 C.3     1  UNL1        0.0308
     23 C           3.7456   -2.5625   19.9222 C.3     1  UNL1        0.0498
     24 N           0.9047    2.6226   19.0571 N.ar    1  UNL1       -0.2318
     25 N           2.0011    3.3784   18.3667 N.ar    1  UNL1       -0.0639
     26 N           3.1917    2.4723   18.2586 N.ar    1  UNL1       -0.1291
     27 C           2.8310    1.1566   18.8821 C.ar    1  UNL1        0.1174
     28 C           3.6070   -0.1141   19.0643 C.ar    1  UNL1       -0.0046
     29 C           5.0205   -0.2070   18.5708 C.3     1  UNL1        0.0324
     30 C           2.9696   -1.2918   19.7400 C.ar    1  UNL1       -0.0204
     31 C           1.5561   -1.1989   20.2335 C.ar    1  UNL1       -0.0026
     32 C           0.7801    0.0718   20.0513 C.ar    1  UNL1        0.0200
     33 C           1.4176    1.2495   19.3756 C.ar    1  UNL1        0.0985
     34 C          -0.9044    3.2830   20.8010 C.3     1  UNL1        0.0285
     35 C          -0.4643    3.1478   19.3733 C.3     1  UNL1        0.1292
     36 C           3.4890   -3.7338   19.0210 C.3     1  UNL1        0.0504
     37 C           3.8788   -5.1151   19.4569 C.2     1  UNL1        0.0510
     38 O           4.9869   -5.8395   18.7516 O.co2   1  UNL1       -0.5491
     39 O           3.1605   -5.7720   20.5982 O.co2   1  UNL1       -0.5491
@<TRIPOS>UNITY_ATOM_ATTR
38 1
charge -1
@<TRIPOS>BOND
     1    34    35    1
     2    35    24    1
     3    24    25   ar
     4    25    26   ar
     5    26    27   ar
     6    27    28   ar
     7    28    29    1
     8    28    30   ar
     9    30    23    1
    10    23    36    1
    11    36    37    1
    12    37    38   ar
    13    37    39   ar
    14    23     1    1
    15     1     2   ar
    16     2     3   ar
    17     3     4   ar
    18     4     5   ar
    19     5     6   ar
    20     5     7    1
    21     7     8    1
    22     8     9   am
    23     9    10    2
    24     9    13    1
    25    13    14   ar
    26    14    15    1
    27    14    16   ar
    28    16    17    1
    29    16    18   ar
    30    18    19   ar
    31    19    20    1
    32    19    21   ar
    33    21    22    1
    34     8    11    1
    35    11    12    1
    36    30    31   ar
    37    31    32   ar
    38    32    33   ar
    39    33    24   ar
    40    33    27   ar
    41     6     1   ar
    42    21    13   ar
    43    12     4    1
@<TRIPOS>MOLECULE
*****
 39 43 0 0 0
SMALL
GASTEIGER

@<TRIPOS>ATOM
      1 C           2.0927    1.5994   23.4712 C.ar    1  UNL1       -0.0183
      2 C           3.2744    2.5200   23.5498 C.ar    1  UNL1       -0.0043
      3 C           3.8359    2.9071   24.8857 C.ar    1  UNL1       -0.0048
      4 C           3.2157    2.3738   26.1431 C.ar    1  UNL1       -0.0228
      5 C           2.0341    1.4532   26.0645 C.ar    1  UNL1       -0.0065
      6 C           1.4726    1.0660   24.7286 C.ar    1  UNL1       -0.0069
      7 C           1.4140    0.9198   27.3219 C.3     1  UNL1        0.1201
      8 N           1.9755    1.3070   28.6578 N.am    1  UNL1       -0.2717
      9 C           1.3553    0.7736   29.9152 C.2     1  UNL1        0.2486
     10 O           0.1737   -0.1470   29.8366 O.2     1  UNL1       -0.2699
     11 C           3.1572    2.2276   28.7364 C.3     1  UNL1        0.0987
     12 C           3.7773    2.7610   27.4791 C.3     1  UNL1        0.0476
     13 C           1.9169    1.1608   31.2511 C.ar    1  UNL1        0.0451
     14 C           1.4216    2.3958   31.9435 C.ar    1  UNL1       -0.0217
     15 C           0.3646    3.2436   31.3000 C.3     1  UNL1        0.0308
     16 C           1.9831    2.7830   33.2795 C.ar    1  UNL1       -0.0260
     17 C           1.4878    4.0180   33.9719 C.3     1  UNL1        0.0307
     18 C           3.0401    1.9352   33.9230 C.ar    1  UNL1       -0.0091
     19 C           3.5354    0.7002   33.2306 C.ar    1  UNL1       -0.0260
     20 C           4.5924   -0.1476   33.8741 C.3     1  UNL1        0.0307
     21 C           2.9739    0.3130   31.8947 C.ar    1  UNL1       -0.0217
     22 C           3.4692   -0.9220   31.2022 C.3     1  UNL1        0.0308
     23 C           1.5311    1.2122   22.1353 C.3     1  UNL1        0.0498
     24 N           4.5831   -2.2141   18.3077 N.ar    1  UNL1       -0.2318
     25 N           4.5109   -1.3333   17.0956 N.ar    1  UNL1       -0.0639
     26 N           3.7400   -0.1004   17.4639 N.ar    1  UNL1       -0.1291
     27 C           3.3358   -0.2192   18.9035 C.ar    1  UNL1        0.1174
     28 C           2.5606    0.6934   19.8070 C.ar    1  UNL1       -0.0046
     29 C           2.0395    1.9998   19.2855 C.3     1  UNL1        0.0324
     30 C           2.3064    0.2996   21.2318 C.ar    1  UNL1       -0.0204
     31 C           2.8275   -1.0068   21.7533 C.ar    1  UNL1       -0.0026
     32 C           3.6027   -1.9194   20.8499 C.ar    1  UNL1        0.0200
     33 C           3.8569   -1.5256   19.4249 C.ar    1  UNL1        0.0985
     34 C           4.4831   -4.7635   18.7982 C.3     1  UNL1        0.0285
     35 C           5.2623   -3.5491   18.3882 C.3     1  UNL1        0.1292
     36 C           0.1944    1.7375   21.7028 C.3     1  UNL1        0.0504
     37 C          -0.2332    3.1189   22.1013 C.2     1  UNL1        0.0510
     38 O          -1.2944    3.3037   23.1453 O.co2   1  UNL1       -0.5491
     39 O           0.4003    4.3156   21.4558 O.co2   1  UNL1       -0.5491
@<TRIPOS>UNITY_ATOM_ATTR
38 1
charge -1
@<TRIPOS>BOND
     1    34    35    1
     2    35    24    1
     3    24    25   ar
     4    25    26   ar
     5    26    27   ar
     6    27    28   ar
     7    28    29    1
     8    28    30   ar
     9    30    23    1
    10    23    36    1
    11    36    37    1
    12    37    38   ar
    13    37    39   ar
    14    23     1    1
    15     1     2   ar
    16     2     3   ar
    17     3     4   ar
    18     4     5   ar
    19     5     6   ar
    20     5     7    1
    21     7     8    1
    22     8     9   am
    23     9    10    2
    24     9    13    1
    25    13    14   ar
    26    14    15    1
    27    14    16   ar
    28    16    17    1
    29    16    18   ar
    30    18    19   ar
    31    19    20    1
    32    19    21   ar
    33    21    22    1
    34     8    11    1
    35    11    12    1
    36    30    31   ar
    37    31    32   ar
    38    32    33   ar
    39    33    24   ar
    40    33    27   ar
    41     6     1   ar
    42    21    13   ar
    43    12     4    1
@<TRIPOS>MOLECULE
*****
 39 43 0 0 0
SMALL
GASTEIGER

@<TRIPOS>ATOM
      1 C           2.0417    1.6565   23.4552 C.ar    1  UNL1       -0.0183
      2 C           3.1990    2.6071   23.5389 C.ar    1  UNL1       -0.0043
      3 C           3.7509    3.0007   24.8769 C.ar    1  UNL1       -0.0048
      4 C           3.1456    2.4437   26.1312 C.ar    1  UNL1       -0.0228
      5 C           1.9884    1.4931   26.0475 C.ar    1  UNL1       -0.0065
      6 C           1.4364    1.0995   24.7095 C.ar    1  UNL1       -0.0069
      7 C           1.3830    0.9361   27.3018 C.3     1  UNL1        0.1201
      8 N           1.9350    1.3297   28.6399 N.am    1  UNL1       -0.2717
      9 C           1.3297    0.7727   29.8942 C.2     1  UNL1        0.2486
     10 O           0.1724   -0.1779   29.8105 O.2     1  UNL1       -0.2699
     11 C           3.0923    2.2804   28.7236 C.3     1  UNL1        0.0987
     12 C           3.6976    2.8374   27.4693 C.3     1  UNL1        0.0476
     13 C           1.8817    1.1663   31.2323 C.ar    1  UNL1        0.0451
     14 C           2.9268    0.3163   31.8920 C.ar    1  UNL1       -0.0217
     15 C           3.4199   -0.9273   31.2137 C.3     1  UNL1        0.0308
     16 C           3.4788    0.7100   33.2301 C.ar    1  UNL1       -0.0260
     17 C           4.5239   -0.1400   33.8898 C.3     1  UNL1        0.0307
     18 C           2.9856    1.9536   33.9084 C.ar    1  UNL1       -0.0091
     19 C           1.9405    2.8036   33.2486 C.ar    1  UNL1       -0.0260
     20 C           1.4473    4.0473   33.9270 C.3     1  UNL1        0.0307
     21 C           1.3885    2.4100   31.9106 C.ar    1  UNL1       -0.0217
     22 C           0.3434    3.2600   31.2509 C.3     1  UNL1        0.0308
     23 C           1.4897    1.2629   22.1171 C.3     1  UNL1        0.0498
     24 N           4.5476   -2.2119   18.3382 N.ar    1  UNL1       -0.2318
     25 N           4.4511   -1.3608   17.1068 N.ar    1  UNL1       -0.0639
     26 N           3.6676   -0.1298   17.4544 N.ar    1  UNL1       -0.1291
     27 C           3.2799   -0.2201   18.9006 C.ar    1  UNL1        0.1174
     28 C           2.5019    0.7031   19.7907 C.ar    1  UNL1       -0.0046
     29 C           1.9580    1.9900   19.2444 C.3     1  UNL1        0.0324
     30 C           2.2677    0.3396   21.2270 C.ar    1  UNL1       -0.0204
     31 C           2.8116   -0.9472   21.7732 C.ar    1  UNL1       -0.0026
     32 C           3.5896   -1.8705   20.8831 C.ar    1  UNL1        0.0200
     33 C           3.8238   -1.5069   19.4468 C.ar    1  UNL1        0.0985
     34 C           4.4590   -4.7760   18.7478 C.3     1  UNL1        0.0285
     35 C           5.2454   -3.5356   18.4426 C.3     1  UNL1        0.1292
     36 C           0.1598    1.7925   21.6691 C.3     1  UNL1        0.0504
     37 C          -0.2952    3.1507   22.1144 C.2     1  UNL1        0.0510
     38 O           0.1900    4.3763   21.3984 O.co2   1  UNL1       -0.5491
     39 O          -1.2354    3.2834   23.2756 O.co2   1  UNL1       -0.5491
@<TRIPOS>UNITY_ATOM_ATTR
38 1
charge -1
@<TRIPOS>BOND
     1    34    35    1
     2    35    24    1
     3    24    25   ar
     4    25    26   ar
     5    26    27   ar
     6    27    28   ar
     7    28    29    1
     8    28    30   ar
     9    30    23    1
    10    23    36    1
    11    36    37    1
    12    37    38   ar
    13    37    39   ar
    14    23     1    1
    15     1     2   ar
    16     2     3   ar
    17     3     4   ar
    18     4     5   ar
    19     5     6   ar
    20     5     7    1
    21     7     8    1
    22     8     9   am
    23     9    10    2
    24     9    13    1
    25    13    14   ar
    26    14    15    1
    27    14    16   ar
    28    16    17    1
    29    16    18   ar
    30    18    19   ar
    31    19    20    1
    32    19    21   ar
    33    21    22    1
    34     8    11    1
    35    11    12    1
    36    30    31   ar
    37    31    32   ar
    38    32    33   ar
    39    33    24   ar
    40    33    27   ar
    41     6     1   ar
    42    21    13   ar
    43    12     4    1
@<TRIPOS>MOLECULE
*****
 39 43 0 0 0
SMALL
GASTEIGER

@<TRIPOS>ATOM
      1 C           3.9557   -1.2707   22.3195 C.ar    1  UNL1       -0.0183
      2 C           2.9174   -0.5927   23.1633 C.ar    1  UNL1       -0.0043
      3 C           3.0469   -0.5949   24.6576 C.ar    1  UNL1       -0.0048
      4 C           4.2147   -1.2752   25.3082 C.ar    1  UNL1       -0.0228
      5 C           5.2531   -1.9533   24.4645 C.ar    1  UNL1       -0.0065
      6 C           5.1236   -1.9511   22.9701 C.ar    1  UNL1       -0.0069
      7 C           6.4209   -2.6336   25.1151 C.3     1  UNL1        0.1201
      8 N           6.5505   -2.6358   26.6094 N.am    1  UNL1       -0.2717
      9 C           7.7183   -3.3161   27.2600 C.2     1  UNL1        0.2486
     10 O           8.7567   -3.9942   26.4163 O.2     1  UNL1       -0.2699
     11 C           5.5121   -1.9577   27.4533 C.3     1  UNL1        0.0987
     12 C           4.3442   -1.2774   26.8027 C.3     1  UNL1        0.0476
     13 C           7.8478   -3.3183   28.7545 C.ar    1  UNL1        0.0451
     14 C           8.5209   -2.1728   29.4507 C.ar    1  UNL1       -0.0217
     15 C           9.0646   -1.0250   28.6524 C.3     1  UNL1        0.0308
     16 C           8.6504   -2.1749   30.9451 C.ar    1  UNL1       -0.0260
     17 C           9.3235   -1.0294   31.6413 C.3     1  UNL1        0.0307
     18 C           8.1067   -3.3227   31.7433 C.ar    1  UNL1       -0.0091
     19 C           7.4336   -4.4682   31.0471 C.ar    1  UNL1       -0.0260
     20 C           6.8899   -5.6160   31.8453 C.3     1  UNL1        0.0307
     21 C           7.3041   -4.4660   29.5527 C.ar    1  UNL1       -0.0217
     22 C           6.6310   -5.6116   28.8565 C.3     1  UNL1        0.0308
     23 C           3.8262   -1.2686   20.8250 C.3     1  UNL1        0.0498
     24 N           0.9393    3.1903   18.0884 N.ar    1  UNL1       -0.2318
     25 N           2.0858    4.1425   17.9185 N.ar    1  UNL1       -0.0639
     26 N           3.3104    3.5022   18.5019 N.ar    1  UNL1       -0.1291
     27 C           2.9208    2.1544   19.0324 C.ar    1  UNL1        0.1174
     28 C           3.7111    1.0777   19.7151 C.ar    1  UNL1       -0.0046
     29 C           5.1766    1.2705   19.9707 C.3     1  UNL1        0.0324
     30 C           3.0359   -0.1918   20.1423 C.ar    1  UNL1       -0.0204
     31 C           1.5705   -0.3847   19.8867 C.ar    1  UNL1       -0.0026
     32 C           0.7802    0.6920   19.2040 C.ar    1  UNL1        0.0200
     33 C           1.4554    1.9616   18.7768 C.ar    1  UNL1        0.0985
     34 C          -1.5008    3.8945   18.6362 C.3     1  UNL1        0.0285
     35 C          -0.4750    3.4255   17.6474 C.3     1  UNL1        0.1292
     36 C           4.4870   -2.3431   20.0134 C.3     1  UNL1        0.0504
     37 C           3.9365   -3.7383   20.0263 C.2     1  UNL1        0.0510
     38 O           4.3461   -4.6963   21.1055 O.co2   1  UNL1       -0.5491
     39 O           2.9765   -4.1756   18.9600 O.co2   1  UNL1       -0.5491
@<TRIPOS>UNITY_ATOM_ATTR
38 1
charge -1
@<TRIPOS>BOND
     1    34    35    1
     2    35    24    1
     3    24    25   ar
     4    25    26   ar
     5    26    27   ar
     6    27    28   ar
     7    28    29    1
     8    28    30   ar
     9    30    23    1
    10    23    36    1
    11    36    37    1
    12    37    38   ar
    13    37    39   ar
    14    23     1    1
    15     1     2   ar
    16     2     3   ar
    17     3     4   ar
    18     4     5   ar
    19     5     6   ar
    20     5     7    1
    21     7     8    1
    22     8     9   am
    23     9    10    2
    24     9    13    1
    25    13    14   ar
    26    14    15    1
    27    14    16   ar
    28    16    17    1
    29    16    18   ar
    30    18    19   ar
    31    19    20    1
    32    19    21   ar
    33    21    22    1
    34     8    11    1
    35    11    12    1
    36    30    31   ar
    37    31    32   ar
    38    32    33   ar
    39    33    24   ar
    40    33    27   ar
    41     6     1   ar
    42    21    13   ar
    43    12     4    1
@<TRIPOS>MOLECULE
*****
 39 43 0 0 0
SMALL
GASTEIGER

@<TRIPOS>ATOM
      1 C           6.4670   -2.8405   29.6349 C.ar    1  UNL1       -0.0183
      2 C           6.1459   -1.3884   29.4394 C.ar    1  UNL1       -0.0043
      3 C           6.0653   -0.8179   28.0545 C.ar    1  UNL1       -0.0048
      4 C           6.3058   -1.6996   26.8651 C.ar    1  UNL1       -0.0228
      5 C           6.6269   -3.1517   27.0605 C.ar    1  UNL1       -0.0065
      6 C           6.7075   -3.7221   28.4454 C.ar    1  UNL1       -0.0069
      7 C           6.8674   -4.0333   25.8710 C.3     1  UNL1        0.1201
      8 N           6.7868   -3.4628   24.4861 N.am    1  UNL1       -0.2717
      9 C           7.0273   -4.3445   23.2966 C.2     1  UNL1        0.2486
     10 O           7.3484   -5.7966   23.4920 O.2     1  UNL1       -0.2699
     11 C           6.4657   -2.0106   24.2906 C.3     1  UNL1        0.0987
     12 C           6.2252   -1.1290   25.4801 C.3     1  UNL1        0.0476
     13 C           6.9467   -3.7739   21.9116 C.ar    1  UNL1        0.0451
     14 C           8.2002   -3.3753   21.1906 C.ar    1  UNL1       -0.0217
     15 C           9.5343   -3.5473   21.8544 C.3     1  UNL1        0.0308
     16 C           8.1196   -2.8048   19.8056 C.ar    1  UNL1       -0.0260
     17 C           9.3730   -2.4062   19.0845 C.3     1  UNL1        0.0307
     18 C           6.7855   -2.6328   19.1418 C.ar    1  UNL1       -0.0091
     19 C           5.5320   -3.0314   19.8629 C.ar    1  UNL1       -0.0260
     20 C           4.1980   -2.8595   19.1991 C.3     1  UNL1        0.0307
     21 C           5.6127   -3.6019   21.2478 C.ar    1  UNL1       -0.0217
     22 C           4.3592   -4.0006   21.9689 C.3     1  UNL1        0.0308
     23 C           6.5475   -3.4111   31.0198 C.3     1  UNL1        0.0498
     24 N           5.5179    0.1137   35.7337 N.ar    1  UNL1       -0.2318
     25 N           6.8743    0.7421   35.8573 N.ar    1  UNL1       -0.0639
     26 N           7.7464    0.1789   34.7746 N.ar    1  UNL1       -0.1291
     27 C           6.9291   -0.7976   33.9820 C.ar    1  UNL1        0.1174
     28 C           7.2610   -1.6553   32.7970 C.ar    1  UNL1       -0.0046
     29 C           8.6384   -1.6150   32.2042 C.3     1  UNL1        0.0324
     30 C           6.2156   -2.5533   32.2048 C.ar    1  UNL1       -0.0204
     31 C           4.8382   -2.5937   32.7975 C.ar    1  UNL1       -0.0026
     32 C           4.5063   -1.7359   33.9825 C.ar    1  UNL1        0.0200
     33 C           5.5518   -0.8379   34.5747 C.ar    1  UNL1        0.0985
     34 C           4.4117    1.4624   37.6591 C.3     1  UNL1        0.0285
     35 C           4.3352    0.3886   36.6145 C.3     1  UNL1        0.1292
     36 C           6.9600   -4.8393   31.2198 C.3     1  UNL1        0.0504
     37 C           8.3691   -5.2612   30.9256 C.2     1  UNL1        0.0510
     38 O           9.5021   -4.7126   31.7413 O.co2   1  UNL1       -0.5491
     39 O           8.6451   -6.2316   29.8156 O.co2   1  UNL1       -0.5491
@<TRIPOS>UNITY_ATOM_ATTR
38 1
charge -1
@<TRIPOS>BOND
     1    34    35    1
     2    35    24    1
     3    24    25   ar
     4    25    26   ar
     5    26    27   ar
     6    27    28   ar
     7    28    29    1
     8    28    30   ar
     9    30    23    1
    10    23    36    1
    11    36    37    1
    12    37    38   ar
    13    37    39   ar
    14    23     1    1
    15     1     2   ar
    16     2     3   ar
    17     3     4   ar
    18     4     5   ar
    19     5     6   ar
    20     5     7    1
    21     7     8    1
    22     8     9   am
    23     9    10    2
    24     9    13    1
    25    13    14   ar
    26    14    15    1
    27    14    16   ar
    28    16    17    1
    29    16    18   ar
    30    18    19   ar
    31    19    20    1
    32    19    21   ar
    33    21    22    1
    34     8    11    1
    35    11    12    1
    36    30    31   ar
    37    31    32   ar
    38    32    33   ar
    39    33    24   ar
    40    33    27   ar
    41     6     1   ar
    42    21    13   ar
    43    12     4    1
@<TRIPOS>MOLECULE
*****
 39 43 0 0 0
SMALL
GASTEIGER

@<TRIPOS>ATOM
      1 C           4.6444   -1.3669   21.0155 C.ar    1  UNL1       -0.0183
      2 C           6.1214   -1.3770   20.7543 C.ar    1  UNL1       -0.0043
      3 C           7.0847   -1.4817   21.8993 C.ar    1  UNL1       -0.0048
      4 C           6.5710   -1.5762   23.3054 C.ar    1  UNL1       -0.0228
      5 C           5.0940   -1.5661   23.5666 C.ar    1  UNL1       -0.0065
      6 C           4.1307   -1.4614   22.4216 C.ar    1  UNL1       -0.0069
      7 C           4.5803   -1.6606   24.9727 C.3     1  UNL1        0.1201
      8 N           5.5436   -1.7653   26.1177 N.am    1  UNL1       -0.2717
      9 C           5.0299   -1.8598   27.5238 C.2     1  UNL1        0.2486
     10 O           3.5529   -1.8497   27.7849 O.2     1  UNL1       -0.2699
     11 C           7.0207   -1.7754   25.8566 C.3     1  UNL1        0.0987
     12 C           7.5344   -1.6809   24.4504 C.3     1  UNL1        0.0476
     13 C           5.9933   -1.9645   28.6688 C.ar    1  UNL1        0.0451
     14 C           6.5738   -3.2965   29.0412 C.ar    1  UNL1       -0.0217
     15 C           6.1908   -4.5239   28.2687 C.3     1  UNL1        0.0308
     16 C           7.5372   -3.4012   30.1862 C.ar    1  UNL1       -0.0260
     17 C           8.1176   -4.7332   30.5587 C.3     1  UNL1        0.0307
     18 C           7.9201   -2.1737   30.9587 C.ar    1  UNL1       -0.0091
     19 C           7.3396   -0.8416   30.5863 C.ar    1  UNL1       -0.0260
     20 C           7.7226    0.3858   31.3588 C.3     1  UNL1        0.0307
     21 C           6.3763   -0.7370   29.4413 C.ar    1  UNL1       -0.0217
     22 C           5.7958    0.5951   29.0688 C.3     1  UNL1        0.0308
     23 C           3.6810   -1.2622   19.8705 C.3     1  UNL1        0.0498
     24 N          -0.4465    3.0585   19.8617 N.ar    1  UNL1       -0.2318
     25 N           0.3874    4.1782   19.3131 N.ar    1  UNL1       -0.0639
     26 N           1.7682    3.6483   19.0631 N.ar    1  UNL1       -0.1291
     27 C           1.7877    2.2011   19.4573 C.ar    1  UNL1        0.1174
     28 C           2.8751    1.1682   19.4305 C.ar    1  UNL1       -0.0046
     29 C           4.2439    1.5327   18.9369 C.3     1  UNL1        0.0324
     30 C           2.5936   -0.2293   19.8973 C.ar    1  UNL1       -0.0204
     31 C           1.2248   -0.5938   20.3908 C.ar    1  UNL1       -0.0026
     32 C           0.1375    0.4391   20.4176 C.ar    1  UNL1        0.0200
     33 C           0.4190    1.8366   19.9508 C.ar    1  UNL1        0.0985
     34 C          -2.8580    3.9023   19.3900 C.3     1  UNL1        0.0285
     35 C          -1.8920    3.1454   20.2526 C.3     1  UNL1        0.1292
     36 C           3.8049   -2.1905   18.6988 C.3     1  UNL1        0.0504
     37 C           4.5854   -1.7707   17.4886 C.2     1  UNL1        0.0510
     38 O           3.9087   -1.0113   16.3860 O.co2   1  UNL1       -0.5491
     39 O           6.0425   -2.1102   17.3809 O.co2   1  UNL1       -0.5491
@<TRIPOS>UNITY_ATOM_ATTR
38 1
charge -1
@<TRIPOS>BOND
     1    34    35    1
     2    35    24    1
     3    24    25   ar
     4    25    26   ar
     5    26    27   ar
     6    27    28   ar
     7    28    29    1
     8    28    30   ar
     9    30    23    1
    10    23    36    1
    11    36    37    1
    12    37    38   ar
    13    37    39   ar
    14    23     1    1
    15     1     2   ar
    16     2     3   ar
    17     3     4   ar
    18     4     5   ar
    19     5     6   ar
    20     5     7    1
    21     7     8    1
    22     8     9   am
    23     9    10    2
    24     9    13    1
    25    13    14   ar
    26    14    15    1
    27    14    16   ar
    28    16    17    1
    29    16    18   ar
    30    18    19   ar
    31    19    20    1
    32    19    21   ar
    33    21    22    1
    34     8    11    1
    35    11    12    1
    36    30    31   ar
    37    31    32   ar
    38    32    33   ar
    39    33    24   ar
    40    33    27   ar
    41     6     1   ar
    42    21    13   ar
    43    12     4    1
@<TRIPOS>MOLECULE
*****
 39 43 0 0 0
SMALL
GASTEIGER

@<TRIPOS>ATOM
      1 C           1.0492    2.0052   26.3007 C.ar    1  UNL1       -0.0183
      2 C          -0.0201    2.2774   25.2847 C.ar    1  UNL1       -0.0043
      3 C           0.1426    1.7898   23.8756 C.ar    1  UNL1       -0.0048
      4 C           1.3747    1.0299   23.4825 C.ar    1  UNL1       -0.0228
      5 C           2.4441    0.7577   24.4985 C.ar    1  UNL1       -0.0065
      6 C           2.2813    1.2453   25.9077 C.ar    1  UNL1       -0.0069
      7 C           3.6762   -0.0022   24.1054 C.3     1  UNL1        0.1201
      8 N           3.8389   -0.4899   22.6963 N.am    1  UNL1       -0.2717
      9 C           5.0710   -1.2498   22.3032 C.2     1  UNL1        0.2486
     10 O           6.1403   -1.5220   23.3193 O.2     1  UNL1       -0.2699
     11 C           2.7696   -0.2176   21.6802 C.3     1  UNL1        0.0987
     12 C           1.5375    0.5423   22.0733 C.3     1  UNL1        0.0476
     13 C           5.2338   -1.7374   20.8940 C.ar    1  UNL1        0.0451
     14 C           5.7858   -0.8213   19.8424 C.ar    1  UNL1       -0.0217
     15 C           6.1752    0.5825   20.1999 C.3     1  UNL1        0.0308
     16 C           5.9485   -1.3089   18.4332 C.ar    1  UNL1       -0.0260
     17 C           6.5006   -0.3928   17.3816 C.3     1  UNL1        0.0307
     18 C           5.5592   -2.7127   18.0757 C.ar    1  UNL1       -0.0091
     19 C           5.0071   -3.6288   19.1274 C.ar    1  UNL1       -0.0260
     20 C           4.6178   -5.0326   18.7699 C.3     1  UNL1        0.0307
     21 C           4.8444   -3.1412   20.5365 C.ar    1  UNL1       -0.0217
     22 C           4.2923   -4.0573   21.5882 C.3     1  UNL1        0.0308
     23 C           0.8865    2.4928   27.7100 C.3     1  UNL1        0.0498
     24 N           4.3732    0.2562   32.0164 N.ar    1  UNL1       -0.2318
     25 N           3.6579   -1.0422   32.2464 N.ar    1  UNL1       -0.0639
     26 N           2.4865   -1.0981   31.3112 N.ar    1  UNL1       -0.1291
     27 C           2.4778    0.1656   30.5032 C.ar    1  UNL1        0.1174
     28 C           1.5587    0.6624   29.4268 C.ar    1  UNL1       -0.0046
     29 C           0.3926   -0.1746   28.9910 C.3     1  UNL1        0.0324
     30 C           1.8056    1.9961   28.7863 C.ar    1  UNL1       -0.0204
     31 C           2.9716    2.8331   29.2221 C.ar    1  UNL1       -0.0026
     32 C           3.8907    2.3363   30.2985 C.ar    1  UNL1        0.0200
     33 C           3.6437    1.0026   30.9390 C.ar    1  UNL1        0.0985
     34 C           6.2003   -0.1155   33.8256 C.3     1  UNL1        0.0285
     35 C           5.6020    0.7256   32.7372 C.3     1  UNL1        0.1292
     36 C          -0.1953    3.4772   28.0428 C.3     1  UNL1        0.0504
     37 C           0.1111    4.9451   28.0770 C.2     1  UNL1        0.0510
     38 O          -0.6539    5.8497   28.9972 O.co2   1  UNL1       -0.5491
     39 O           1.1823    5.5086   27.1910 O.co2   1  UNL1       -0.5491
@<TRIPOS>UNITY_ATOM_ATTR
38 1
charge -1
@<TRIPOS>BOND
     1    34    35    1
     2    35    24    1
     3    24    25   ar
     4    25    26   ar
     5    26    27   ar
     6    27    28   ar
     7    28    29    1
     8    28    30   ar
     9    30    23    1
    10    23    36    1
    11    36    37    1
    12    37    38   ar
    13    37    39   ar
    14    23     1    1
    15     1     2   ar
    16     2     3   ar
    17     3     4   ar
    18     4     5   ar
    19     5     6   ar
    20     5     7    1
    21     7     8    1
    22     8     9   am
    23     9    10    2
    24     9    13    1
    25    13    14   ar
    26    14    15    1
    27    14    16   ar
    28    16    17    1
    29    16    18   ar
    30    18    19   ar
    31    19    20    1
    32    19    21   ar
    33    21    22    1
    34     8    11    1
    35    11    12    1
    36    30    31   ar
    37    31    32   ar
    38    32    33   ar
    39    33    24   ar
    40    33    27   ar
    41     6     1   ar
    42    21    13   ar
    43    12     4    1
@<TRIPOS>MOLECULE
*****
 39 43 0 0 0
SMALL
GASTEIGER

@<TRIPOS>ATOM
      1 C           6.2358   -2.2448   29.6415 C.ar    1  UNL1       -0.0183
      2 C           5.2044   -1.1572   29.5842 C.ar    1  UNL1       -0.0043
      3 C           4.7329   -0.6399   28.2575 C.ar    1  UNL1       -0.0048
      4 C           5.2928   -1.2102   26.9882 C.ar    1  UNL1       -0.0228
      5 C           6.3242   -2.2978   27.0455 C.ar    1  UNL1       -0.0065
      6 C           6.7957   -2.8151   28.3721 C.ar    1  UNL1       -0.0069
      7 C           6.8841   -2.8681   25.7761 C.3     1  UNL1        0.1201
      8 N           6.4126   -2.3508   24.4494 N.am    1  UNL1       -0.2717
      9 C           6.9725   -2.9211   23.1801 C.2     1  UNL1        0.2486
     10 O           8.0038   -4.0087   23.2374 O.2     1  UNL1       -0.2699
     11 C           5.3811   -1.2632   24.3921 C.3     1  UNL1        0.0987
     12 C           4.8212   -0.6929   25.6615 C.3     1  UNL1        0.0476
     13 C           6.5009   -2.4037   21.8534 C.ar    1  UNL1        0.0451
     14 C           5.2386   -2.9391   21.2453 C.ar    1  UNL1       -0.0217
     15 C           4.4477   -3.9918   21.9639 C.3     1  UNL1        0.0308
     16 C           4.7670   -2.4217   19.9186 C.ar    1  UNL1       -0.0260
     17 C           3.5046   -2.9570   19.3105 C.3     1  UNL1        0.0307
     18 C           5.5579   -1.3690   19.2000 C.ar    1  UNL1       -0.0091
     19 C           6.8203   -0.8337   19.8082 C.ar    1  UNL1       -0.0260
     20 C           7.6112    0.2190   19.0896 C.3     1  UNL1        0.0307
     21 C           7.2918   -1.3510   21.1348 C.ar    1  UNL1       -0.0217
     22 C           8.5542   -0.8157   21.7430 C.3     1  UNL1        0.0308
     23 C           6.7073   -2.7622   30.9682 C.3     1  UNL1        0.0498
     24 N           5.3961    0.1990   35.9898 N.ar    1  UNL1       -0.2318
     25 N           6.6346    1.0386   36.0970 N.ar    1  UNL1       -0.0639
     26 N           7.5205    0.7086   34.9325 N.ar    1  UNL1       -0.1291
     27 C           6.8297   -0.3349   34.1055 C.ar    1  UNL1        0.1174
     28 C           7.2265   -1.0390   32.8419 C.ar    1  UNL1       -0.0046
     29 C           8.5396   -0.7241   32.1885 C.3     1  UNL1        0.0324
     30 C           6.3105   -2.0581   32.2318 C.ar    1  UNL1       -0.0204
     31 C           4.9975   -2.3730   32.8852 C.ar    1  UNL1       -0.0026
     32 C           4.6006   -1.6689   34.1488 C.ar    1  UNL1        0.0200
     33 C           5.5168   -0.6498   34.7590 C.ar    1  UNL1        0.0985
     34 C           4.1561    1.2583   38.0122 C.3     1  UNL1        0.0285
     35 C           4.2401    0.2070   36.9455 C.3     1  UNL1        0.1292
     36 C           7.5756   -3.9837   31.0312 C.3     1  UNL1        0.0504
     37 C           6.9665   -5.3457   30.8770 C.2     1  UNL1        0.0510
     38 O           6.6128   -6.1510   32.0921 O.co2   1  UNL1       -0.5491
     39 O           6.7110   -5.9024   29.5078 O.co2   1  UNL1       -0.5491
@<TRIPOS>UNITY_ATOM_ATTR
38 1
charge -1
@<TRIPOS>BOND
     1    34    35    1
     2    35    24    1
     3    24    25   ar
     4    25    26   ar
     5    26    27   ar
     6    27    28   ar
     7    28    29    1
     8    28    30   ar
     9    30    23    1
    10    23    36    1
    11    36    37    1
    12    37    38   ar
    13    37    39   ar
    14    23     1    1
    15     1     2   ar
    16     2     3   ar
    17     3     4   ar
    18     4     5   ar
    19     5     6   ar
    20     5     7    1
    21     7     8    1
    22     8     9   am
    23     9    10    2
    24     9    13    1
    25    13    14   ar
    26    14    15    1
    27    14    16   ar
    28    16    17    1
    29    16    18   ar
    30    18    19   ar
    31    19    20    1
    32    19    21   ar
    33    21    22    1
    34     8    11    1
    35    11    12    1
    36    30    31   ar
    37    31    32   ar
    38    32    33   ar
    39    33    24   ar
    40    33    27   ar
    41     6     1   ar
    42    21    13   ar
    43    12     4    1
