@<TRIPOS>MOLECULE
*****
 32 36 0 0 0
SMALL
GASTEIGER

@<TRIPOS>ATOM
      1 C          -7.9987  -17.0302   23.9442 C.ar    1  UNL1        0.1012
      2 C          -6.8292  -17.5332   23.1509 C.ar    1  UNL1        0.1010
      3 N          -5.5793  -16.9708   23.7607 N.ar    1  UNL1       -0.2205
      4 C          -5.9764  -16.1203   24.9307 C.ar    1  UNL1        0.1795
      5 S          -5.4494  -15.2472   26.0306 S.2     1  UNL1       -0.0480
      6 C          -6.6189  -14.7442   26.8238 C.ar    1  UNL1        0.0573
      7 C          -7.8688  -15.3065   26.2142 C.ar    1  UNL1        0.0890
      8 N          -7.4717  -16.1570   25.0441 N.ar    1  UNL1       -0.2818
      9 C         -11.5674  -17.1007   22.2094 C.ar    1  UNL1        0.2724
     10 N         -12.3283  -17.9750   23.1616 N.ar    1  UNL1       -0.2094
     11 C         -11.6460  -18.5344   24.3747 C.ar    1  UNL1        0.1035
     12 C         -10.2028  -18.2195   24.6356 C.ar    1  UNL1        0.0414
     13 C          -9.4419  -17.3451   23.6833 C.ar    1  UNL1        0.1033
     14 N         -10.1242  -16.7858   22.4703 N.ar    1  UNL1       -0.2094
     15 C         -12.9320  -15.9818   19.7832 C.3     1  UNL1        0.1853
     16 S         -12.2497  -16.5413   20.9963 S.O2    1  UNL1        0.0441
     17 O         -13.3847  -17.5025   21.1914 O.2     1  UNL1       -0.1656
     18 O         -11.1148  -15.5801   20.8013 O.2     1  UNL1       -0.1656
     19 C          -6.8975  -18.4393   21.9576 C.ar    1  UNL1        0.0222
     20 C          -8.0800  -18.3789   21.0366 C.ar    1  UNL1        0.0017
     21 C          -8.1482  -19.2850   19.8433 C.ar    1  UNL1        0.0032
     22 C          -7.0340  -20.2517   19.5708 C.ar    1  UNL1        0.0369
     23 C          -5.8516  -20.3122   20.4917 C.ar    1  UNL1        0.1391
     24 C          -5.7833  -19.4060   21.6851 C.ar    1  UNL1        0.0385
     25 O          -4.7374  -21.2789   20.2193 O.3     1  UNL1       -0.4706
     26 C          -3.4191  -20.7789   19.7077 C.3     1  UNL1        0.2320
     27 C          -2.8595  -19.4836   20.2165 C.ar    1  UNL1        0.0212
     28 C          -2.4398  -19.3599   21.6513 C.ar    1  UNL1       -0.0007
     29 C          -1.8803  -18.0645   22.1602 C.ar    1  UNL1       -0.0002
     30 C          -1.7404  -16.8927   21.2341 C.ar    1  UNL1       -0.0000
     31 C          -2.1601  -17.0165   19.7994 C.ar    1  UNL1       -0.0002
     32 C          -2.7196  -18.3118   19.2906 C.ar    1  UNL1       -0.0007
@<TRIPOS>BOND
     1    15    16    1
     2    16    17    2
     3    16    18    2
     4    16     9    1
     5     9    10   ar
     6    10    11   ar
     7    11    12   ar
     8    12    13   ar
     9    13     1    1
    10     1     2   ar
    11     2    19    1
    12    19    20   ar
    13    20    21   ar
    14    21    22   ar
    15    22    23   ar
    16    23    25    1
    17    25    26    1
    18    26    27    1
    19    27    28   ar
    20    28    29   ar
    21    29    30   ar
    22    30    31   ar
    23    31    32   ar
    24    23    24   ar
    25     2     3   ar
    26     3     4   ar
    27     4     5   ar
    28     5     6   ar
    29     6     7   ar
    30     7     8   ar
    31    13    14   ar
    32    14     9   ar
    33     8     1   ar
    34    24    19   ar
    35     8     4   ar
    36    32    27   ar
@<TRIPOS>MOLECULE
*****
 32 36 0 0 0
SMALL
GASTEIGER

@<TRIPOS>ATOM
      1 C          -9.4988  -17.2811   22.3227 C.ar    1  UNL1        0.1012
      2 C          -9.3029  -18.5368   21.5257 C.ar    1  UNL1        0.1010
      3 N         -10.6518  -19.0171   21.0787 N.ar    1  UNL1       -0.2205
      4 C         -11.6812  -18.0584   21.5993 C.ar    1  UNL1        0.1795
      5 S         -13.1511  -17.7629   21.6448 S.2     1  UNL1       -0.0480
      6 C         -13.3470  -16.5073   22.4417 C.ar    1  UNL1        0.0573
      7 C         -11.9981  -16.0269   22.8888 C.ar    1  UNL1        0.0890
      8 N         -10.9687  -16.9855   22.3682 N.ar    1  UNL1       -0.2818
      9 C          -7.1513  -15.6746   25.0901 C.ar    1  UNL1        0.2724
     10 N          -6.2475  -14.8312   24.2404 N.ar    1  UNL1       -0.2094
     11 C          -6.4275  -14.8044   22.7514 C.ar    1  UNL1        0.1035
     12 C          -7.5113  -15.6211   22.1122 C.ar    1  UNL1        0.0414
     13 C          -8.4150  -16.4645   22.9619 C.ar    1  UNL1        0.1033
     14 N          -8.2350  -16.4912   24.4508 N.ar    1  UNL1       -0.2094
     15 C          -6.7912  -15.7282   28.0679 C.3     1  UNL1        0.1853
     16 S          -6.9713  -15.7014   26.5790 S.O2    1  UNL1        0.0441
     17 O          -8.3643  -16.2348   26.7378 O.2     1  UNL1       -0.1656
     18 O          -5.5783  -15.1680   26.4202 O.2     1  UNL1       -0.1656
     19 C          -7.9889  -19.1961   21.2281 C.ar    1  UNL1        0.0222
     20 C          -7.7894  -19.9180   19.9284 C.ar    1  UNL1        0.0017
     21 C          -6.4754  -20.5774   19.6308 C.ar    1  UNL1        0.0032
     22 C          -5.3609  -20.5150   20.6329 C.ar    1  UNL1        0.0369
     23 C          -5.5604  -19.7931   21.9325 C.ar    1  UNL1        0.1391
     24 C          -6.8745  -19.1337   22.2301 C.ar    1  UNL1        0.0385
     25 O          -4.4459  -19.7307   22.9345 O.3     1  UNL1       -0.4706
     26 C          -3.6930  -18.4498   23.1400 C.3     1  UNL1        0.2320
     27 C          -2.6760  -18.0073   22.1301 C.ar    1  UNL1        0.0212
     28 C          -2.0626  -19.0075   21.1955 C.ar    1  UNL1       -0.0007
     29 C          -1.0456  -18.5650   20.1856 C.ar    1  UNL1       -0.0002
     30 C          -0.6419  -17.1223   20.1103 C.ar    1  UNL1       -0.0000
     31 C          -1.2553  -16.1222   21.0449 C.ar    1  UNL1       -0.0002
     32 C          -2.2723  -16.5646   22.0548 C.ar    1  UNL1       -0.0007
@<TRIPOS>BOND
     1    15    16    1
     2    16    17    2
     3    16    18    2
     4    16     9    1
     5     9    10   ar
     6    10    11   ar
     7    11    12   ar
     8    12    13   ar
     9    13     1    1
    10     1     2   ar
    11     2    19    1
    12    19    20   ar
    13    20    21   ar
    14    21    22   ar
    15    22    23   ar
    16    23    25    1
    17    25    26    1
    18    26    27    1
    19    27    28   ar
    20    28    29   ar
    21    29    30   ar
    22    30    31   ar
    23    31    32   ar
    24    23    24   ar
    25     2     3   ar
    26     3     4   ar
    27     4     5   ar
    28     5     6   ar
    29     6     7   ar
    30     7     8   ar
    31    13    14   ar
    32    14     9   ar
    33     8     1   ar
    34    24    19   ar
    35     8     4   ar
    36    32    27   ar
@<TRIPOS>MOLECULE
*****
 32 36 0 0 0
SMALL
GASTEIGER

@<TRIPOS>ATOM
      1 C          -4.6144  -17.9689   21.8158 C.ar    1  UNL1        0.1012
      2 C          -4.1707  -16.9347   22.8076 C.ar    1  UNL1        0.1010
      3 N          -2.8143  -16.4466   22.3928 N.ar    1  UNL1       -0.2205
      4 C          -2.4197  -17.1791   21.1447 C.ar    1  UNL1        0.1795
      5 S          -1.3376  -17.3301   20.1170 S.2     1  UNL1       -0.0480
      6 C          -1.7813  -18.3643   19.1253 C.ar    1  UNL1        0.0573
      7 C          -3.1376  -18.8524   19.5400 C.ar    1  UNL1        0.0890
      8 N          -3.5322  -18.1199   20.7881 N.ar    1  UNL1       -0.2818
      9 C          -8.4201  -18.9066   21.1933 C.ar    1  UNL1        0.2724
     10 N          -8.5082  -20.2227   21.9075 N.ar    1  UNL1       -0.2094
     11 C          -7.2984  -20.7876   22.5911 C.ar    1  UNL1        0.1035
     12 C          -6.0005  -20.0364   22.5605 C.ar    1  UNL1        0.0414
     13 C          -5.9123  -18.7202   21.8463 C.ar    1  UNL1        0.1033
     14 N          -7.1221  -18.1553   21.1628 N.ar    1  UNL1       -0.2094
     15 C         -10.8397  -17.7768   19.8261 C.3     1  UNL1        0.1853
     16 S          -9.6299  -18.3417   20.5097 S.O2    1  UNL1        0.0441
     17 O          -9.1775  -16.9540   20.8559 O.2     1  UNL1       -0.1656
     18 O         -10.0822  -19.7293   20.1636 O.2     1  UNL1       -0.1656
     19 C          -4.9470  -16.4702   24.0039 C.ar    1  UNL1        0.0222
     20 C          -4.3113  -16.4847   25.3625 C.ar    1  UNL1        0.0017
     21 C          -5.0876  -16.0203   26.5589 C.ar    1  UNL1        0.0032
     22 C          -6.4998  -15.5411   26.3969 C.ar    1  UNL1        0.0369
     23 C          -7.1356  -15.5265   25.0384 C.ar    1  UNL1        0.1391
     24 C          -6.3592  -15.9911   23.8419 C.ar    1  UNL1        0.0385
     25 O          -8.5478  -15.0474   24.8763 O.3     1  UNL1       -0.4706
     26 C          -9.4094  -15.6084   23.7842 C.3     1  UNL1        0.2320
     27 C         -10.1112  -16.9194   23.9812 C.ar    1  UNL1        0.0212
     28 C         -11.4797  -17.1317   23.4048 C.ar    1  UNL1       -0.0007
     29 C         -12.1814  -18.4427   23.6017 C.ar    1  UNL1       -0.0002
     30 C         -11.5146  -19.5415   24.3751 C.ar    1  UNL1       -0.0000
     31 C         -10.1462  -19.3292   24.9514 C.ar    1  UNL1       -0.0002
     32 C          -9.4444  -18.0182   24.7545 C.ar    1  UNL1       -0.0007
@<TRIPOS>BOND
     1    15    16    1
     2    16    17    2
     3    16    18    2
     4    16     9    1
     5     9    10   ar
     6    10    11   ar
     7    11    12   ar
     8    12    13   ar
     9    13     1    1
    10     1     2   ar
    11     2    19    1
    12    19    20   ar
    13    20    21   ar
    14    21    22   ar
    15    22    23   ar
    16    23    25    1
    17    25    26    1
    18    26    27    1
    19    27    28   ar
    20    28    29   ar
    21    29    30   ar
    22    30    31   ar
    23    31    32   ar
    24    23    24   ar
    25     2     3   ar
    26     3     4   ar
    27     4     5   ar
    28     5     6   ar
    29     6     7   ar
    30     7     8   ar
    31    13    14   ar
    32    14     9   ar
    33     8     1   ar
    34    24    19   ar
    35     8     4   ar
    36    32    27   ar
@<TRIPOS>MOLECULE
*****
 32 36 0 0 0
SMALL
GASTEIGER

@<TRIPOS>ATOM
      1 C         -10.0740  -17.7848   21.7828 C.ar    1  UNL1        0.1012
      2 C          -9.2487  -18.3061   20.6438 C.ar    1  UNL1        0.1010
      3 N          -9.8659  -17.8228   19.3650 N.ar    1  UNL1       -0.2205
      4 C         -11.0727  -17.0029   19.7135 C.ar    1  UNL1        0.1795
      5 S         -12.1999  -16.1975   19.1385 S.2     1  UNL1       -0.0480
      6 C         -13.0252  -15.6762   20.2775 C.ar    1  UNL1        0.0573
      7 C         -12.4080  -16.1595   21.5564 C.ar    1  UNL1        0.0890
      8 N         -11.2013  -16.9794   21.2078 N.ar    1  UNL1       -0.2818
      9 C          -8.9488  -17.1887   25.5416 C.ar    1  UNL1        0.2724
     10 N          -9.3035  -18.5101   26.1566 N.ar    1  UNL1       -0.2094
     11 C          -9.9150  -19.5897   25.3137 C.ar    1  UNL1        0.1035
     12 C         -10.1719  -19.3480   23.8558 C.ar    1  UNL1        0.0414
     13 C          -9.8172  -18.0266   23.2408 C.ar    1  UNL1        0.1033
     14 N          -9.2057  -16.9470   24.0837 N.ar    1  UNL1       -0.2094
     15 C          -7.7258  -15.0294   27.2273 C.3     1  UNL1        0.1853
     16 S          -8.3373  -16.1091   26.3845 S.O2    1  UNL1        0.0441
     17 O          -8.5286  -16.9558   27.6079 O.2     1  UNL1       -0.1656
     18 O          -8.1460  -15.2624   25.1612 O.2     1  UNL1       -0.1656
     19 C          -8.0217  -19.1606   20.7629 C.ar    1  UNL1        0.0222
     20 C          -7.8105  -20.3057   19.8172 C.ar    1  UNL1        0.0017
     21 C          -6.5835  -21.1602   19.9362 C.ar    1  UNL1        0.0032
     22 C          -5.5676  -20.8696   21.0010 C.ar    1  UNL1        0.0369
     23 C          -5.7787  -19.7246   21.9467 C.ar    1  UNL1        0.1391
     24 C          -7.0058  -18.8701   21.8276 C.ar    1  UNL1        0.0385
     25 O          -4.7628  -19.4341   23.0113 O.3     1  UNL1       -0.4706
     26 C          -4.0415  -18.1191   23.0209 C.3     1  UNL1        0.2320
     27 C          -2.9225  -17.8704   22.0534 C.ar    1  UNL1        0.0212
     28 C          -2.4074  -18.9901   21.1984 C.ar    1  UNL1       -0.0007
     29 C          -1.2884  -18.7414   20.2309 C.ar    1  UNL1       -0.0002
     30 C          -0.6844  -17.3730   20.1185 C.ar    1  UNL1       -0.0000
     31 C          -1.1995  -16.2534   20.9735 C.ar    1  UNL1       -0.0002
     32 C          -2.3185  -16.5020   21.9409 C.ar    1  UNL1       -0.0007
@<TRIPOS>BOND
     1    15    16    1
     2    16    17    2
     3    16    18    2
     4    16     9    1
     5     9    10   ar
     6    10    11   ar
     7    11    12   ar
     8    12    13   ar
     9    13     1    1
    10     1     2   ar
    11     2    19    1
    12    19    20   ar
    13    20    21   ar
    14    21    22   ar
    15    22    23   ar
    16    23    25    1
    17    25    26    1
    18    26    27    1
    19    27    28   ar
    20    28    29   ar
    21    29    30   ar
    22    30    31   ar
    23    31    32   ar
    24    23    24   ar
    25     2     3   ar
    26     3     4   ar
    27     4     5   ar
    28     5     6   ar
    29     6     7   ar
    30     7     8   ar
    31    13    14   ar
    32    14     9   ar
    33     8     1   ar
    34    24    19   ar
    35     8     4   ar
    36    32    27   ar
@<TRIPOS>MOLECULE
*****
 32 36 0 0 0
SMALL
GASTEIGER

@<TRIPOS>ATOM
      1 C          -5.2409  -17.3774   23.0538 C.ar    1  UNL1        0.1012
      2 C          -6.5335  -17.9975   22.6125 C.ar    1  UNL1        0.1010
      3 N          -7.6385  -17.3973   23.4304 N.ar    1  UNL1       -0.2205
      4 C          -7.0288  -16.4063   24.3771 C.ar    1  UNL1        0.1795
      5 S          -7.3350  -15.4229   25.4676 S.2     1  UNL1       -0.0480
      6 C          -6.0424  -14.8029   25.9089 C.ar    1  UNL1        0.0573
      7 C          -4.9374  -15.4030   25.0910 C.ar    1  UNL1        0.0890
      8 N          -5.5471  -16.3940   24.1443 N.ar    1  UNL1       -0.2818
      9 C          -2.2619  -17.8654   20.4775 C.ar    1  UNL1        0.2724
     10 N          -1.1611  -18.3045   21.3969 N.ar    1  UNL1       -0.2094
     11 C          -1.4201  -18.4346   22.8687 C.ar    1  UNL1        0.1035
     12 C          -2.7801  -18.1255   23.4210 C.ar    1  UNL1        0.0414
     13 C          -3.8810  -17.6864   22.5015 C.ar    1  UNL1        0.1033
     14 N          -3.6218  -17.5564   21.0298 N.ar    1  UNL1       -0.2094
     15 C          -1.7437  -17.6053   17.5341 C.3     1  UNL1        0.1853
     16 S          -2.0028  -17.7354   19.0057 S.O2    1  UNL1        0.0441
     17 O          -3.3598  -17.1232   18.8210 O.2     1  UNL1       -0.1656
     18 O          -0.6460  -18.3475   19.1906 O.2     1  UNL1       -0.1656
     19 C          -6.6931  -19.0354   21.5415 C.ar    1  UNL1        0.0222
     20 C          -5.7529  -20.2027   21.4822 C.ar    1  UNL1        0.0017
     21 C          -5.9125  -21.2406   20.4112 C.ar    1  UNL1        0.0032
     22 C          -7.0123  -21.1114   19.3994 C.ar    1  UNL1        0.0369
     23 C          -7.9525  -19.9441   19.4586 C.ar    1  UNL1        0.1391
     24 C          -7.7929  -18.9061   20.5297 C.ar    1  UNL1        0.0385
     25 O          -9.0523  -19.8149   18.4468 O.3     1  UNL1       -0.4706
     26 C         -10.4853  -19.8952   18.8823 C.3     1  UNL1        0.2320
     27 C         -10.9598  -19.0867   20.0533 C.ar    1  UNL1        0.0212
     28 C         -11.1083  -19.7318   21.3994 C.ar    1  UNL1       -0.0007
     29 C         -11.5828  -18.9233   22.5704 C.ar    1  UNL1       -0.0002
     30 C         -11.9088  -17.4696   22.3952 C.ar    1  UNL1       -0.0000
     31 C         -11.7603  -16.8246   21.0492 C.ar    1  UNL1       -0.0002
     32 C         -11.2859  -17.6331   19.8782 C.ar    1  UNL1       -0.0007
@<TRIPOS>BOND
     1    15    16    1
     2    16    17    2
     3    16    18    2
     4    16     9    1
     5     9    10   ar
     6    10    11   ar
     7    11    12   ar
     8    12    13   ar
     9    13     1    1
    10     1     2   ar
    11     2    19    1
    12    19    20   ar
    13    20    21   ar
    14    21    22   ar
    15    22    23   ar
    16    23    25    1
    17    25    26    1
    18    26    27    1
    19    27    28   ar
    20    28    29   ar
    21    29    30   ar
    22    30    31   ar
    23    31    32   ar
    24    23    24   ar
    25     2     3   ar
    26     3     4   ar
    27     4     5   ar
    28     5     6   ar
    29     6     7   ar
    30     7     8   ar
    31    13    14   ar
    32    14     9   ar
    33     8     1   ar
    34    24    19   ar
    35     8     4   ar
    36    32    27   ar
@<TRIPOS>MOLECULE
*****
 32 36 0 0 0
SMALL
GASTEIGER

@<TRIPOS>ATOM
      1 C          -5.5871  -18.1372   22.1952 C.ar    1  UNL1        0.1012
      2 C          -6.2148  -19.3469   21.5684 C.ar    1  UNL1        0.1010
      3 N          -5.1138  -20.2254   21.0522 N.ar    1  UNL1       -0.2205
      4 C          -3.8059  -19.5586   21.3600 C.ar    1  UNL1        0.1795
      5 S          -2.3172  -19.6894   21.2312 S.2     1  UNL1       -0.0480
      6 C          -1.6896  -18.4798   21.8580 C.ar    1  UNL1        0.0573
      7 C          -2.7905  -17.6013   22.3742 C.ar    1  UNL1        0.0890
      8 N          -4.0984  -18.2681   22.0664 N.ar    1  UNL1       -0.2818
      9 C          -6.9148  -15.6123   24.9542 C.ar    1  UNL1        0.2724
     10 N          -7.7848  -14.7163   24.1234 N.ar    1  UNL1       -0.2094
     11 C          -7.9222  -14.9606   22.6498 C.ar    1  UNL1        0.1035
     12 C          -7.1897  -16.1009   22.0070 C.ar    1  UNL1        0.0414
     13 C          -6.3197  -16.9969   22.8379 C.ar    1  UNL1        0.1033
     14 N          -6.1822  -16.7526   24.3115 N.ar    1  UNL1       -0.2094
     15 C          -6.6398  -15.1237   27.9014 C.3     1  UNL1        0.1853
     16 S          -6.7773  -15.3680   26.4278 S.O2    1  UNL1        0.0441
     17 O          -8.1032  -16.0296   26.6612 O.2     1  UNL1       -0.1656
     18 O          -5.4515  -14.7065   26.1944 O.2     1  UNL1       -0.1656
     19 C          -7.6850  -19.6287   21.4743 C.ar    1  UNL1        0.0222
     20 C          -8.3741  -19.5813   20.1427 C.ar    1  UNL1        0.0017
     21 C          -9.8443  -19.8631   20.0487 C.ar    1  UNL1        0.0032
     22 C         -10.6256  -20.1922   21.2862 C.ar    1  UNL1        0.0369
     23 C          -9.9366  -20.2396   22.6177 C.ar    1  UNL1        0.1391
     24 C          -8.4662  -19.9578   22.7117 C.ar    1  UNL1        0.0385
     25 O         -10.7179  -20.5687   23.8551 O.3     1  UNL1       -0.4706
     26 C         -11.4665  -19.4890   24.5788 C.3     1  UNL1        0.2320
     27 C         -11.7857  -18.2004   23.8805 C.ar    1  UNL1        0.0212
     28 C         -13.1760  -17.9432   23.3795 C.ar    1  UNL1       -0.0007
     29 C         -13.4952  -16.6545   22.6813 C.ar    1  UNL1       -0.0002
     30 C         -12.4240  -15.6231   22.4840 C.ar    1  UNL1       -0.0000
     31 C         -11.0338  -15.8804   22.9850 C.ar    1  UNL1       -0.0002
     32 C         -10.7146  -17.1690   23.6832 C.ar    1  UNL1       -0.0007
@<TRIPOS>BOND
     1    15    16    1
     2    16    17    2
     3    16    18    2
     4    16     9    1
     5     9    10   ar
     6    10    11   ar
     7    11    12   ar
     8    12    13   ar
     9    13     1    1
    10     1     2   ar
    11     2    19    1
    12    19    20   ar
    13    20    21   ar
    14    21    22   ar
    15    22    23   ar
    16    23    25    1
    17    25    26    1
    18    26    27    1
    19    27    28   ar
    20    28    29   ar
    21    29    30   ar
    22    30    31   ar
    23    31    32   ar
    24    23    24   ar
    25     2     3   ar
    26     3     4   ar
    27     4     5   ar
    28     5     6   ar
    29     6     7   ar
    30     7     8   ar
    31    13    14   ar
    32    14     9   ar
    33     8     1   ar
    34    24    19   ar
    35     8     4   ar
    36    32    27   ar
@<TRIPOS>MOLECULE
*****
 32 36 0 0 0
SMALL
GASTEIGER

@<TRIPOS>ATOM
      1 C          -4.1009  -18.0218   21.6264 C.ar    1  UNL1        0.1012
      2 C          -5.0043  -18.7298   20.6605 C.ar    1  UNL1        0.1010
      3 N          -4.2119  -19.0362   19.4242 N.ar    1  UNL1       -0.2205
      4 C          -2.8189  -18.5177   19.6260 C.ar    1  UNL1        0.1795
      5 S          -1.4684  -18.3866   18.9865 S.2     1  UNL1       -0.0480
      6 C          -0.5651  -17.6786   19.9524 C.ar    1  UNL1        0.0573
      7 C          -1.3573  -17.3722   21.1887 C.ar    1  UNL1        0.0890
      8 N          -2.7503  -17.8907   20.9869 N.ar    1  UNL1       -0.2818
      9 C          -6.1436  -16.2867   24.5532 C.ar    1  UNL1        0.2724
     10 N          -5.2421  -16.5498   25.7228 N.ar    1  UNL1       -0.2094
     11 C          -3.9601  -17.3036   25.5269 C.ar    1  UNL1        0.1035
     12 C          -3.5797  -17.7943   24.1615 C.ar    1  UNL1        0.0414
     13 C          -4.4813  -17.5311   22.9918 C.ar    1  UNL1        0.1033
     14 N          -5.7632  -16.7774   23.1877 N.ar    1  UNL1       -0.2094
     15 C          -8.7076  -14.7791   24.9448 C.3     1  UNL1        0.1853
     16 S          -7.4257  -15.5329   24.7490 S.O2    1  UNL1        0.0441
     17 O          -7.4011  -15.8708   26.2103 O.2     1  UNL1       -0.1656
     18 O          -7.4501  -15.1950   23.2878 O.2     1  UNL1       -0.1656
     19 C          -6.4465  -19.0713   20.8906 C.ar    1  UNL1        0.0222
     20 C          -7.3866  -19.1796   19.7267 C.ar    1  UNL1        0.0017
     21 C          -8.8289  -19.5211   19.9567 C.ar    1  UNL1        0.0032
     22 C          -9.3313  -19.7544   21.3508 C.ar    1  UNL1        0.0369
     23 C          -8.3913  -19.6462   22.5147 C.ar    1  UNL1        0.1391
     24 C          -6.9489  -19.3047   22.2846 C.ar    1  UNL1        0.0385
     25 O          -8.8937  -19.8795   23.9087 O.3     1  UNL1       -0.4706
     26 C          -9.6149  -18.7857   24.6389 C.3     1  UNL1        0.2320
     27 C         -10.7851  -18.1007   23.9976 C.ar    1  UNL1        0.0212
     28 C         -10.5640  -16.9140   23.1071 C.ar    1  UNL1       -0.0007
     29 C         -11.7343  -16.2290   22.4659 C.ar    1  UNL1       -0.0002
     30 C         -13.1258  -16.7308   22.7151 C.ar    1  UNL1       -0.0000
     31 C         -13.3469  -17.9174   23.6055 C.ar    1  UNL1       -0.0002
     32 C         -12.1766  -18.6024   24.2468 C.ar    1  UNL1       -0.0007
@<TRIPOS>BOND
     1    15    16    1
     2    16    17    2
     3    16    18    2
     4    16     9    1
     5     9    10   ar
     6    10    11   ar
     7    11    12   ar
     8    12    13   ar
     9    13     1    1
    10     1     2   ar
    11     2    19    1
    12    19    20   ar
    13    20    21   ar
    14    21    22   ar
    15    22    23   ar
    16    23    25    1
    17    25    26    1
    18    26    27    1
    19    27    28   ar
    20    28    29   ar
    21    29    30   ar
    22    30    31   ar
    23    31    32   ar
    24    23    24   ar
    25     2     3   ar
    26     3     4   ar
    27     4     5   ar
    28     5     6   ar
    29     6     7   ar
    30     7     8   ar
    31    13    14   ar
    32    14     9   ar
    33     8     1   ar
    34    24    19   ar
    35     8     4   ar
    36    32    27   ar
@<TRIPOS>MOLECULE
*****
 32 36 0 0 0
SMALL
GASTEIGER

@<TRIPOS>ATOM
      1 C           5.3981   -2.8124   23.7387 C.ar    1  UNL1        0.1012
      2 C           4.4077   -2.4232   22.6815 C.ar    1  UNL1        0.1010
      3 N           3.4987   -1.3795   23.2597 N.ar    1  UNL1       -0.2205
      4 C           3.9273   -1.1236   24.6742 C.ar    1  UNL1        0.1795
      5 S           3.6303   -0.3204   25.9057 S.2     1  UNL1       -0.0480
      6 C           4.6207   -0.7096   26.9629 C.ar    1  UNL1        0.0573
      7 C           5.5298   -1.7534   26.3847 C.ar    1  UNL1        0.0890
      8 N           5.1012   -2.0092   24.9702 N.ar    1  UNL1       -0.2818
      9 C           7.7328   -5.9416   24.4509 C.ar    1  UNL1        0.2724
     10 N           8.6833   -5.8554   23.2937 N.ar    1  UNL1       -0.2094
     11 C           8.5388   -4.7548   22.2848 C.ar    1  UNL1        0.1035
     12 C           7.4437   -3.7405   22.4331 C.ar    1  UNL1        0.0414
     13 C           6.4932   -3.8268   23.5904 C.ar    1  UNL1        0.1033
     14 N           6.6378   -4.9273   24.5992 N.ar    1  UNL1       -0.2094
     15 C           8.0219   -8.1428   26.4686 C.3     1  UNL1        0.1853
     16 S           7.8774   -7.0423   25.4598 S.O2    1  UNL1        0.0441
     17 O           6.8614   -6.3720   26.3366 O.2     1  UNL1       -0.1656
     18 O           8.8932   -7.7125   24.5830 O.2     1  UNL1       -0.1656
     19 C           4.3385   -2.9800   21.2904 C.ar    1  UNL1        0.0222
     20 C           3.9340   -4.4081   21.0733 C.ar    1  UNL1        0.0017
     21 C           3.8648   -4.9648   19.6823 C.ar    1  UNL1        0.0032
     22 C           4.2000   -4.0935   18.5081 C.ar    1  UNL1        0.0369
     23 C           4.6045   -2.6655   18.7251 C.ar    1  UNL1        0.1391
     24 C           4.6737   -2.1088   20.1163 C.ar    1  UNL1        0.0385
     25 O           4.9397   -1.7943   17.5510 O.3     1  UNL1       -0.4706
     26 C           3.9015   -0.8759   16.9779 C.3     1  UNL1        0.2320
     27 C           3.3984    0.2840   17.7851 C.ar    1  UNL1        0.0212
     28 C           1.9754    0.3068   18.2593 C.ar    1  UNL1       -0.0007
     29 C           1.4723    1.4666   19.0664 C.ar    1  UNL1       -0.0002
     30 C           2.3921    2.6038   19.3995 C.ar    1  UNL1       -0.0000
     31 C           3.8150    2.5810   18.9253 C.ar    1  UNL1       -0.0002
     32 C           4.3181    1.4211   18.1181 C.ar    1  UNL1       -0.0007
@<TRIPOS>BOND
     1    15    16    1
     2    16    17    2
     3    16    18    2
     4    16     9    1
     5     9    10   ar
     6    10    11   ar
     7    11    12   ar
     8    12    13   ar
     9    13     1    1
    10     1     2   ar
    11     2    19    1
    12    19    20   ar
    13    20    21   ar
    14    21    22   ar
    15    22    23   ar
    16    23    25    1
    17    25    26    1
    18    26    27    1
    19    27    28   ar
    20    28    29   ar
    21    29    30   ar
    22    30    31   ar
    23    31    32   ar
    24    23    24   ar
    25     2     3   ar
    26     3     4   ar
    27     4     5   ar
    28     5     6   ar
    29     6     7   ar
    30     7     8   ar
    31    13    14   ar
    32    14     9   ar
    33     8     1   ar
    34    24    19   ar
    35     8     4   ar
    36    32    27   ar
@<TRIPOS>MOLECULE
*****
 32 36 0 0 0
SMALL
GASTEIGER

@<TRIPOS>ATOM
      1 C          -9.7872  -17.4956   22.0732 C.ar    1  UNL1        0.1012
      2 C          -9.1309  -18.3522   21.0313 C.ar    1  UNL1        0.1010
      3 N          -9.8877  -18.1819   19.7474 N.ar    1  UNL1       -0.2205
      4 C         -11.0117  -17.2202   19.9958 C.ar    1  UNL1        0.1795
      5 S         -12.1740  -16.5207   19.3558 S.2     1  UNL1       -0.0480
      6 C         -12.8303  -15.6641   20.3977 C.ar    1  UNL1        0.0573
      7 C         -12.0736  -15.8343   21.6817 C.ar    1  UNL1        0.0890
      8 N         -10.9496  -16.7960   21.4332 N.ar    1  UNL1       -0.2818
      9 C          -7.7287  -16.3952   25.2828 C.ar    1  UNL1        0.2724
     10 N          -8.4958  -17.0949   26.3653 N.ar    1  UNL1       -0.2094
     11 C          -9.6935  -17.9283   26.0171 C.ar    1  UNL1        0.1035
     12 C         -10.1240  -18.0618   24.5864 C.ar    1  UNL1        0.0414
     13 C          -9.3568  -17.3620   23.5039 C.ar    1  UNL1        0.1033
     14 N          -8.1591  -16.5287   23.8521 N.ar    1  UNL1       -0.2094
     15 C          -5.3334  -14.7285   25.9791 C.3     1  UNL1        0.1853
     16 S          -6.5310  -15.5618   25.6310 S.O2    1  UNL1        0.0441
     17 O          -6.8059  -15.7763   27.0899 O.2     1  UNL1       -0.1656
     18 O          -6.2561  -15.3474   24.1721 O.2     1  UNL1       -0.1656
     19 C          -7.9289  -19.2255   21.2371 C.ar    1  UNL1        0.0222
     20 C          -7.8351  -20.0978   22.4538 C.ar    1  UNL1        0.0017
     21 C          -6.6331  -20.9711   22.6597 C.ar    1  UNL1        0.0032
     22 C          -5.5249  -20.9723   21.6487 C.ar    1  UNL1        0.0369
     23 C          -5.6186  -20.1000   20.4320 C.ar    1  UNL1        0.1391
     24 C          -6.8207  -19.2266   20.2262 C.ar    1  UNL1        0.0385
     25 O          -4.5104  -20.1012   19.4212 O.3     1  UNL1       -0.4706
     26 C          -3.0845  -19.9845   19.8715 C.3     1  UNL1        0.2320
     27 C          -2.5906  -18.7026   20.4736 C.ar    1  UNL1        0.0212
     28 C          -3.1530  -18.2210   21.7782 C.ar    1  UNL1       -0.0007
     29 C          -2.6591  -16.9390   22.3803 C.ar    1  UNL1       -0.0002
     30 C          -1.6027  -16.1385   21.6779 C.ar    1  UNL1       -0.0000
     31 C          -1.0403  -16.6201   20.3734 C.ar    1  UNL1       -0.0002
     32 C          -1.5342  -17.9021   19.7713 C.ar    1  UNL1       -0.0007
@<TRIPOS>BOND
     1    15    16    1
     2    16    17    2
     3    16    18    2
     4    16     9    1
     5     9    10   ar
     6    10    11   ar
     7    11    12   ar
     8    12    13   ar
     9    13     1    1
    10     1     2   ar
    11     2    19    1
    12    19    20   ar
    13    20    21   ar
    14    21    22   ar
    15    22    23   ar
    16    23    25    1
    17    25    26    1
    18    26    27    1
    19    27    28   ar
    20    28    29   ar
    21    29    30   ar
    22    30    31   ar
    23    31    32   ar
    24    23    24   ar
    25     2     3   ar
    26     3     4   ar
    27     4     5   ar
    28     5     6   ar
    29     6     7   ar
    30     7     8   ar
    31    13    14   ar
    32    14     9   ar
    33     8     1   ar
    34    24    19   ar
    35     8     4   ar
    36    32    27   ar
