@<TRIPOS>MOLECULE
*****
 17 18 0 0 0
SMALL
GASTEIGER

@<TRIPOS>ATOM
      1 C         -10.1718  -18.4666   20.7275 C.ar    1  UNL1        0.1386
      2 C          -9.4011  -17.8764   21.8710 C.ar    1  UNL1        0.0369
      3 C          -7.9267  -18.1256   21.9896 C.ar    1  UNL1        0.0046
      4 C          -7.2230  -18.9649   20.9647 C.ar    1  UNL1        0.0178
      5 C          -7.9938  -19.5550   19.8212 C.ar    1  UNL1        0.0046
      6 C          -9.4682  -19.3058   19.7026 C.ar    1  UNL1        0.0369
      7 C          -5.7487  -19.2140   21.0834 C.ar    1  UNL1        0.0813
      8 C          -5.0774  -20.1932   20.1666 C.ar    1  UNL1        0.0191
      9 C          -3.6030  -20.4424   20.2853 C.ar    1  UNL1        0.0031
     10 C          -2.7999  -19.7123   21.3206 C.ar    1  UNL1        0.0207
     11 C          -3.4712  -18.7331   22.2373 C.ar    1  UNL1        0.0988
     12 N          -4.9456  -18.4840   22.1187 N.ar    1  UNL1       -0.2438
     13 O         -11.6462  -18.2174   20.6089 O.3     1  UNL1       -0.4755
     14 C         -12.2297  -16.9238   21.0947 C.3     1  UNL1        0.2054
     15 C         -12.6401  -16.7783   22.5301 C.3     1  UNL1        0.0473
     16 C         -14.0620  -18.0993   24.2573 C.3     1  UNL1        0.0001
     17 C         -12.8516  -17.9982   23.3770 C.3     1  UNL1        0.0038
@<TRIPOS>BOND
     1    16    17    1
     2    17    15    1
     3    15    14    1
     4    14    13    1
     5    13     1    1
     6     1     2   ar
     7     2     3   ar
     8     3     4   ar
     9     4     7    1
    10     7     8   ar
    11     8     9   ar
    12     9    10   ar
    13    10    11   ar
    14    11    12   ar
    15     4     5   ar
    16     5     6   ar
    17     6     1   ar
    18    12     7   ar
@<TRIPOS>MOLECULE
*****
 17 18 0 0 0
SMALL
GASTEIGER

@<TRIPOS>ATOM
      1 C          -9.9544  -18.2239   23.2925 C.ar    1  UNL1        0.1386
      2 C          -9.5681  -19.6642   23.1302 C.ar    1  UNL1        0.0369
      3 C          -8.1991  -20.0221   22.6324 C.ar    1  UNL1        0.0046
      4 C          -7.2164  -18.9397   22.2969 C.ar    1  UNL1        0.0178
      5 C          -7.6027  -17.4994   22.4591 C.ar    1  UNL1        0.0046
      6 C          -8.9717  -17.1415   22.9569 C.ar    1  UNL1        0.0369
      7 C          -5.8474  -19.2975   21.7991 C.ar    1  UNL1        0.0813
      8 C          -5.6936  -20.1318   20.5621 C.ar    1  UNL1        0.0191
      9 C          -4.3246  -20.4897   20.0643 C.ar    1  UNL1        0.0031
     10 C          -3.1095  -20.0132   20.8035 C.ar    1  UNL1        0.0207
     11 C          -3.2633  -19.1789   22.0404 C.ar    1  UNL1        0.0988
     12 N          -4.6323  -18.8210   22.5383 N.ar    1  UNL1       -0.2438
     13 O         -11.3234  -17.8661   23.7903 O.3     1  UNL1       -0.4755
     14 C         -12.3215  -17.2449   22.8587 C.3     1  UNL1        0.2054
     15 C         -12.5478  -17.8365   21.4990 C.3     1  UNL1        0.0473
     16 C         -10.7259  -18.4001   19.7346 C.3     1  UNL1        0.0001
     17 C         -11.6826  -17.4202   20.3465 C.3     1  UNL1        0.0038
@<TRIPOS>BOND
     1    16    17    1
     2    17    15    1
     3    15    14    1
     4    14    13    1
     5    13     1    1
     6     1     2   ar
     7     2     3   ar
     8     3     4   ar
     9     4     7    1
    10     7     8   ar
    11     8     9   ar
    12     9    10   ar
    13    10    11   ar
    14    11    12   ar
    15     4     5   ar
    16     5     6   ar
    17     6     1   ar
    18    12     7   ar
@<TRIPOS>MOLECULE
*****
 17 18 0 0 0
SMALL
GASTEIGER

@<TRIPOS>ATOM
      1 C          -3.5777  -19.8535   21.2415 C.ar    1  UNL1        0.1386
      2 C          -4.3394  -20.4748   20.1084 C.ar    1  UNL1        0.0369
      3 C          -5.8328  -20.3476   20.0497 C.ar    1  UNL1        0.0046
      4 C          -6.5646  -19.5992   21.1241 C.ar    1  UNL1        0.0178
      5 C          -5.8030  -18.9779   22.2571 C.ar    1  UNL1        0.0046
      6 C          -4.3095  -19.1051   22.3159 C.ar    1  UNL1        0.0369
      7 C          -8.0581  -19.4720   21.0654 C.ar    1  UNL1        0.0813
      8 C          -8.8750  -19.6434   22.3116 C.ar    1  UNL1        0.0191
      9 C         -10.3684  -19.5163   22.2529 C.ar    1  UNL1        0.0031
     10 C         -11.0450  -19.2177   20.9479 C.ar    1  UNL1        0.0207
     11 C         -10.2281  -19.0463   19.7017 C.ar    1  UNL1        0.0988
     12 N          -8.7346  -19.1734   19.7604 N.ar    1  UNL1       -0.2438
     13 O          -2.0843  -19.9807   21.3002 O.3     1  UNL1       -0.4755
     14 C          -1.2235  -19.1262   20.4177 C.3     1  UNL1        0.2054
     15 C          -1.7185  -17.7874   19.9564 C.3     1  UNL1        0.0473
     16 C          -2.2232  -16.1644   21.9214 C.3     1  UNL1        0.0001
     17 C          -1.3839  -16.5532   20.7405 C.3     1  UNL1        0.0038
@<TRIPOS>BOND
     1    16    17    1
     2    17    15    1
     3    15    14    1
     4    14    13    1
     5    13     1    1
     6     1     2   ar
     7     2     3   ar
     8     3     4   ar
     9     4     7    1
    10     7     8   ar
    11     8     9   ar
    12     9    10   ar
    13    10    11   ar
    14    11    12   ar
    15     4     5   ar
    16     5     6   ar
    17     6     1   ar
    18    12     7   ar
@<TRIPOS>MOLECULE
*****
 17 18 0 0 0
SMALL
GASTEIGER

@<TRIPOS>ATOM
      1 C          -9.9538  -19.3384   21.1901 C.ar    1  UNL1        0.1386
      2 C          -9.1200  -19.3073   22.4366 C.ar    1  UNL1        0.0369
      3 C          -7.6237  -19.2713   22.3373 C.ar    1  UNL1        0.0046
      4 C          -6.9613  -19.2665   20.9915 C.ar    1  UNL1        0.0178
      5 C          -7.7951  -19.2975   19.7451 C.ar    1  UNL1        0.0046
      6 C          -9.2914  -19.3335   19.8444 C.ar    1  UNL1        0.0369
      7 C          -5.4650  -19.2305   20.8923 C.ar    1  UNL1        0.0813
      8 C          -4.6255  -19.5925   22.0814 C.ar    1  UNL1        0.0191
      9 C          -3.1293  -19.5566   21.9821 C.ar    1  UNL1        0.0031
     10 C          -2.4724  -19.1586   20.6937 C.ar    1  UNL1        0.0207
     11 C          -3.3119  -18.7966   19.5045 C.ar    1  UNL1        0.0988
     12 N          -4.8082  -18.8326   19.6038 N.ar    1  UNL1       -0.2438
     13 O         -11.4501  -19.3743   21.2894 O.3     1  UNL1       -0.4755
     14 C         -12.2106  -18.1226   21.6131 C.3     1  UNL1        0.2054
     15 C         -11.4722  -16.8740   21.9950 C.3     1  UNL1        0.0473
     16 C         -11.5790  -15.9763   19.5592 C.3     1  UNL1        0.0001
     17 C         -10.9714  -15.9435   20.9303 C.3     1  UNL1        0.0038
@<TRIPOS>BOND
     1    16    17    1
     2    17    15    1
     3    15    14    1
     4    14    13    1
     5    13     1    1
     6     1     2   ar
     7     2     3   ar
     8     3     4   ar
     9     4     7    1
    10     7     8   ar
    11     8     9   ar
    12     9    10   ar
    13    10    11   ar
    14    11    12   ar
    15     4     5   ar
    16     5     6   ar
    17     6     1   ar
    18    12     7   ar
@<TRIPOS>MOLECULE
*****
 17 18 0 0 0
SMALL
GASTEIGER

@<TRIPOS>ATOM
      1 C          -8.9237  -19.2336   21.3695 C.ar    1  UNL1        0.1386
      2 C          -8.3398  -19.3947   19.9973 C.ar    1  UNL1        0.0369
      3 C          -6.8538  -19.3318   19.8025 C.ar    1  UNL1        0.0046
      4 C          -5.9518  -19.1078   20.9798 C.ar    1  UNL1        0.0178
      5 C          -6.5358  -18.9468   22.3520 C.ar    1  UNL1        0.0046
      6 C          -8.0217  -19.0097   22.5469 C.ar    1  UNL1        0.0369
      7 C          -4.4659  -19.0449   20.7850 C.ar    1  UNL1        0.0813
      8 C          -3.8997  -18.7141   19.4359 C.ar    1  UNL1        0.0191
      9 C          -2.4137  -18.6512   19.2411 C.ar    1  UNL1        0.0031
     10 C          -1.4939  -18.9191   20.3953 C.ar    1  UNL1        0.0207
     11 C          -2.0601  -19.2500   21.7443 C.ar    1  UNL1        0.0988
     12 N          -3.5461  -19.3129   21.9391 N.ar    1  UNL1       -0.2438
     13 O         -10.4097  -19.2965   21.5644 O.3     1  UNL1       -0.4755
     14 C         -10.9794  -19.4517   22.9433 C.3     1  UNL1        0.2054
     15 C         -11.5809  -18.2695   23.6437 C.3     1  UNL1        0.0473
     16 C         -14.0946  -18.2213   24.2990 C.3     1  UNL1        0.0001
     17 C         -12.9933  -17.8606   23.3466 C.3     1  UNL1        0.0038
@<TRIPOS>BOND
     1    16    17    1
     2    17    15    1
     3    15    14    1
     4    14    13    1
     5    13     1    1
     6     1     2   ar
     7     2     3   ar
     8     3     4   ar
     9     4     7    1
    10     7     8   ar
    11     8     9   ar
    12     9    10   ar
    13    10    11   ar
    14    11    12   ar
    15     4     5   ar
    16     5     6   ar
    17     6     1   ar
    18    12     7   ar
@<TRIPOS>MOLECULE
*****
 17 18 0 0 0
SMALL
GASTEIGER

@<TRIPOS>ATOM
      1 C          -6.1620  -19.5067   20.6641 C.ar    1  UNL1        0.1386
      2 C          -7.3407  -19.7322   19.7643 C.ar    1  UNL1        0.0369
      3 C          -8.7218  -19.3868   20.2368 C.ar    1  UNL1        0.0046
      4 C          -8.9242  -18.8161   21.6091 C.ar    1  UNL1        0.0178
      5 C          -7.7454  -18.5907   22.5089 C.ar    1  UNL1        0.0046
      6 C          -6.3643  -18.9360   22.0363 C.ar    1  UNL1        0.0369
      7 C         -10.3053  -18.4708   22.0816 C.ar    1  UNL1        0.0813
      8 C         -10.6968  -18.7285   23.5064 C.ar    1  UNL1        0.0191
      9 C         -12.0779  -18.3831   23.9789 C.ar    1  UNL1        0.0031
     10 C         -13.0675  -17.7801   23.0266 C.ar    1  UNL1        0.0207
     11 C         -12.6760  -17.5224   21.6017 C.ar    1  UNL1        0.0988
     12 N         -11.2949  -17.8677   21.1292 N.ar    1  UNL1       -0.2438
     13 O          -4.7808  -19.8521   20.1915 O.3     1  UNL1       -0.4755
     14 C          -3.9374  -18.8120   19.5157 C.3     1  UNL1        0.2054
     15 C          -2.5416  -18.5488   19.9979 C.3     1  UNL1        0.0473
     16 C          -2.7462  -18.0628   22.5419 C.3     1  UNL1        0.0001
     17 C          -2.3116  -17.6409   21.1696 C.3     1  UNL1        0.0038
@<TRIPOS>BOND
     1    16    17    1
     2    17    15    1
     3    15    14    1
     4    14    13    1
     5    13     1    1
     6     1     2   ar
     7     2     3   ar
     8     3     4   ar
     9     4     7    1
    10     7     8   ar
    11     8     9   ar
    12     9    10   ar
    13    10    11   ar
    14    11    12   ar
    15     4     5   ar
    16     5     6   ar
    17     6     1   ar
    18    12     7   ar
@<TRIPOS>MOLECULE
*****
 17 18 0 0 0
SMALL
GASTEIGER

@<TRIPOS>ATOM
      1 C          -9.5969  -18.7305   21.8640 C.ar    1  UNL1        0.1386
      2 C         -10.2051  -18.7815   23.2342 C.ar    1  UNL1        0.0369
      3 C          -9.6006  -17.9862   24.3532 C.ar    1  UNL1        0.0046
      4 C          -8.3879  -17.1399   24.1020 C.ar    1  UNL1        0.0178
      5 C          -7.7797  -17.0889   22.7318 C.ar    1  UNL1        0.0046
      6 C          -8.3842  -17.8842   21.6128 C.ar    1  UNL1        0.0369
      7 C          -7.7834  -16.3446   25.2209 C.ar    1  UNL1        0.0813
      8 C          -8.5860  -16.0562   26.4549 C.ar    1  UNL1        0.0191
      9 C          -7.9815  -15.2609   27.5739 C.ar    1  UNL1        0.0031
     10 C          -6.5745  -14.7541   27.4589 C.ar    1  UNL1        0.0207
     11 C          -5.7719  -15.0425   26.2250 C.ar    1  UNL1        0.0988
     12 N          -6.3764  -15.8378   25.1060 N.ar    1  UNL1       -0.2438
     13 O         -10.2014  -19.5257   20.7450 O.3     1  UNL1       -0.4755
     14 C         -10.9895  -18.8331   19.6731 C.3     1  UNL1        0.2054
     15 C         -11.1791  -17.3460   19.7239 C.3     1  UNL1        0.0473
     16 C         -13.0494  -17.6374   21.5037 C.3     1  UNL1        0.0001
     17 C         -12.2596  -16.7566   20.5815 C.3     1  UNL1        0.0038
@<TRIPOS>BOND
     1    16    17    1
     2    17    15    1
     3    15    14    1
     4    14    13    1
     5    13     1    1
     6     1     2   ar
     7     2     3   ar
     8     3     4   ar
     9     4     7    1
    10     7     8   ar
    11     8     9   ar
    12     9    10   ar
    13    10    11   ar
    14    11    12   ar
    15     4     5   ar
    16     5     6   ar
    17     6     1   ar
    18    12     7   ar
@<TRIPOS>MOLECULE
*****
 17 18 0 0 0
SMALL
GASTEIGER

@<TRIPOS>ATOM
      1 C         -12.6361   -4.5431   18.1708 C.ar    1  UNL1        0.1386
      2 C         -13.0827   -4.9304   19.5493 C.ar    1  UNL1        0.0369
      3 C         -14.0049   -6.0982   19.7385 C.ar    1  UNL1        0.0046
      4 C         -14.4804   -6.8788   18.5492 C.ar    1  UNL1        0.0178
      5 C         -14.0338   -6.4915   17.1706 C.ar    1  UNL1        0.0046
      6 C         -13.1116   -5.3237   16.9814 C.ar    1  UNL1        0.0369
      7 C         -15.4026   -8.0466   18.7384 C.ar    1  UNL1        0.0813
      8 C         -16.6124   -7.9126   19.6149 C.ar    1  UNL1        0.0191
      9 C         -17.5346   -9.0804   19.8041 C.ar    1  UNL1        0.0031
     10 C         -17.2470  -10.3822   19.1168 C.ar    1  UNL1        0.0207
     11 C         -16.0371  -10.5162   18.2403 C.ar    1  UNL1        0.0988
     12 N         -15.1150   -9.3484   18.0511 N.ar    1  UNL1       -0.2438
     13 O         -11.7139   -3.3753   17.9815 O.3     1  UNL1       -0.4755
     14 C         -10.2355   -3.5496   18.1657 C.3     1  UNL1        0.2054
     15 C          -9.6001   -4.8842   17.9105 C.3     1  UNL1        0.0473
     16 C         -10.1313   -7.2660   18.8019 C.3     1  UNL1        0.0001
     17 C          -9.5342   -5.9054   19.0072 C.3     1  UNL1        0.0038
@<TRIPOS>BOND
     1    16    17    1
     2    17    15    1
     3    15    14    1
     4    14    13    1
     5    13     1    1
     6     1     2   ar
     7     2     3   ar
     8     3     4   ar
     9     4     7    1
    10     7     8   ar
    11     8     9   ar
    12     9    10   ar
    13    10    11   ar
    14    11    12   ar
    15     4     5   ar
    16     5     6   ar
    17     6     1   ar
    18    12     7   ar
@<TRIPOS>MOLECULE
*****
 17 18 0 0 0
SMALL
GASTEIGER

@<TRIPOS>ATOM
      1 C           6.7755  -11.2763   27.9433 C.ar    1  UNL1        0.1386
      2 C           6.7568  -12.5715   28.6996 C.ar    1  UNL1        0.0369
      3 C           5.4846  -13.3588   28.8075 C.ar    1  UNL1        0.0046
      4 C           4.2310  -12.8508   28.1591 C.ar    1  UNL1        0.0178
      5 C           4.2497  -11.5556   27.4028 C.ar    1  UNL1        0.0046
      6 C           5.5219  -10.7683   27.2949 C.ar    1  UNL1        0.0369
      7 C           2.9588  -13.6381   28.2670 C.ar    1  UNL1        0.0813
      8 C           1.6403  -12.9266   28.3382 C.ar    1  UNL1        0.0191
      9 C           0.3681  -13.7139   28.4461 C.ar    1  UNL1        0.0031
     10 C           0.4144  -15.2127   28.4828 C.ar    1  UNL1        0.0207
     11 C           1.7329  -15.9242   28.4116 C.ar    1  UNL1        0.0988
     12 N           3.0052  -15.1369   28.3037 N.ar    1  UNL1       -0.2438
     13 O           8.0477  -10.4890   27.8354 O.3     1  UNL1       -0.4755
     14 C           7.9958   -9.0076   27.6058 C.3     1  UNL1        0.2054
     15 C           8.7306   -8.4021   26.4468 C.3     1  UNL1        0.0473
     16 C           8.4373   -7.4446   24.0494 C.3     1  UNL1        0.0001
     17 C           8.0069   -7.5069   25.4850 C.3     1  UNL1        0.0038
@<TRIPOS>BOND
     1    16    17    1
     2    17    15    1
     3    15    14    1
     4    14    13    1
     5    13     1    1
     6     1     2   ar
     7     2     3   ar
     8     3     4   ar
     9     4     7    1
    10     7     8   ar
    11     8     9   ar
    12     9    10   ar
    13    10    11   ar
    14    11    12   ar
    15     4     5   ar
    16     5     6   ar
    17     6     1   ar
    18    12     7   ar
