@<TRIPOS>MOLECULE
*****
 19 20 0 0 0
SMALL
GASTEIGER

@<TRIPOS>ATOM
      1 C          -1.5948  -18.3225   20.0815 C.2     1  UNL1        0.4053
      2 O          -0.3019  -19.0565   19.8818 O.2     1  UNL1       -0.2262
      3 N          -2.8885  -19.0804   20.1257 N.am    1  UNL1       -0.2383
      4 C          -4.3307  -18.7077   20.3019 C.3     1  UNL1        0.1218
      5 C          -4.7180  -20.1523   20.1882 C.2     1  UNL1        0.0038
      6 C          -6.0116  -20.9103   20.2323 C.2     1  UNL1        0.0444
      7 C          -3.2757  -20.5251   20.0120 C.3     1  UNL1        0.1218
      8 C          -7.3045  -20.1763   20.4320 C.1     1  UNL1       -0.0582
      9 C          -8.5973  -19.4423   20.6316 C.1     1  UNL1       -0.0405
     10 C          -9.8902  -18.7083   20.8312 C.ar    1  UNL1        0.1224
     11 C         -10.8281  -19.1251   21.9251 C.ar    1  UNL1        0.0276
     12 C         -12.1209  -18.3911   22.1246 C.ar    1  UNL1        0.0034
     13 C         -12.4758  -17.2403   21.2303 C.ar    1  UNL1        0.0148
     14 C         -11.5379  -16.8236   20.1365 C.ar    1  UNL1        0.0600
     15 C         -11.8928  -15.6728   19.2422 C.3     1  UNL1        0.0521
     16 N         -10.2451  -17.5575   19.9369 N.ar    1  UNL1       -0.2414
     17 O          -1.5940  -16.8306   20.2369 O.3     1  UNL1       -0.4345
     18 C          -2.3611  -17.0798   22.7066 C.3     1  UNL1        0.0513
     19 C          -1.9044  -16.2151   21.5692 C.3     1  UNL1        0.2102
@<TRIPOS>BOND
     1    18    19    1
     2    19    17    1
     3    17     1    1
     4     1     2    2
     5     1     3   am
     6     3     4    1
     7     4     5    1
     8     5     6    2
     9     6     8    1
    10     8     9    3
    11     9    10    1
    12    10    11   ar
    13    11    12   ar
    14    12    13   ar
    15    13    14   ar
    16    14    15    1
    17    14    16   ar
    18     5     7    1
    19     7     3    1
    20    16    10   ar
@<TRIPOS>MOLECULE
*****
 19 20 0 0 0
SMALL
GASTEIGER

@<TRIPOS>ATOM
      1 C         -12.5304  -17.5506   22.8315 C.2     1  UNL1        0.4053
      2 O         -13.7908  -18.0155   23.4988 O.2     1  UNL1       -0.2262
      3 N         -11.2937  -18.3974   22.8915 N.am    1  UNL1       -0.2383
      4 C          -9.8950  -18.2709   22.3647 C.3     1  UNL1        0.1218
      5 C          -9.5448  -19.5950   22.9764 C.2     1  UNL1        0.0038
      6 C          -8.3082  -20.4417   23.0365 C.2     1  UNL1        0.0444
      7 C         -10.9435  -19.7215   23.5033 C.3     1  UNL1        0.1218
      8 C          -7.0477  -19.9768   22.3692 C.1     1  UNL1       -0.0582
      9 C          -5.7873  -19.5119   21.7020 C.1     1  UNL1       -0.0405
     10 C          -4.5269  -19.0470   21.0347 C.ar    1  UNL1        0.1224
     11 C          -4.0405  -19.7304   19.7912 C.ar    1  UNL1        0.0276
     12 C          -2.7801  -19.2655   19.1240 C.ar    1  UNL1        0.0034
     13 C          -2.0061  -18.1172   19.7003 C.ar    1  UNL1        0.0148
     14 C          -2.4924  -17.4338   20.9438 C.ar    1  UNL1        0.0600
     15 C          -1.7183  -16.2855   21.5201 C.3     1  UNL1        0.0521
     16 N          -3.7528  -17.8987   21.6110 N.ar    1  UNL1       -0.2414
     17 O         -12.5066  -16.2390   22.1042 O.3     1  UNL1       -0.4345
     18 C         -11.2785  -15.8612   19.8461 C.3     1  UNL1        0.0513
     19 C         -12.5241  -16.2125   20.6045 C.3     1  UNL1        0.2102
@<TRIPOS>BOND
     1    18    19    1
     2    19    17    1
     3    17     1    1
     4     1     2    2
     5     1     3   am
     6     3     4    1
     7     4     5    1
     8     5     6    2
     9     6     8    1
    10     8     9    3
    11     9    10    1
    12    10    11   ar
    13    11    12   ar
    14    12    13   ar
    15    13    14   ar
    16    14    15    1
    17    14    16   ar
    18     5     7    1
    19     7     3    1
    20    16    10   ar
@<TRIPOS>MOLECULE
*****
 19 20 0 0 0
SMALL
GASTEIGER

@<TRIPOS>ATOM
      1 C          -1.7611  -18.3329   20.0192 C.2     1  UNL1        0.4053
      2 O          -0.4777  -19.0833   19.8189 O.2     1  UNL1       -0.2262
      3 N          -3.0590  -19.0788   20.1138 N.am    1  UNL1       -0.2383
      4 C          -4.4947  -18.6891   20.3056 C.3     1  UNL1        0.1218
      5 C          -4.8946  -20.1337   20.2477 C.2     1  UNL1        0.0038
      6 C          -6.1925  -20.8796   20.3424 C.2     1  UNL1        0.0444
      7 C          -3.4588  -20.5234   20.0559 C.3     1  UNL1        0.1218
      8 C          -7.4759  -20.1292   20.5427 C.1     1  UNL1       -0.0582
      9 C          -8.7592  -19.3790   20.7429 C.1     1  UNL1       -0.0405
     10 C         -10.0426  -18.6286   20.9431 C.ar    1  UNL1        0.1224
     11 C         -10.5657  -17.7345   19.8584 C.ar    1  UNL1        0.0276
     12 C         -11.8490  -16.9842   20.0587 C.ar    1  UNL1        0.0034
     13 C         -12.6092  -17.1281   21.3437 C.ar    1  UNL1        0.0148
     14 C         -12.0861  -18.0223   22.4285 C.ar    1  UNL1        0.0600
     15 C         -12.8463  -18.1662   23.7136 C.3     1  UNL1        0.0521
     16 N         -10.8028  -18.7725   22.2282 N.ar    1  UNL1       -0.2414
     17 O          -1.7464  -16.8367   20.1247 O.3     1  UNL1       -0.4345
     18 C          -2.6029  -16.7410   22.5757 C.3     1  UNL1        0.0513
     19 C          -1.7545  -16.1799   21.4733 C.3     1  UNL1        0.2102
@<TRIPOS>BOND
     1    18    19    1
     2    19    17    1
     3    17     1    1
     4     1     2    2
     5     1     3   am
     6     3     4    1
     7     4     5    1
     8     5     6    2
     9     6     8    1
    10     8     9    3
    11     9    10    1
    12    10    11   ar
    13    11    12   ar
    14    12    13   ar
    15    13    14   ar
    16    14    15    1
    17    14    16   ar
    18     5     7    1
    19     7     3    1
    20    16    10   ar
@<TRIPOS>MOLECULE
*****
 19 20 0 0 0
SMALL
GASTEIGER

@<TRIPOS>ATOM
      1 C         -10.9136   -1.8628   17.0670 C.2     1  UNL1        0.4053
      2 O         -10.3387   -0.5019   17.3267 O.2     1  UNL1       -0.2262
      3 N         -12.0627   -2.3614   17.8921 N.am    1  UNL1       -0.2383
      4 C         -12.8756   -3.6216   17.9267 C.3     1  UNL1        0.1218
      5 C         -13.6878   -3.0666   19.0591 C.2     1  UNL1        0.0038
      6 C         -14.8369   -3.5653   19.8842 C.2     1  UNL1        0.0444
      7 C         -12.8750   -1.8064   19.0245 C.3     1  UNL1        0.1218
      8 C         -15.4119   -4.9262   19.6245 C.1     1  UNL1       -0.0582
      9 C         -15.9868   -6.2870   19.3649 C.1     1  UNL1       -0.0405
     10 C         -16.5618   -7.6480   19.1052 C.ar    1  UNL1        0.1224
     11 C         -15.6849   -8.7443   18.5770 C.ar    1  UNL1        0.0276
     12 C         -16.2599  -10.1052   18.3173 C.ar    1  UNL1        0.0034
     13 C         -17.7118  -10.3697   18.5859 C.ar    1  UNL1        0.0148
     14 C         -18.5887   -9.2733   19.1141 C.ar    1  UNL1        0.0600
     15 C         -20.0405   -9.5378   19.3826 C.3     1  UNL1        0.0521
     16 N         -18.0137   -7.9125   19.3737 N.ar    1  UNL1       -0.2414
     17 O         -10.3394   -2.7250   15.9822 O.3     1  UNL1       -0.4345
     18 C          -9.2119   -4.7767   17.1088 C.3     1  UNL1        0.0513
     19 C          -9.1162   -3.5512   16.2492 C.3     1  UNL1        0.2102
@<TRIPOS>BOND
     1    18    19    1
     2    19    17    1
     3    17     1    1
     4     1     2    2
     5     1     3   am
     6     3     4    1
     7     4     5    1
     8     5     6    2
     9     6     8    1
    10     8     9    3
    11     9    10    1
    12    10    11   ar
    13    11    12   ar
    14    12    13   ar
    15    13    14   ar
    16    14    15    1
    17    14    16   ar
    18     5     7    1
    19     7     3    1
    20    16    10   ar
@<TRIPOS>MOLECULE
*****
 19 20 0 0 0
SMALL
GASTEIGER

@<TRIPOS>ATOM
      1 C           2.4011   -0.4770   30.1700 C.2     1  UNL1        0.4053
      2 O           2.9042   -0.3139   31.5737 O.2     1  UNL1       -0.2262
      3 N           3.3504   -0.8562   29.0723 N.am    1  UNL1       -0.2383
      4 C           3.2234   -1.1027   27.5982 C.3     1  UNL1        0.1218
      5 C           4.6931   -1.3924   27.5200 C.2     1  UNL1        0.0038
      6 C           5.6424   -1.7716   26.4223 C.2     1  UNL1        0.0444
      7 C           4.8201   -1.1459   28.9941 C.3     1  UNL1        0.1218
      8 C           5.1393   -1.9347   25.0186 C.1     1  UNL1       -0.0582
      9 C           4.6362   -2.0978   23.6149 C.1     1  UNL1       -0.0405
     10 C           4.1331   -2.2609   22.2112 C.ar    1  UNL1        0.1224
     11 C           3.1913   -1.2486   21.6297 C.ar    1  UNL1        0.0276
     12 C           2.6883   -1.4117   20.2260 C.ar    1  UNL1        0.0034
     13 C           3.1270   -2.5872   19.4039 C.ar    1  UNL1        0.0148
     14 C           4.0688   -3.5995   19.9855 C.ar    1  UNL1        0.0600
     15 C           4.5075   -4.7749   19.1634 C.3     1  UNL1        0.0521
     16 N           4.5718   -3.4363   21.3891 N.ar    1  UNL1       -0.2414
     17 O           0.9486   -0.2609   29.8640 O.3     1  UNL1       -0.4345
     18 C          -0.5351    0.7408   27.9811 C.3     1  UNL1        0.0513
     19 C           0.5242    0.9110   29.0294 C.3     1  UNL1        0.2102
@<TRIPOS>BOND
     1    18    19    1
     2    19    17    1
     3    17     1    1
     4     1     2    2
     5     1     3   am
     6     3     4    1
     7     4     5    1
     8     5     6    2
     9     6     8    1
    10     8     9    3
    11     9    10    1
    12    10    11   ar
    13    11    12   ar
    14    12    13   ar
    15    13    14   ar
    16    14    15    1
    17    14    16   ar
    18     5     7    1
    19     7     3    1
    20    16    10   ar
@<TRIPOS>MOLECULE
*****
 19 20 0 0 0
SMALL
GASTEIGER

@<TRIPOS>ATOM
      1 C         -13.5890    0.2326   17.9457 C.2     1  UNL1        0.4053
      2 O         -12.6168    1.3648   18.0977 O.2     1  UNL1       -0.2262
      3 N         -13.2088   -1.1476   18.3935 N.am    1  UNL1       -0.2383
      4 C         -13.8890   -2.4845   18.4032 C.3     1  UNL1        0.1218
      5 C         -12.6712   -3.0995   19.0267 C.2     1  UNL1        0.0038
      6 C         -12.2910   -4.4797   19.4745 C.2     1  UNL1        0.0444
      7 C         -11.9910   -1.7626   19.0170 C.3     1  UNL1        0.1218
      8 C         -13.2632   -5.6119   19.3225 C.1     1  UNL1       -0.0582
      9 C         -14.2353   -6.7441   19.1705 C.1     1  UNL1       -0.0405
     10 C         -15.2075   -7.8763   19.0185 C.ar    1  UNL1        0.1224
     11 C         -14.8078   -9.1125   18.2688 C.ar    1  UNL1        0.0276
     12 C         -15.7800  -10.2446   18.1168 C.ar    1  UNL1        0.0034
     13 C         -17.1518  -10.1406   18.7146 C.ar    1  UNL1        0.0148
     14 C         -17.5514   -8.9044   19.4643 C.ar    1  UNL1        0.0600
     15 C         -18.9232   -8.8004   20.0621 C.3     1  UNL1        0.0521
     16 N         -16.5793   -7.7723   19.6163 N.ar    1  UNL1       -0.2414
     17 O         -14.9413    0.4806   17.3460 O.3     1  UNL1       -0.4345
     18 C         -16.0172    0.4219   19.7101 C.3     1  UNL1        0.0513
     19 C         -16.1320    0.6784   18.2367 C.3     1  UNL1        0.2102
@<TRIPOS>BOND
     1    18    19    1
     2    19    17    1
     3    17     1    1
     4     1     2    2
     5     1     3   am
     6     3     4    1
     7     4     5    1
     8     5     6    2
     9     6     8    1
    10     8     9    3
    11     9    10    1
    12    10    11   ar
    13    11    12   ar
    14    12    13   ar
    15    13    14   ar
    16    14    15    1
    17    14    16   ar
    18     5     7    1
    19     7     3    1
    20    16    10   ar
@<TRIPOS>MOLECULE
*****
 19 20 0 0 0
SMALL
GASTEIGER

@<TRIPOS>ATOM
      1 C           0.0073    1.6118   26.8216 C.2     1  UNL1        0.4053
      2 O          -0.9189    2.5679   27.5130 O.2     1  UNL1       -0.2262
      3 N           0.1724    1.6724   25.3320 N.am    1  UNL1       -0.2383
      4 C           0.9780    0.9098   24.3222 C.3     1  UNL1        0.1218
      5 C           0.4059    1.7580   23.2253 C.2     1  UNL1        0.0038
      6 C           0.5710    1.8185   21.7357 C.2     1  UNL1        0.0444
      7 C          -0.3997    2.5205   24.2350 C.3     1  UNL1        0.1218
      8 C           1.4972    0.8624   21.0442 C.1     1  UNL1       -0.0582
      9 C           2.4234   -0.0937   20.3529 C.1     1  UNL1       -0.0405
     10 C           3.3496   -1.0498   19.6614 C.ar    1  UNL1        0.1224
     11 C           4.4792   -0.5269   18.8243 C.ar    1  UNL1        0.0276
     12 C           5.4053   -1.4830   18.1330 C.ar    1  UNL1        0.0034
     13 C           5.2020   -2.9620   18.2787 C.ar    1  UNL1        0.0148
     14 C           4.0725   -3.4849   19.1157 C.ar    1  UNL1        0.0600
     15 C           3.8691   -4.9639   19.2614 C.3     1  UNL1        0.0521
     16 N           3.1463   -2.5288   19.8071 N.ar    1  UNL1       -0.2414
     17 O           0.7684    0.5952   27.6199 O.3     1  UNL1       -0.4345
     18 C          -1.2920   -0.5288   28.7342 C.3     1  UNL1        0.0513
     19 C           0.1290   -0.0547   28.8111 C.3     1  UNL1        0.2102
@<TRIPOS>BOND
     1    18    19    1
     2    19    17    1
     3    17     1    1
     4     1     2    2
     5     1     3   am
     6     3     4    1
     7     4     5    1
     8     5     6    2
     9     6     8    1
    10     8     9    3
    11     9    10    1
    12    10    11   ar
    13    11    12   ar
    14    12    13   ar
    15    13    14   ar
    16    14    15    1
    17    14    16   ar
    18     5     7    1
    19     7     3    1
    20    16    10   ar
@<TRIPOS>MOLECULE
*****
 19 20 0 0 0
SMALL
GASTEIGER

@<TRIPOS>ATOM
      1 C           3.9887   -1.1589   17.8220 C.2     1  UNL1        0.4053
      2 O           3.9099   -1.1221   16.3244 O.2     1  UNL1       -0.2262
      3 N           2.9677   -0.4306   18.6448 N.am    1  UNL1       -0.2383
      4 C           2.7269   -0.2430   20.1134 C.3     1  UNL1        0.1218
      5 C           1.5238    0.5994   19.8085 C.2     1  UNL1        0.0038
      6 C           0.5029    1.3278   20.6314 C.2     1  UNL1        0.0444
      7 C           1.7647    0.4118   18.3399 C.3     1  UNL1        0.1218
      8 C           0.5817    1.2909   22.1290 C.1     1  UNL1       -0.0582
      9 C           0.6604    1.2540   23.6264 C.1     1  UNL1       -0.0405
     10 C           0.7391    1.2172   25.1239 C.ar    1  UNL1        0.1224
     11 C          -0.4822    1.5032   25.9465 C.ar    1  UNL1        0.0276
     12 C          -0.4033    1.4663   27.4439 C.ar    1  UNL1        0.0034
     13 C           0.8968    1.1435   28.1188 C.ar    1  UNL1        0.0148
     14 C           2.1181    0.8576   27.2963 C.ar    1  UNL1        0.0600
     15 C           3.4182    0.5348   27.9712 C.3     1  UNL1        0.0521
     16 N           2.0393    0.8944   25.7988 N.ar    1  UNL1       -0.2414
     17 O           5.0884   -1.9241   18.4965 O.3     1  UNL1       -0.4345
     18 C           3.4759   -3.8508   19.1583 C.3     1  UNL1        0.0513
     19 C           4.8673   -3.3497   18.9076 C.3     1  UNL1        0.2102
@<TRIPOS>BOND
     1    18    19    1
     2    19    17    1
     3    17     1    1
     4     1     2    2
     5     1     3   am
     6     3     4    1
     7     4     5    1
     8     5     6    2
     9     6     8    1
    10     8     9    3
    11     9    10    1
    12    10    11   ar
    13    11    12   ar
    14    12    13   ar
    15    13    14   ar
    16    14    15    1
    17    14    16   ar
    18     5     7    1
    19     7     3    1
    20    16    10   ar
@<TRIPOS>MOLECULE
*****
 19 20 0 0 0
SMALL
GASTEIGER

@<TRIPOS>ATOM
      1 C           3.6993    2.1551   38.5167 C.2     1  UNL1        0.4053
      2 O           4.4402    1.8606   39.7873 O.2     1  UNL1       -0.2262
      3 N           4.0126    1.3827   37.2696 N.am    1  UNL1       -0.2383
      4 C           3.5013    1.3922   35.8595 C.3     1  UNL1        0.1218
      5 C           4.4556    0.2903   35.5060 C.2     1  UNL1        0.0038
      6 C           4.7689   -0.4821   34.2589 C.2     1  UNL1        0.0444
      7 C           4.9669    0.2807   36.9161 C.3     1  UNL1        0.1218
      8 C           4.0280   -0.1877   32.9883 C.1     1  UNL1       -0.0582
      9 C           3.2872    0.1068   31.7177 C.1     1  UNL1       -0.0405
     10 C           2.5463    0.4012   30.4470 C.ar    1  UNL1        0.1224
     11 C           3.1778    1.2612   29.3927 C.ar    1  UNL1        0.0276
     12 C           2.4370    1.5556   28.1221 C.ar    1  UNL1        0.0034
     13 C           1.0646    0.9901   27.9059 C.ar    1  UNL1        0.0148
     14 C           0.4331    0.1301   28.9602 C.ar    1  UNL1        0.0600
     15 C          -0.9393   -0.4354   28.7439 C.3     1  UNL1        0.0521
     16 N           1.1739   -0.1643   30.2307 N.ar    1  UNL1       -0.2414
     17 O           2.6452    3.2220   38.4932 O.3     1  UNL1       -0.4345
     18 C           0.7091    1.8967   39.6092 C.3     1  UNL1        0.0513
     19 C           1.1946    2.8446   38.5528 C.3     1  UNL1        0.2102
@<TRIPOS>BOND
     1    18    19    1
     2    19    17    1
     3    17     1    1
     4     1     2    2
     5     1     3   am
     6     3     4    1
     7     4     5    1
     8     5     6    2
     9     6     8    1
    10     8     9    3
    11     9    10    1
    12    10    11   ar
    13    11    12   ar
    14    12    13   ar
    15    13    14   ar
    16    14    15    1
    17    14    16   ar
    18     5     7    1
    19     7     3    1
    20    16    10   ar
