@<TRIPOS>MOLECULE
*****
 36 38 0 0 0
SMALL
GASTEIGER

@<TRIPOS>ATOM
      1 C          -5.6279  -18.9825   20.5536 C.3     1  UNL1        0.1532
      2 C          -5.2419  -17.8696   22.8693 C.2     1  UNL1        0.2673
      3 O          -4.1665  -18.8707   23.1712 O.2     1  UNL1       -0.2684
      4 N          -5.9726  -17.9254   21.5604 N.am    1  UNL1       -0.2932
      5 H          -6.6784  -17.2683   21.3622 H       1  UNL1        0.1502
      6 N          -6.7214  -15.5792   25.6317 N.ar    1  UNL1       -0.1741
      7 N          -5.5127  -14.7924   25.2194 N.ar    1  UNL1       -0.1491
      8 C          -4.8114  -15.5546   24.1344 C.ar    1  UNL1        0.1472
      9 C          -5.5866  -16.8125   23.8761 C.ar    1  UNL1        0.1763
     10 N          -6.7671  -16.8277   24.8015 N.ar    1  UNL1       -0.1462
     11 C          -6.5876  -14.9673   27.6585 C.3     1  UNL1        0.0263
     12 C          -7.7107  -15.1865   26.6886 C.3     1  UNL1        0.1054
     13 C          -8.8338  -15.4058   25.7188 C.3     1  UNL1        0.0263
     14 C          -8.7000  -14.7939   27.7455 C.3     1  UNL1        0.0263
     15 C          -4.2198  -19.1102   20.0523 C.2     1  UNL1        0.2413
     16 O          -3.7651  -20.3874   19.4106 O.2     1  UNL1       -0.2733
     17 N          -3.2666  -17.9606   20.1928 N.am    1  UNL1       -0.2945
     18 H          -3.5651  -17.1223   20.6139 H       1  UNL1        0.1503
     19 C          -1.8587  -18.0883   19.6915 C.3     1  UNL1        0.1365
     20 C          -0.3884  -18.3852   19.6790 C.3     1  UNL1        0.0353
     21 C          -1.1904  -18.6200   20.9247 C.3     1  UNL1        0.0353
     22 C          -2.0379  -17.6010   18.2843 C.1     1  UNL1        0.0896
     23 N          -2.2172  -17.1136   16.8770 N.1     1  UNL1       -0.1943
     24 C          -6.6911  -19.9119   20.0480 C.3     1  UNL1        0.0553
     25 C          -8.1270  -19.6793   20.4147 C.ar    1  UNL1       -0.0190
     26 C          -9.1305  -19.3557   19.3479 C.ar    1  UNL1       -0.0010
     27 C         -10.5663  -19.1231   19.7147 C.ar    1  UNL1        0.0377
     28 C         -10.9984  -19.2141   21.1482 C.ar    1  UNL1        0.1572
     29 C          -9.9948  -19.5377   22.2150 C.ar    1  UNL1        0.0915
     30 CL        -10.4269  -19.6288   23.6485 Cl      1  UNL1       -0.0791
     31 C          -8.5591  -19.7703   21.8482 C.ar    1  UNL1        0.0103
     32 O         -12.4342  -18.9815   21.5149 O.3     1  UNL1       -0.4036
     33 C         -12.8430  -17.6930   22.1649 C.3     1  UNL1        0.5753
     34 F         -13.2518  -16.4044   22.8149 F       1  UNL1       -0.1328
     35 F         -13.1322  -18.4279   23.4401 F       1  UNL1       -0.1328
     36 F         -12.5538  -16.9580   20.8897 F       1  UNL1       -0.1328
@<TRIPOS>BOND
     1    11    12    1
     2    12    13    1
     3    12    14    1
     4    12     6    1
     5     6     7   ar
     6     7     8   ar
     7     8     9   ar
     8     9     2    1
     9     2     3    2
    10     2     4   am
    11     4     1    1
    12     1    24    1
    13    24    25    1
    14    25    26   ar
    15    26    27   ar
    16    27    28   ar
    17    28    32    1
    18    32    33    1
    19    33    34    1
    20    33    35    1
    21    33    36    1
    22    28    29   ar
    23    29    30    1
    24    29    31   ar
    25     1    15    1
    26    15    16    2
    27    15    17   am
    28    17    19    1
    29    19    22    1
    30    22    23    3
    31    19    20    1
    32    20    21    1
    33     9    10   ar
    34    10     6   ar
    35    31    25   ar
    36    21    19    1
    37     4     5    1
    38    17    18    1
@<TRIPOS>MOLECULE
*****
 36 38 0 0 0
SMALL
GASTEIGER

@<TRIPOS>ATOM
      1 C          -4.5382  -18.3018   21.6085 C.3     1  UNL1        0.1532
      2 C          -6.8977  -19.3863   21.6896 C.2     1  UNL1        0.2673
      3 O          -6.2798  -20.7034   22.0548 O.2     1  UNL1       -0.2684
      4 N          -6.0269  -18.1854   21.4665 N.am    1  UNL1       -0.2932
      5 H          -6.4325  -17.3210   21.2268 H       1  UNL1        0.1502
      6 N         -10.7202  -18.7976   22.0181 N.ar    1  UNL1       -0.1741
      7 N         -10.6346  -19.3843   20.6402 N.ar    1  UNL1       -0.1491
      8 C          -9.1923  -19.6762   20.3495 C.ar    1  UNL1        0.1472
      9 C          -8.3864  -19.2700   21.5477 C.ar    1  UNL1        0.1763
     10 N          -9.3308  -18.7269   22.5790 N.ar    1  UNL1       -0.1462
     11 C         -12.5193  -17.8518   21.4104 C.3     1  UNL1        0.0263
     12 C         -11.9749  -18.3586   22.7131 C.3     1  UNL1        0.1054
     13 C         -11.4305  -18.8654   24.0158 C.3     1  UNL1        0.0263
     14 C         -13.2295  -17.9197   23.4082 C.3     1  UNL1        0.0263
     15 C          -3.6829  -18.5099   20.3938 C.2     1  UNL1        0.2413
     16 O          -3.6746  -19.8404   19.7014 O.2     1  UNL1       -0.2733
     17 N          -2.8360  -17.3874   19.8716 N.am    1  UNL1       -0.2945
     18 H          -2.8415  -16.5140   20.3261 H       1  UNL1        0.1503
     19 C          -1.9808  -17.5955   18.6571 C.3     1  UNL1        0.1365
     20 C          -1.5534  -17.6071   17.2193 C.3     1  UNL1        0.0353
     21 C          -2.9156  -17.1020   17.5927 C.3     1  UNL1        0.0353
     22 C          -0.7491  -18.1612   19.2995 C.1     1  UNL1        0.0896
     23 N           0.4827  -18.7269   19.9420 N.1     1  UNL1       -0.1943
     24 C          -3.9047  -18.2101   22.9650 C.3     1  UNL1        0.0553
     25 C          -4.5343  -17.3631   24.0311 C.ar    1  UNL1       -0.0190
     26 C          -4.0288  -17.4344   25.4415 C.ar    1  UNL1       -0.0010
     27 C          -4.6584  -16.5874   26.5075 C.ar    1  UNL1        0.0377
     28 C          -5.7934  -15.6693   26.1630 C.ar    1  UNL1        0.1572
     29 C          -6.2989  -15.5980   24.7526 C.ar    1  UNL1        0.0915
     30 CL         -7.4339  -14.6799   24.4081 Cl      1  UNL1       -0.0791
     31 C          -5.6693  -16.4449   23.6866 C.ar    1  UNL1        0.0103
     32 O          -6.4230  -14.8223   27.2291 O.3     1  UNL1       -0.4036
     33 C          -7.7772  -15.1779   27.7671 C.3     1  UNL1        0.5753
     34 F          -9.1315  -15.5334   28.3053 F       1  UNL1       -0.1328
     35 F          -7.9413  -13.7777   28.2794 F       1  UNL1       -0.1328
     36 F          -7.6131  -16.5781   27.2548 F       1  UNL1       -0.1328
@<TRIPOS>BOND
     1    11    12    1
     2    12    13    1
     3    12    14    1
     4    12     6    1
     5     6     7   ar
     6     7     8   ar
     7     8     9   ar
     8     9     2    1
     9     2     3    2
    10     2     4   am
    11     4     1    1
    12     1    24    1
    13    24    25    1
    14    25    26   ar
    15    26    27   ar
    16    27    28   ar
    17    28    32    1
    18    32    33    1
    19    33    34    1
    20    33    35    1
    21    33    36    1
    22    28    29   ar
    23    29    30    1
    24    29    31   ar
    25     1    15    1
    26    15    16    2
    27    15    17   am
    28    17    19    1
    29    19    22    1
    30    22    23    3
    31    19    20    1
    32    20    21    1
    33     9    10   ar
    34    10     6   ar
    35    31    25   ar
    36    21    19    1
    37     4     5    1
    38    17    18    1
@<TRIPOS>MOLECULE
*****
 36 38 0 0 0
SMALL
GASTEIGER

@<TRIPOS>ATOM
      1 C           4.6208   -1.2441   26.5084 C.3     1  UNL1        0.1532
      2 C           6.3243   -2.7473   27.7689 C.2     1  UNL1        0.2673
      3 O           7.1238   -1.5328   28.1369 O.2     1  UNL1       -0.2684
      4 N           5.0727   -2.6030   26.9546 N.am    1  UNL1       -0.2932
      5 H           4.5480   -3.4002   26.7131 H       1  UNL1        0.1502
      6 N           7.6779   -6.3596   28.1991 N.ar    1  UNL1       -0.1741
      7 N           7.2652   -6.0354   29.6043 N.ar    1  UNL1       -0.1491
      8 C           6.7079   -4.6428   29.6142 C.ar    1  UNL1        0.1472
      9 C           6.7762   -4.1063   28.2151 C.ar    1  UNL1        0.1763
     10 N           7.3757   -5.1673   27.3404 N.ar    1  UNL1       -0.1462
     11 C           7.3923   -7.6367   26.5294 C.3     1  UNL1        0.0263
     12 C           8.2861   -7.6495   27.7341 C.3     1  UNL1        0.1054
     13 C           9.1798   -7.6623   28.9387 C.3     1  UNL1        0.0263
     14 C           8.8942   -8.9394   27.2691 C.3     1  UNL1        0.0263
     15 C           3.7890   -0.3930   27.4216 C.2     1  UNL1        0.2413
     16 O           4.2913    0.9513   27.8581 O.2     1  UNL1       -0.2733
     17 N           2.4551   -0.8863   27.8983 N.am    1  UNL1       -0.2945
     18 H           2.1255   -1.7686   27.6118 H       1  UNL1        0.1503
     19 C           1.6234   -0.0352   28.8114 C.3     1  UNL1        0.1365
     20 C           0.6014    0.9655   29.2633 C.3     1  UNL1        0.0353
     21 C           0.7867    0.6911   27.8002 C.3     1  UNL1        0.0353
     22 C           2.1712   -0.4659   30.1397 C.1     1  UNL1        0.0896
     23 N           2.7190   -0.8966   31.4680 N.1     1  UNL1       -0.1943
     24 C           5.0007   -0.7362   25.1491 C.3     1  UNL1        0.0553
     25 C           5.0196   -1.6722   23.9771 C.ar    1  UNL1       -0.0190
     26 C           3.8685   -1.6936   23.0157 C.ar    1  UNL1       -0.0010
     27 C           3.8874   -2.6295   21.8437 C.ar    1  UNL1        0.0377
     28 C           5.0576   -3.5441   21.6331 C.ar    1  UNL1        0.1572
     29 C           6.2088   -3.5227   22.5945 C.ar    1  UNL1        0.0915
     30 CL          7.3789   -4.4372   22.3838 Cl      1  UNL1       -0.0791
     31 C           6.1898   -2.5867   23.7664 C.ar    1  UNL1        0.0103
     32 O           5.0765   -4.4801   20.4610 O.3     1  UNL1       -0.4036
     33 C           3.8834   -4.5740   19.5569 C.3     1  UNL1        0.5753
     34 F           2.6902   -4.6679   18.6527 F       1  UNL1       -0.1328
     35 F           4.4698   -3.5136   18.6729 F       1  UNL1       -0.1328
     36 F           3.2969   -5.6344   20.4409 F       1  UNL1       -0.1328
@<TRIPOS>BOND
     1    11    12    1
     2    12    13    1
     3    12    14    1
     4    12     6    1
     5     6     7   ar
     6     7     8   ar
     7     8     9   ar
     8     9     2    1
     9     2     3    2
    10     2     4   am
    11     4     1    1
    12     1    24    1
    13    24    25    1
    14    25    26   ar
    15    26    27   ar
    16    27    28   ar
    17    28    32    1
    18    32    33    1
    19    33    34    1
    20    33    35    1
    21    33    36    1
    22    28    29   ar
    23    29    30    1
    24    29    31   ar
    25     1    15    1
    26    15    16    2
    27    15    17   am
    28    17    19    1
    29    19    22    1
    30    22    23    3
    31    19    20    1
    32    20    21    1
    33     9    10   ar
    34    10     6   ar
    35    31    25   ar
    36    21    19    1
    37     4     5    1
    38    17    18    1
@<TRIPOS>MOLECULE
*****
 36 38 0 0 0
SMALL
GASTEIGER

@<TRIPOS>ATOM
      1 C           5.9553   -2.3561   26.1948 C.3     1  UNL1        0.1532
      2 C           4.5834   -1.0057   27.9397 C.2     1  UNL1        0.2673
      3 O           5.8562   -0.4752   28.5299 O.2     1  UNL1       -0.2684
      4 N           4.6329   -1.9462   26.7721 N.am    1  UNL1       -0.2932
      5 H           3.7975   -2.2943   26.3846 H       1  UNL1        0.1502
      6 N           1.0040    0.2714   28.7289 N.ar    1  UNL1       -0.1741
      7 N           1.4479   -0.2014   30.0815 N.ar    1  UNL1       -0.1491
      8 C           2.8427   -0.7373   29.9504 C.ar    1  UNL1        0.1472
      9 C           3.2610   -0.5958   28.5169 C.ar    1  UNL1        0.1763
     10 N           2.1245    0.0277   27.7619 N.ar    1  UNL1       -0.1462
     11 C           0.3506    2.1743   28.0561 C.3     1  UNL1        0.0263
     12 C          -0.3267    0.8810   28.4009 C.3     1  UNL1        0.1054
     13 C          -1.0040   -0.4122   28.7456 C.3     1  UNL1        0.0263
     14 C          -1.6574    1.4905   28.0728 C.3     1  UNL1        0.0263
     15 C           6.7793   -3.4061   26.8793 C.2     1  UNL1        0.2413
     16 O           8.2680   -3.2483   26.9728 O.2     1  UNL1       -0.2733
     17 N           6.1146   -4.6140   27.4702 N.am    1  UNL1       -0.2945
     18 H           5.1375   -4.7176   27.4088 H       1  UNL1        0.1503
     19 C           6.9386   -5.6640   28.1547 C.3     1  UNL1        0.1365
     20 C           7.6672   -6.3973   29.2416 C.3     1  UNL1        0.0353
     21 C           6.9501   -5.1166   29.5512 C.3     1  UNL1        0.0353
     22 C           7.2132   -6.5759   26.9959 C.1     1  UNL1        0.0896
     23 N           7.4879   -7.4879   25.8370 N.1     1  UNL1       -0.1943
     24 C           6.4537   -1.7160   24.9332 C.3     1  UNL1        0.0553
     25 C           5.8017   -2.0372   23.6209 C.ar    1  UNL1       -0.0190
     26 C           5.2413   -3.4071   23.3774 C.ar    1  UNL1       -0.0010
     27 C           4.5894   -3.7282   22.0652 C.ar    1  UNL1        0.0377
     28 C           4.4979   -2.6795   20.9966 C.ar    1  UNL1        0.1572
     29 C           5.0583   -1.3097   21.2402 C.ar    1  UNL1        0.0915
     30 CL          4.9668   -0.2610   20.1716 Cl      1  UNL1       -0.0791
     31 C           5.7102   -0.9885   22.5524 C.ar    1  UNL1        0.0103
     32 O           3.8459   -3.0007   19.6844 O.3     1  UNL1       -0.4036
     33 C           4.2532   -4.2287   18.9253 C.3     1  UNL1        0.5753
     34 F           4.6605   -5.4566   18.1661 F       1  UNL1       -0.1328
     35 F           5.6230   -3.6510   18.7258 F       1  UNL1       -0.1328
     36 F           2.8834   -4.8063   19.1248 F       1  UNL1       -0.1328
@<TRIPOS>BOND
     1    11    12    1
     2    12    13    1
     3    12    14    1
     4    12     6    1
     5     6     7   ar
     6     7     8   ar
     7     8     9   ar
     8     9     2    1
     9     2     3    2
    10     2     4   am
    11     4     1    1
    12     1    24    1
    13    24    25    1
    14    25    26   ar
    15    26    27   ar
    16    27    28   ar
    17    28    32    1
    18    32    33    1
    19    33    34    1
    20    33    35    1
    21    33    36    1
    22    28    29   ar
    23    29    30    1
    24    29    31   ar
    25     1    15    1
    26    15    16    2
    27    15    17   am
    28    17    19    1
    29    19    22    1
    30    22    23    3
    31    19    20    1
    32    20    21    1
    33     9    10   ar
    34    10     6   ar
    35    31    25   ar
    36    21    19    1
    37     4     5    1
    38    17    18    1
@<TRIPOS>MOLECULE
*****
 36 38 0 0 0
SMALL
GASTEIGER

@<TRIPOS>ATOM
      1 C           3.7354   -0.5903   25.4249 C.3     1  UNL1        0.1532
      2 C           5.7974   -2.1278   25.7917 C.2     1  UNL1        0.2673
      3 O           6.5799   -0.9558   26.3055 O.2     1  UNL1       -0.2684
      4 N           4.3751   -1.9451   25.3514 N.am    1  UNL1       -0.2932
      5 H           3.8615   -2.7143   25.0142 H       1  UNL1        0.1502
      6 N           7.5623   -5.4613   24.8761 N.ar    1  UNL1       -0.1741
      7 N           7.2804   -5.6735   26.3341 N.ar    1  UNL1       -0.1491
      8 C           6.5850   -4.4506   26.8545 C.ar    1  UNL1        0.1472
      9 C           6.4370   -3.4826   25.7182 C.ar    1  UNL1        0.1763
     10 N           7.0411   -4.1073   24.4954 N.ar    1  UNL1       -0.1462
     11 C           8.3944   -5.3542   22.9277 C.3     1  UNL1        0.0263
     12 C           8.2455   -6.4326   23.9597 C.3     1  UNL1        0.1054
     13 C           8.0966   -7.5110   24.9917 C.3     1  UNL1        0.0263
     14 C           8.9287   -7.4039   23.0433 C.3     1  UNL1        0.0263
     15 C           3.2416   -0.0644   26.7401 C.2     1  UNL1        0.2413
     16 O           3.2947    1.4069   27.0271 O.2     1  UNL1       -0.2733
     17 N           2.6949   -1.0098   27.7682 N.am    1  UNL1       -0.2945
     18 H           2.6601   -1.9755   27.5799 H       1  UNL1        0.1503
     19 C           2.2011   -0.4839   29.0834 C.3     1  UNL1        0.1365
     20 C           2.2094   -0.0344   30.5144 C.3     1  UNL1        0.0353
     21 C           3.4755   -0.5212   29.8738 C.3     1  UNL1        0.0353
     22 C           0.7554   -0.2640   28.7497 C.1     1  UNL1        0.0896
     23 N          -0.6905   -0.0440   28.4160 N.1     1  UNL1       -0.1943
     24 C           3.5896    0.2386   24.1833 C.3     1  UNL1        0.0553
     25 C           3.7072   -0.4052   22.8335 C.ar    1  UNL1       -0.0190
     26 C           2.4788   -0.6420   22.0060 C.ar    1  UNL1       -0.0010
     27 C           2.5964   -1.2859   20.6563 C.ar    1  UNL1        0.0377
     28 C           3.9424   -1.6929   20.1342 C.ar    1  UNL1        0.1572
     29 C           5.1708   -1.4561   20.9618 C.ar    1  UNL1        0.0915
     30 CL          6.5168   -1.8631   20.4397 Cl      1  UNL1       -0.0791
     31 C           5.0532   -0.8123   22.3115 C.ar    1  UNL1        0.0103
     32 O           4.0600   -2.3367   18.7845 O.3     1  UNL1       -0.4036
     33 C           4.3408   -3.8062   18.6764 C.3     1  UNL1        0.5753
     34 F           4.6217   -5.2757   18.5683 F       1  UNL1       -0.1328
     35 F           5.6192   -3.5085   17.9504 F       1  UNL1       -0.1328
     36 F           3.0624   -4.1039   19.4023 F       1  UNL1       -0.1328
@<TRIPOS>BOND
     1    11    12    1
     2    12    13    1
     3    12    14    1
     4    12     6    1
     5     6     7   ar
     6     7     8   ar
     7     8     9   ar
     8     9     2    1
     9     2     3    2
    10     2     4   am
    11     4     1    1
    12     1    24    1
    13    24    25    1
    14    25    26   ar
    15    26    27   ar
    16    27    28   ar
    17    28    32    1
    18    32    33    1
    19    33    34    1
    20    33    35    1
    21    33    36    1
    22    28    29   ar
    23    29    30    1
    24    29    31   ar
    25     1    15    1
    26    15    16    2
    27    15    17   am
    28    17    19    1
    29    19    22    1
    30    22    23    3
    31    19    20    1
    32    20    21    1
    33     9    10   ar
    34    10     6   ar
    35    31    25   ar
    36    21    19    1
    37     4     5    1
    38    17    18    1
@<TRIPOS>MOLECULE
*****
 36 38 0 0 0
SMALL
GASTEIGER

@<TRIPOS>ATOM
      1 C           6.5958   -0.9071   32.1162 C.3     1  UNL1        0.1532
      2 C           4.0278   -0.6671   31.8032 C.2     1  UNL1        0.2673
      3 O           3.8226   -1.9960   32.4679 O.2     1  UNL1       -0.2684
      4 N           5.4144   -0.1226   31.6274 N.am    1  UNL1       -0.2932
      5 H           5.5491    0.7497   31.1912 H       1  UNL1        0.1502
      6 N           1.0378    0.9381   29.9195 N.ar    1  UNL1       -0.1741
      7 N           1.0192    1.7111   31.2049 N.ar    1  UNL1       -0.1491
      8 C           2.1370    1.2038   32.0670 C.ar    1  UNL1        0.1472
      9 C           2.8464    0.1174   31.3144 C.ar    1  UNL1        0.1763
     10 N           2.1671   -0.0469   29.9871 N.ar    1  UNL1       -0.1462
     11 C          -0.4232   -0.2750   28.9739 C.3     1  UNL1        0.0263
     12 C           0.0929    1.1184   28.7685 C.3     1  UNL1        0.1054
     13 C           0.6091    2.5118   28.5631 C.3     1  UNL1        0.0263
     14 C          -0.8519    1.2987   27.6175 C.3     1  UNL1        0.0263
     15 C           7.1015   -2.0746   31.3217 C.2     1  UNL1        0.2413
     16 O           8.4773   -2.0364   30.7251 O.2     1  UNL1       -0.2733
     17 N           6.2315   -3.2804   31.1238 N.am    1  UNL1       -0.2945
     18 H           5.3286   -3.3055   31.5154 H       1  UNL1        0.1503
     19 C           6.7372   -4.4479   30.3294 C.3     1  UNL1        0.1365
     20 C           7.3216   -5.7938   30.0180 C.3     1  UNL1        0.0353
     21 C           7.1394   -5.3671   31.4445 C.3     1  UNL1        0.0353
     22 C           6.5107   -3.9341   28.9385 C.1     1  UNL1        0.0896
     23 N           6.2842   -3.4204   27.5475 N.1     1  UNL1       -0.1943
     24 C           7.2715   -0.5241   33.3994 C.3     1  UNL1        0.0553
     25 C           6.4772    0.1009   34.5078 C.ar    1  UNL1       -0.0190
     26 C           5.5254   -0.7344   35.3118 C.ar    1  UNL1       -0.0010
     27 C           4.7312   -0.1094   36.4202 C.ar    1  UNL1        0.0377
     28 C           4.8886    1.3509   36.7245 C.ar    1  UNL1        0.1572
     29 C           5.8404    2.1863   35.9206 C.ar    1  UNL1        0.0915
     30 CL          5.9978    3.6466   36.2250 Cl      1  UNL1       -0.0791
     31 C           6.6346    1.5613   34.8122 C.ar    1  UNL1        0.0103
     32 O           4.0943    1.9759   37.8330 O.3     1  UNL1       -0.4036
     33 C           2.7498    1.4200   38.1979 C.3     1  UNL1        0.5753
     34 F           1.4052    0.8641   38.5628 F       1  UNL1       -0.1328
     35 F           3.3663    0.6864   39.3518 F       1  UNL1       -0.1328
     36 F           2.1333    2.1536   37.0439 F       1  UNL1       -0.1328
@<TRIPOS>BOND
     1    11    12    1
     2    12    13    1
     3    12    14    1
     4    12     6    1
     5     6     7   ar
     6     7     8   ar
     7     8     9   ar
     8     9     2    1
     9     2     3    2
    10     2     4   am
    11     4     1    1
    12     1    24    1
    13    24    25    1
    14    25    26   ar
    15    26    27   ar
    16    27    28   ar
    17    28    32    1
    18    32    33    1
    19    33    34    1
    20    33    35    1
    21    33    36    1
    22    28    29   ar
    23    29    30    1
    24    29    31   ar
    25     1    15    1
    26    15    16    2
    27    15    17   am
    28    17    19    1
    29    19    22    1
    30    22    23    3
    31    19    20    1
    32    20    21    1
    33     9    10   ar
    34    10     6   ar
    35    31    25   ar
    36    21    19    1
    37     4     5    1
    38    17    18    1
@<TRIPOS>MOLECULE
*****
 36 38 0 0 0
SMALL
GASTEIGER

@<TRIPOS>ATOM
      1 C           1.9794    0.4206   19.7780 C.3     1  UNL1        0.1532
      2 C           0.1293    2.1250   20.4280 C.2     1  UNL1        0.2673
      3 O           0.6925    2.2070   21.8158 O.2     1  UNL1       -0.2684
      4 N           0.7728    1.2318   19.4091 N.am    1  UNL1       -0.2932
      5 H           0.4032    1.1779   18.4982 H       1  UNL1        0.1502
      6 N          -3.3460    3.7952   19.9827 N.ar    1  UNL1       -0.1741
      7 N          -2.5223    4.5735   19.0000 N.ar    1  UNL1       -0.1491
      8 C          -1.1202    4.0426   19.0472 C.ar    1  UNL1        0.1472
      9 C          -1.0773    2.9361   20.0591 C.ar    1  UNL1        0.1763
     10 N          -2.4530    2.7832   20.6373 N.ar    1  UNL1       -0.1462
     11 C          -4.4833    4.3838   21.6740 C.3     1  UNL1        0.0263
     12 C          -4.8063    3.9940   20.2619 C.3     1  UNL1        0.1054
     13 C          -5.1293    3.6042   18.8499 C.3     1  UNL1        0.0263
     14 C          -6.2666    4.1927   20.5411 C.3     1  UNL1        0.0263
     15 C           3.3525    0.9259   19.4473 C.2     1  UNL1        0.2413
     16 O           4.2218    1.4975   20.5278 O.2     1  UNL1       -0.2733
     17 N           3.8564    0.8595   18.0360 N.am    1  UNL1       -0.2945
     18 H           3.2859    0.4843   17.3268 H       1  UNL1        0.1503
     19 C           5.2294    1.3647   17.7053 C.3     1  UNL1        0.1365
     20 C           6.3516    2.3225   17.4345 C.3     1  UNL1        0.0353
     21 C           4.9837    2.8433   17.7627 C.3     1  UNL1        0.0353
     22 C           5.9520    0.0616   17.5331 C.1     1  UNL1        0.0896
     23 N           6.6746   -1.2416   17.3608 N.1     1  UNL1       -0.1943
     24 C           1.8129   -0.8957   20.4776 C.3     1  UNL1        0.0553
     25 C           2.9779   -1.8328   20.5997 C.ar    1  UNL1       -0.0190
     26 C           3.8568   -1.7825   21.8142 C.ar    1  UNL1       -0.0010
     27 C           5.0216   -2.7196   21.9362 C.ar    1  UNL1        0.0377
     28 C           5.3076   -3.7069   20.8438 C.ar    1  UNL1        0.1572
     29 C           4.4287   -3.7572   19.6293 C.ar    1  UNL1        0.0915
     30 CL          4.7147   -4.7445   18.5369 Cl      1  UNL1       -0.0791
     31 C           3.2639   -2.8201   19.5073 C.ar    1  UNL1        0.0103
     32 O           6.4726   -4.6440   20.9659 O.3     1  UNL1       -0.4036
     33 C           7.8307   -4.1109   21.3141 C.3     1  UNL1        0.5753
     34 F           9.1888   -3.5777   21.6622 F       1  UNL1       -0.1328
     35 F           7.8600   -3.3440   20.0253 F       1  UNL1       -0.1328
     36 F           7.8013   -4.8778   22.6028 F       1  UNL1       -0.1328
@<TRIPOS>BOND
     1    11    12    1
     2    12    13    1
     3    12    14    1
     4    12     6    1
     5     6     7   ar
     6     7     8   ar
     7     8     9   ar
     8     9     2    1
     9     2     3    2
    10     2     4   am
    11     4     1    1
    12     1    24    1
    13    24    25    1
    14    25    26   ar
    15    26    27   ar
    16    27    28   ar
    17    28    32    1
    18    32    33    1
    19    33    34    1
    20    33    35    1
    21    33    36    1
    22    28    29   ar
    23    29    30    1
    24    29    31   ar
    25     1    15    1
    26    15    16    2
    27    15    17   am
    28    17    19    1
    29    19    22    1
    30    22    23    3
    31    19    20    1
    32    20    21    1
    33     9    10   ar
    34    10     6   ar
    35    31    25   ar
    36    21    19    1
    37     4     5    1
    38    17    18    1
@<TRIPOS>MOLECULE
*****
 36 38 0 0 0
SMALL
GASTEIGER

@<TRIPOS>ATOM
      1 C           5.8548   -2.2473   26.1702 C.3     1  UNL1        0.1532
      2 C           5.9769   -2.2605   23.5750 C.2     1  UNL1        0.2673
      3 O           7.3756   -1.7224   23.6380 O.2     1  UNL1       -0.2684
      4 N           5.2164   -2.5230   24.8411 N.am    1  UNL1       -0.2932
      5 H           4.2984   -2.8762   24.7997 H       1  UNL1        0.1502
      6 N           4.5495   -2.2750   19.9655 N.ar    1  UNL1       -0.1741
      7 N           4.1630   -3.6461   20.4356 N.ar    1  UNL1       -0.1491
      8 C           4.6506   -3.8075   21.8449 C.ar    1  UNL1        0.1472
      9 C           5.3385   -2.5363   22.2458 C.ar    1  UNL1        0.1763
     10 N           5.2760   -1.5891   21.0843 N.ar    1  UNL1       -0.1462
     11 C           3.1275   -0.9008   19.1976 C.3     1  UNL1        0.0263
     12 C           4.2603   -1.6922   18.6140 C.3     1  UNL1        0.1054
     13 C           5.3930   -2.4836   18.0303 C.3     1  UNL1        0.0263
     14 C           3.9711   -1.1094   17.2624 C.3     1  UNL1        0.0263
     15 C           6.6827   -3.3047   26.8383 C.2     1  UNL1        0.2413
     16 O           8.1798   -3.2388   26.7713 O.2     1  UNL1       -0.2733
     17 N           6.0136   -4.4280   27.5735 N.am    1  UNL1       -0.2945
     18 H           5.0310   -4.4713   27.6174 H       1  UNL1        0.1503
     19 C           6.8415   -5.4854   28.2416 C.3     1  UNL1        0.1365
     20 C           7.5873   -6.2238   29.3132 C.3     1  UNL1        0.0353
     21 C           6.8924   -4.9341   29.6357 C.3     1  UNL1        0.0353
     22 C           7.0782   -6.4039   27.0795 C.1     1  UNL1        0.0896
     23 N           7.3149   -7.3224   25.9175 N.1     1  UNL1       -0.1943
     24 C           5.6652   -0.9142   26.8311 C.3     1  UNL1        0.0553
     25 C           4.4096   -0.6307   27.6013 C.ar    1  UNL1       -0.0190
     26 C           3.1957   -0.1090   26.8911 C.ar    1  UNL1       -0.0010
     27 C           1.9402    0.1745   27.6614 C.ar    1  UNL1        0.0377
     28 C           1.8985   -0.0638   29.1417 C.ar    1  UNL1        0.1572
     29 C           3.1124   -0.5854   29.8519 C.ar    1  UNL1        0.0915
     30 CL          3.0707   -0.8237   31.3323 Cl      1  UNL1       -0.0791
     31 C           4.3679   -0.8689   29.0817 C.ar    1  UNL1        0.0103
     32 O           0.6429    0.2197   29.9119 O.3     1  UNL1       -0.4036
     33 C          -0.6233    0.5596   29.1833 C.3     1  UNL1        0.5753
     34 F          -1.8897    0.8993   28.4545 F       1  UNL1       -0.1328
     35 F          -0.9892   -0.8945   29.1409 F       1  UNL1       -0.1328
     36 F          -0.2575    2.0136   29.2256 F       1  UNL1       -0.1328
@<TRIPOS>BOND
     1    11    12    1
     2    12    13    1
     3    12    14    1
     4    12     6    1
     5     6     7   ar
     6     7     8   ar
     7     8     9   ar
     8     9     2    1
     9     2     3    2
    10     2     4   am
    11     4     1    1
    12     1    24    1
    13    24    25    1
    14    25    26   ar
    15    26    27   ar
    16    27    28   ar
    17    28    32    1
    18    32    33    1
    19    33    34    1
    20    33    35    1
    21    33    36    1
    22    28    29   ar
    23    29    30    1
    24    29    31   ar
    25     1    15    1
    26    15    16    2
    27    15    17   am
    28    17    19    1
    29    19    22    1
    30    22    23    3
    31    19    20    1
    32    20    21    1
    33     9    10   ar
    34    10     6   ar
    35    31    25   ar
    36    21    19    1
    37     4     5    1
    38    17    18    1
@<TRIPOS>MOLECULE
*****
 36 38 0 0 0
SMALL
GASTEIGER

@<TRIPOS>ATOM
      1 C           0.2465    3.6291   21.5647 C.3     1  UNL1        0.1532
      2 C           0.9950    1.3542   20.5575 C.2     1  UNL1        0.2673
      3 O          -0.0128    0.6442   21.4120 O.2     1  UNL1       -0.2684
      4 N           1.1247    2.8467   20.6338 N.am    1  UNL1       -0.2932
      5 H           1.7862    3.3126   20.0730 H       1  UNL1        0.1502
      6 N           3.4099   -1.0931   18.7562 N.ar    1  UNL1       -0.1741
      7 N           3.0395   -0.1716   17.6321 N.ar    1  UNL1       -0.1491
      8 C           2.0898    0.8573   18.1701 C.ar    1  UNL1        0.1472
      9 C           1.8733    0.5717   19.6266 C.ar    1  UNL1        0.1763
     10 N           2.6891   -0.6338   19.9889 N.ar    1  UNL1       -0.1462
     11 C           5.3156   -1.4346   17.8890 C.3     1  UNL1        0.0263
     12 C           4.3381   -2.2678   18.6638 C.3     1  UNL1        0.1054
     13 C           3.3607   -3.1011   19.4386 C.3     1  UNL1        0.0263
     14 C           5.2663   -3.4425   18.5715 C.3     1  UNL1        0.0263
     15 C          -1.1329    4.0312   21.1339 C.2     1  UNL1        0.2413
     16 O          -1.5103    5.4821   21.0849 O.2     1  UNL1       -0.2733
     17 N          -2.1349    2.9823   20.7521 N.am    1  UNL1       -0.2945
     18 H          -1.8873    2.0300   20.7842 H       1  UNL1        0.1503
     19 C          -3.5143    3.3844   20.3213 C.3     1  UNL1        0.1365
     20 C          -4.6354    3.8561   19.4435 C.3     1  UNL1        0.0353
     21 C          -3.2497    3.7245   18.8845 C.3     1  UNL1        0.0353
     22 C          -4.2580    3.1840   21.6084 C.1     1  UNL1        0.0896
     23 N          -5.0017    2.9835   22.8956 N.1     1  UNL1       -0.1943
     24 C           0.7477    4.0095   22.9263 C.3     1  UNL1        0.0553
     25 C           0.2110    3.3166   24.1437 C.ar    1  UNL1       -0.0190
     26 C           0.9153    2.1113   24.6924 C.ar    1  UNL1       -0.0010
     27 C           0.3786    1.4185   25.9097 C.ar    1  UNL1        0.0377
     28 C          -0.8625    1.9310   26.5783 C.ar    1  UNL1        0.1572
     29 C          -1.5668    3.1363   26.0297 C.ar    1  UNL1        0.0915
     30 CL         -2.8079    3.6487   26.6983 Cl      1  UNL1       -0.0791
     31 C          -1.0301    3.8291   24.8124 C.ar    1  UNL1        0.0103
     32 O          -1.3992    1.2380   27.7957 O.3     1  UNL1       -0.4036
     33 C          -0.4886    0.4023   28.6456 C.3     1  UNL1        0.5753
     34 F           0.4220   -0.4334   29.4956 F       1  UNL1       -0.1328
     35 F          -1.2035   -0.8364   28.1935 F       1  UNL1       -0.1328
     36 F           0.2262    1.6411   29.0978 F       1  UNL1       -0.1328
@<TRIPOS>BOND
     1    11    12    1
     2    12    13    1
     3    12    14    1
     4    12     6    1
     5     6     7   ar
     6     7     8   ar
     7     8     9   ar
     8     9     2    1
     9     2     3    2
    10     2     4   am
    11     4     1    1
    12     1    24    1
    13    24    25    1
    14    25    26   ar
    15    26    27   ar
    16    27    28   ar
    17    28    32    1
    18    32    33    1
    19    33    34    1
    20    33    35    1
    21    33    36    1
    22    28    29   ar
    23    29    30    1
    24    29    31   ar
    25     1    15    1
    26    15    16    2
    27    15    17   am
    28    17    19    1
    29    19    22    1
    30    22    23    3
    31    19    20    1
    32    20    21    1
    33     9    10   ar
    34    10     6   ar
    35    31    25   ar
    36    21    19    1
    37     4     5    1
    38    17    18    1
