@<TRIPOS>MOLECULE
*****
 33 35 0 0 0
SMALL
GASTEIGER

@<TRIPOS>ATOM
      1 C          -4.3563  -17.2459   23.4926 C.3     1  UNL1        0.1371
      2 C          -2.8626  -17.2638   23.6290 C.3     1  UNL1        0.0274
      3 C          -2.0389  -18.1483   22.7406 C.3     1  UNL1        0.0265
      4 C          -2.7089  -19.0150   21.7160 C.3     1  UNL1        0.1104
      5 N          -4.2025  -18.9972   21.5797 N.ar    1  UNL1       -0.2804
      6 C          -5.0262  -18.1127   22.4680 C.ar    1  UNL1        0.1391
      7 N          -6.5199  -18.0949   22.3317 N.ar    1  UNL1       -0.2231
      8 C          -7.1899  -18.9616   21.3070 C.ar    1  UNL1        0.1740
      9 C          -6.3662  -19.8462   20.4187 C.ar    1  UNL1        0.2130
     10 O          -7.0362  -20.7129   19.3941 O.3     1  UNL1       -0.5006
     11 C          -4.8725  -19.8640   20.5550 C.ar    1  UNL1        0.2973
     12 O          -4.0488  -20.7485   19.6667 O.2     1  UNL1       -0.2636
     13 H          -7.9693  -20.7018   19.3089 H       1  UNL1        0.2924
     14 C          -8.6836  -18.9438   21.1707 C.2     1  UNL1        0.2671
     15 O          -9.4106  -20.1769   20.7224 O.2     1  UNL1       -0.2684
     16 N          -9.4504  -17.6929   21.4826 N.am    1  UNL1       -0.2956
     17 H          -8.9732  -16.8836   21.7769 H       1  UNL1        0.1501
     18 C         -10.9440  -17.6751   21.3463 C.3     1  UNL1        0.1166
     19 C         -11.8094  -17.9564   22.5388 C.ar    1  UNL1       -0.0024
     20 C         -11.2255  -18.6238   23.7485 C.ar    1  UNL1       -0.0003
     21 C         -12.0908  -18.9052   24.9410 C.ar    1  UNL1        0.0294
     22 C         -13.5402  -18.5192   24.9237 C.ar    1  UNL1        0.1401
     23 F         -14.4056  -18.8005   26.1161 F       1  UNL1       -0.2042
     24 C         -14.1241  -17.8517   23.7139 C.ar    1  UNL1        0.0294
     25 C         -13.2587  -17.5704   22.5215 C.ar    1  UNL1       -0.0003
     26 N          -5.1800  -16.3614   24.3810 N.3     1  UNL1       -0.1381
     27 C          -4.6676  -15.9736   25.7363 C.3     1  UNL1        0.1165
     28 S          -6.5160  -15.8646   23.9139 S.O2    1  UNL1        0.1025
     29 O          -7.1953  -16.7455   24.9201 O.2     1  UNL1       -0.1408
     30 O          -5.8367  -14.9838   22.9077 O.2     1  UNL1       -0.1408
     31 C          -9.0425  -15.4503   24.3558 C.3     1  UNL1        0.1161
     32 N          -7.8521  -15.3679   23.4468 N.3     1  UNL1       -0.1424
     33 C          -7.9978  -14.7887   22.0709 C.3     1  UNL1        0.1161
@<TRIPOS>BOND
     1    31    32    1
     2    32    33    1
     3    32    28    1
     4    28    29    2
     5    28    30    2
     6    28    26    1
     7    26    27    1
     8     1    26    1
     9     1     2    1
    10     2     3    1
    11     3     4    1
    12     4     5    1
    13     5     6   ar
    14     6     7   ar
    15     7     8   ar
    16     8    14    1
    17    14    15    2
    18    14    16   am
    19    16    18    1
    20    18    19    1
    21    19    20   ar
    22    20    21   ar
    23    21    22   ar
    24    22    23    1
    25    22    24   ar
    26    24    25   ar
    27     8     9   ar
    28     9    10    1
    29     9    11   ar
    30    11    12    2
    31     6     1    1
    32    25    19   ar
    33    11     5   ar
    34    16    17    1
    35    10    13    1
@<TRIPOS>MOLECULE
*****
 33 35 0 0 0
SMALL
GASTEIGER

@<TRIPOS>ATOM
      1 C           3.2471   -1.5357   20.0219 C.3     1  UNL1        0.1371
      2 C           3.5748   -2.2623   18.7512 C.3     1  UNL1        0.0274
      3 C           4.5330   -3.4161   18.7727 C.3     1  UNL1        0.0265
      4 C           5.1635   -3.8434   20.0649 C.3     1  UNL1        0.1104
      5 N           4.8359   -3.1168   21.3355 N.ar    1  UNL1       -0.2804
      6 C           3.8777   -1.9630   21.3141 C.ar    1  UNL1        0.1391
      7 N           3.5501   -1.2364   22.5849 N.ar    1  UNL1       -0.2231
      8 C           4.1807   -1.6637   23.8770 C.ar    1  UNL1        0.1740
      9 C           5.1389   -2.8175   23.8985 C.ar    1  UNL1        0.2130
     10 O           5.7695   -3.2448   25.1908 O.3     1  UNL1       -0.5006
     11 C           5.4665   -3.5441   22.6278 C.ar    1  UNL1        0.2973
     12 O           6.4247   -4.6980   22.6493 O.2     1  UNL1       -0.2636
     13 H           5.5648   -2.7909   25.9845 H       1  UNL1        0.2924
     14 C           3.8531   -0.9371   25.1478 C.2     1  UNL1        0.2671
     15 O           3.9788   -1.6396   26.4672 O.2     1  UNL1       -0.2684
     16 N           3.3997    0.4919   25.0992 N.am    1  UNL1       -0.2956
     17 H           3.3173    0.9530   24.2332 H       1  UNL1        0.1501
     18 C           3.0721    1.2185   26.3698 C.3     1  UNL1        0.1166
     19 C           1.7681    0.9624   27.0654 C.ar    1  UNL1       -0.0024
     20 C           1.7329    0.1217   28.3072 C.ar    1  UNL1       -0.0003
     21 C           0.4288   -0.1344   29.0028 C.ar    1  UNL1        0.0294
     22 C          -0.8400    0.4501   28.4566 C.ar    1  UNL1        0.1401
     23 F          -2.1441    0.1940   29.1522 F       1  UNL1       -0.2042
     24 C          -0.8048    1.2908   27.2149 C.ar    1  UNL1        0.0294
     25 C           0.4993    1.5469   26.5193 C.ar    1  UNL1       -0.0003
     26 N           2.2889   -0.3819   20.0004 N.3     1  UNL1       -0.1381
     27 C           0.9399   -0.5152   20.6425 C.3     1  UNL1        0.1165
     28 S           2.6797    0.9053   19.3368 S.O2    1  UNL1        0.1025
     29 O           1.7076    0.6290   18.2284 O.2     1  UNL1       -0.1408
     30 O           3.6519    1.1816   20.4452 O.2     1  UNL1       -0.1408
     31 C           4.4859    2.4055   18.2246 C.3     1  UNL1        0.1161
     32 N           3.0705    2.1926   18.6732 N.3     1  UNL1       -0.1424
     33 C           2.0459    3.2667   18.4581 C.3     1  UNL1        0.1161
@<TRIPOS>BOND
     1    31    32    1
     2    32    33    1
     3    32    28    1
     4    28    29    2
     5    28    30    2
     6    28    26    1
     7    26    27    1
     8     1    26    1
     9     1     2    1
    10     2     3    1
    11     3     4    1
    12     4     5    1
    13     5     6   ar
    14     6     7   ar
    15     7     8   ar
    16     8    14    1
    17    14    15    2
    18    14    16   am
    19    16    18    1
    20    18    19    1
    21    19    20   ar
    22    20    21   ar
    23    21    22   ar
    24    22    23    1
    25    22    24   ar
    26    24    25   ar
    27     8     9   ar
    28     9    10    1
    29     9    11   ar
    30    11    12    2
    31     6     1    1
    32    25    19   ar
    33    11     5   ar
    34    16    17    1
    35    10    13    1
@<TRIPOS>MOLECULE
*****
 33 35 0 0 0
SMALL
GASTEIGER

@<TRIPOS>ATOM
      1 C          -2.3854    3.8910   25.5348 C.3     1  UNL1        0.1371
      2 C          -3.2357    4.1303   26.7471 C.3     1  UNL1        0.0274
      3 C          -4.7242    4.2518   26.6070 C.3     1  UNL1        0.0265
      4 C          -5.3624    4.1341   25.2547 C.3     1  UNL1        0.1104
      5 N          -4.5121    3.8948   24.0424 N.ar    1  UNL1       -0.2804
      6 C          -3.0236    3.7733   24.1825 C.ar    1  UNL1        0.1391
      7 N          -2.1733    3.5340   22.9701 N.ar    1  UNL1       -0.2231
      8 C          -2.8115    3.4162   21.6178 C.ar    1  UNL1        0.1740
      9 C          -4.3000    3.5378   21.4777 C.ar    1  UNL1        0.2130
     10 O          -4.9382    3.4200   20.1253 O.3     1  UNL1       -0.5006
     11 C          -5.1503    3.7770   22.6900 C.ar    1  UNL1        0.2973
     12 O          -6.6388    3.8986   22.5500 O.2     1  UNL1       -0.2636
     13 H          -4.4070    3.2706   19.3680 H       1  UNL1        0.2924
     14 C          -1.9612    3.1770   20.4054 C.2     1  UNL1        0.2671
     15 O          -2.2907    3.8604   19.1115 O.2     1  UNL1       -0.2684
     16 N          -0.7814    2.2543   20.4871 N.am    1  UNL1       -0.2956
     17 H          -0.5651    1.8057   21.3363 H       1  UNL1        0.1501
     18 C           0.0689    2.0150   19.2748 C.3     1  UNL1        0.1166
     19 C           1.1105    0.9356   19.2903 C.ar    1  UNL1       -0.0024
     20 C           1.0310   -0.1687   20.3023 C.ar    1  UNL1       -0.0003
     21 C           2.0725   -1.2481   20.3179 C.ar    1  UNL1        0.0294
     22 C           3.1935   -1.2231   19.3215 C.ar    1  UNL1        0.1401
     23 F           4.2350   -2.3025   19.3371 F       1  UNL1       -0.2042
     24 C           3.2729   -0.1188   18.3095 C.ar    1  UNL1        0.0294
     25 C           2.2314    0.9606   18.2939 C.ar    1  UNL1       -0.0003
     26 N          -0.8969    3.7695   25.6748 N.3     1  UNL1       -0.1381
     27 C           0.0011    4.7994   25.0564 C.3     1  UNL1        0.1165
     28 S          -0.3065    2.6179   26.4333 S.O2    1  UNL1        0.1025
     29 O          -0.6124    1.7040   25.2840 O.2     1  UNL1       -0.1408
     30 O          -0.0006    3.5319   27.5827 O.2     1  UNL1       -0.1408
     31 C           1.7412    1.1415   27.0475 C.3     1  UNL1        0.1161
     32 N           0.2839    1.4663   27.1918 N.3     1  UNL1       -0.1424
     33 C          -0.5829    0.6396   28.0946 C.3     1  UNL1        0.1161
@<TRIPOS>BOND
     1    31    32    1
     2    32    33    1
     3    32    28    1
     4    28    29    2
     5    28    30    2
     6    28    26    1
     7    26    27    1
     8     1    26    1
     9     1     2    1
    10     2     3    1
    11     3     4    1
    12     4     5    1
    13     5     6   ar
    14     6     7   ar
    15     7     8   ar
    16     8    14    1
    17    14    15    2
    18    14    16   am
    19    16    18    1
    20    18    19    1
    21    19    20   ar
    22    20    21   ar
    23    21    22   ar
    24    22    23    1
    25    22    24   ar
    26    24    25   ar
    27     8     9   ar
    28     9    10    1
    29     9    11   ar
    30    11    12    2
    31     6     1    1
    32    25    19   ar
    33    11     5   ar
    34    16    17    1
    35    10    13    1
@<TRIPOS>MOLECULE
*****
 33 35 0 0 0
SMALL
GASTEIGER

@<TRIPOS>ATOM
      1 C           6.4386   -2.9688   28.9378 C.3     1  UNL1        0.1371
      2 C           6.5638   -3.2332   30.4090 C.3     1  UNL1        0.0274
      3 C           7.0074   -4.5817   30.8936 C.3     1  UNL1        0.0265
      4 C           7.3258   -5.6658   29.9070 C.3     1  UNL1        0.1104
      5 N           7.2005   -5.4014   28.4358 N.ar    1  UNL1       -0.2804
      6 C           6.7569   -4.0529   27.9512 C.ar    1  UNL1        0.1391
      7 N           6.6316   -3.7885   26.4800 N.ar    1  UNL1       -0.2231
      8 C           6.9500   -4.8726   25.4934 C.ar    1  UNL1        0.1740
      9 C           7.3936   -6.2211   25.9780 C.ar    1  UNL1        0.2130
     10 O           7.7119   -7.3052   24.9913 O.3     1  UNL1       -0.5006
     11 C           7.5188   -6.4855   27.4491 C.ar    1  UNL1        0.2973
     12 O           7.9625   -7.8340   27.9337 O.2     1  UNL1       -0.2636
     13 H           7.6336   -7.1400   24.0723 H       1  UNL1        0.2924
     14 C           6.8247   -4.6082   24.0222 C.2     1  UNL1        0.2671
     15 O           7.6391   -5.4034   23.0453 O.2     1  UNL1       -0.2684
     16 N           5.8850   -3.5486   23.5279 N.am    1  UNL1       -0.2956
     17 H           5.3505   -3.0267   24.1691 H       1  UNL1        0.1501
     18 C           5.7597   -3.2843   22.0568 C.3     1  UNL1        0.1166
     19 C           4.5697   -2.5404   21.5271 C.ar    1  UNL1       -0.0024
     20 C           4.1001   -2.7793   20.1227 C.ar    1  UNL1       -0.0003
     21 C           2.9100   -2.0355   19.5930 C.ar    1  UNL1        0.0294
     22 C           2.1896   -1.0528   20.4677 C.ar    1  UNL1        0.1401
     23 F           0.9996   -0.3089   19.9381 F       1  UNL1       -0.2042
     24 C           2.6592   -0.8139   21.8721 C.ar    1  UNL1        0.0294
     25 C           3.8493   -1.5577   22.4018 C.ar    1  UNL1       -0.0003
     26 N           5.9949   -1.6203   28.4533 N.3     1  UNL1       -0.1381
     27 C           6.9254   -0.7734   27.6367 C.3     1  UNL1        0.1165
     28 S           4.6208   -1.1188   28.7852 S.O2    1  UNL1        0.1025
     29 O           4.0430   -1.9898   27.7094 O.2     1  UNL1       -0.1408
     30 O           5.1987   -0.2478   29.8610 O.2     1  UNL1       -0.1408
     31 C           2.7578   -0.6519   30.5349 C.3     1  UNL1        0.1161
     32 N           3.2466   -0.6173   29.1172 N.3     1  UNL1       -0.1424
     33 C           2.3614   -0.0812   28.0315 C.3     1  UNL1        0.1161
@<TRIPOS>BOND
     1    31    32    1
     2    32    33    1
     3    32    28    1
     4    28    29    2
     5    28    30    2
     6    28    26    1
     7    26    27    1
     8     1    26    1
     9     1     2    1
    10     2     3    1
    11     3     4    1
    12     4     5    1
    13     5     6   ar
    14     6     7   ar
    15     7     8   ar
    16     8    14    1
    17    14    15    2
    18    14    16   am
    19    16    18    1
    20    18    19    1
    21    19    20   ar
    22    20    21   ar
    23    21    22   ar
    24    22    23    1
    25    22    24   ar
    26    24    25   ar
    27     8     9   ar
    28     9    10    1
    29     9    11   ar
    30    11    12    2
    31     6     1    1
    32    25    19   ar
    33    11     5   ar
    34    16    17    1
    35    10    13    1
@<TRIPOS>MOLECULE
*****
 33 35 0 0 0
SMALL
GASTEIGER

@<TRIPOS>ATOM
      1 C          -1.8196    3.6891   19.9266 C.3     1  UNL1        0.1371
      2 C          -2.0755    3.8666   18.4593 C.3     1  UNL1        0.0274
      3 C          -3.4719    4.1021   17.9646 C.3     1  UNL1        0.0265
      4 C          -4.6124    4.1600   18.9372 C.3     1  UNL1        0.1104
      5 N          -4.3564    3.9826   20.4045 N.ar    1  UNL1       -0.2804
      6 C          -2.9601    3.7471   20.8992 C.ar    1  UNL1        0.1391
      7 N          -2.7042    3.5696   22.3666 N.ar    1  UNL1       -0.2231
      8 C          -3.8446    3.6276   23.3392 C.ar    1  UNL1        0.1740
      9 C          -5.2410    3.8631   22.8445 C.ar    1  UNL1        0.2130
     10 O          -6.3815    3.9211   23.8172 O.3     1  UNL1       -0.5006
     11 C          -5.4969    4.0406   21.3772 C.ar    1  UNL1        0.2973
     12 O          -6.8933    4.2760   20.8825 O.2     1  UNL1       -0.2636
     13 H          -6.2216    3.8102   24.7337 H       1  UNL1        0.2924
     14 C          -3.5887    3.4502   24.8065 C.2     1  UNL1        0.2671
     15 O          -4.7275    3.5201   25.7803 O.2     1  UNL1       -0.2684
     16 N          -2.1940    3.2028   25.3001 N.am    1  UNL1       -0.2956
     17 H          -1.4466    3.1569   24.6610 H       1  UNL1        0.1501
     18 C          -1.9381    3.0253   26.7674 C.3     1  UNL1        0.1166
     19 C          -0.9078    2.0406   27.2353 C.ar    1  UNL1       -0.0024
     20 C           0.4965    2.1199   26.7143 C.ar    1  UNL1       -0.0003
     21 C           1.5268    1.1353   27.1822 C.ar    1  UNL1        0.0294
     22 C           1.1528    0.0713   28.1711 C.ar    1  UNL1        0.1401
     23 F           2.1831   -0.9133   28.6391 F       1  UNL1       -0.2042
     24 C          -0.2515   -0.0080   28.6921 C.ar    1  UNL1        0.0294
     25 C          -1.2818    0.9767   28.2242 C.ar    1  UNL1       -0.0003
     26 N          -0.4233    3.4537   20.4213 N.3     1  UNL1       -0.1381
     27 C           0.2252    4.4480   21.3382 C.3     1  UNL1        0.1165
     28 S           0.3246    2.2239   19.9991 S.O2    1  UNL1        0.1025
     29 O           1.2630    3.0716   19.1924 O.2     1  UNL1       -0.1408
     30 O          -0.6137    1.3763   20.8058 O.2     1  UNL1       -0.1408
     31 C           2.0080    1.0505   18.4056 C.3     1  UNL1        0.1161
     32 N           1.0726    0.9941   19.5768 N.3     1  UNL1       -0.1424
     33 C           0.8851   -0.2919   20.3257 C.3     1  UNL1        0.1161
@<TRIPOS>BOND
     1    31    32    1
     2    32    33    1
     3    32    28    1
     4    28    29    2
     5    28    30    2
     6    28    26    1
     7    26    27    1
     8     1    26    1
     9     1     2    1
    10     2     3    1
    11     3     4    1
    12     4     5    1
    13     5     6   ar
    14     6     7   ar
    15     7     8   ar
    16     8    14    1
    17    14    15    2
    18    14    16   am
    19    16    18    1
    20    18    19    1
    21    19    20   ar
    22    20    21   ar
    23    21    22   ar
    24    22    23    1
    25    22    24   ar
    26    24    25   ar
    27     8     9   ar
    28     9    10    1
    29     9    11   ar
    30    11    12    2
    31     6     1    1
    32    25    19   ar
    33    11     5   ar
    34    16    17    1
    35    10    13    1
@<TRIPOS>MOLECULE
*****
 33 35 0 0 0
SMALL
GASTEIGER

@<TRIPOS>ATOM
      1 C           5.7169   -1.5884   29.5310 C.3     1  UNL1        0.1371
      2 C           5.8505   -1.8779   30.9967 C.3     1  UNL1        0.0274
      3 C           4.7153   -1.5718   31.9282 C.3     1  UNL1        0.0265
      4 C           3.4466   -0.9761   31.3940 C.3     1  UNL1        0.1104
      5 N           3.3130   -0.6866   29.9283 N.ar    1  UNL1       -0.2804
      6 C           4.4481   -0.9927   28.9968 C.ar    1  UNL1        0.1391
      7 N           4.3144   -0.7032   27.5311 N.ar    1  UNL1       -0.2231
      8 C           3.0457   -0.1075   26.9969 C.ar    1  UNL1        0.1740
      9 C           1.9105    0.1986   27.9284 C.ar    1  UNL1        0.2130
     10 O           0.6417    0.7943   27.3942 O.3     1  UNL1       -0.5006
     11 C           2.0441   -0.0909   29.3941 C.ar    1  UNL1        0.2973
     12 O           0.9090    0.2152   30.3256 O.2     1  UNL1       -0.2636
     13 H           0.5582    0.9752   26.4786 H       1  UNL1        0.2924
     14 C           2.9120    0.1820   25.5311 C.2     1  UNL1        0.2671
     15 O           2.5055    1.5506   25.0710 O.2     1  UNL1       -0.2684
     16 N           3.1848   -0.8970   24.5256 N.am    1  UNL1       -0.2956
     17 H           3.4516   -1.7953   24.8276 H       1  UNL1        0.1501
     18 C           3.0512   -0.6075   23.0599 C.3     1  UNL1        0.1166
     19 C           3.4510   -1.6433   22.0513 C.ar    1  UNL1       -0.0024
     20 C           3.0246   -1.5006   20.6203 C.ar    1  UNL1       -0.0003
     21 C           3.4244   -2.5364   19.6117 C.ar    1  UNL1        0.0294
     22 C           4.2506   -3.7149   20.0341 C.ar    1  UNL1        0.1401
     23 F           4.6505   -4.7507   19.0255 F       1  UNL1       -0.2042
     24 C           4.6771   -3.8576   21.4651 C.ar    1  UNL1        0.0294
     25 C           4.2772   -2.8218   22.4737 C.ar    1  UNL1       -0.0003
     26 N           6.8520   -1.8945   28.5995 N.3     1  UNL1       -0.1381
     27 C           8.0581   -1.0033   28.5687 C.3     1  UNL1        0.1165
     28 S           6.7811   -3.0919   27.6988 S.O2    1  UNL1        0.1025
     29 O           7.0643   -2.2172   26.5137 O.2     1  UNL1       -0.1408
     30 O           6.4978   -3.9666   28.8839 O.2     1  UNL1       -0.1408
     31 C           6.5277   -5.6583   27.3833 C.3     1  UNL1        0.1161
     32 N           6.7101   -4.2893   26.7980 N.3     1  UNL1       -0.1424
     33 C           6.8216   -4.1176   25.3121 C.3     1  UNL1        0.1161
@<TRIPOS>BOND
     1    31    32    1
     2    32    33    1
     3    32    28    1
     4    28    29    2
     5    28    30    2
     6    28    26    1
     7    26    27    1
     8     1    26    1
     9     1     2    1
    10     2     3    1
    11     3     4    1
    12     4     5    1
    13     5     6   ar
    14     6     7   ar
    15     7     8   ar
    16     8    14    1
    17    14    15    2
    18    14    16   am
    19    16    18    1
    20    18    19    1
    21    19    20   ar
    22    20    21   ar
    23    21    22   ar
    24    22    23    1
    25    22    24   ar
    26    24    25   ar
    27     8     9   ar
    28     9    10    1
    29     9    11   ar
    30    11    12    2
    31     6     1    1
    32    25    19   ar
    33    11     5   ar
    34    16    17    1
    35    10    13    1
@<TRIPOS>MOLECULE
*****
 33 35 0 0 0
SMALL
GASTEIGER

@<TRIPOS>ATOM
      1 C           1.2629    1.6917   25.3175 C.3     1  UNL1        0.1371
      2 C          -0.0227    2.3974   25.0027 C.3     1  UNL1        0.0274
      3 C          -1.1294    2.4270   26.0148 C.3     1  UNL1        0.0265
      4 C          -0.9505    1.7508   27.3417 C.3     1  UNL1        0.1104
      5 N           0.3351    1.0451   27.6565 N.ar    1  UNL1       -0.2804
      6 C           1.4418    1.0155   26.6444 C.ar    1  UNL1        0.1391
      7 N           2.7274    0.3097   26.9593 N.ar    1  UNL1       -0.2231
      8 C           2.9063   -0.3664   28.2862 C.ar    1  UNL1        0.1740
      9 C           1.7996   -0.3369   29.2983 C.ar    1  UNL1        0.2130
     10 O           1.9786   -1.0131   30.6253 O.3     1  UNL1       -0.5006
     11 C           0.5141    0.3689   28.9835 C.ar    1  UNL1        0.2973
     12 O          -0.5926    0.3985   29.9956 O.2     1  UNL1       -0.2636
     13 H           2.7817   -1.4539   30.8219 H       1  UNL1        0.2924
     14 C           4.1920   -1.0722   28.6010 C.2     1  UNL1        0.2671
     15 O           4.7212   -1.0762   30.0046 O.2     1  UNL1       -0.2684
     16 N           4.9483   -1.7741   27.5123 N.am    1  UNL1       -0.2956
     17 H           4.6010   -1.7715   26.5911 H       1  UNL1        0.1501
     18 C           6.2339   -2.4799   27.8271 C.3     1  UNL1        0.1166
     19 C           6.5877   -3.7492   27.1104 C.ar    1  UNL1       -0.0024
     20 C           6.5779   -5.0550   27.8484 C.ar    1  UNL1       -0.0003
     21 C           6.9316   -6.3243   27.1317 C.ar    1  UNL1        0.0294
     22 C           7.2952   -6.2878   25.6769 C.ar    1  UNL1        0.1401
     23 F           7.6489   -7.5571   24.9602 F       1  UNL1       -0.2042
     24 C           7.3050   -4.9820   24.9389 C.ar    1  UNL1        0.0294
     25 C           6.9512   -3.7127   25.6556 C.ar    1  UNL1       -0.0003
     26 N           2.3695    1.6621   24.3054 N.3     1  UNL1       -0.1381
     27 C           3.6247    2.4482   24.5433 C.3     1  UNL1        0.1165
     28 S           2.2211    0.8464   23.0554 S.O2    1  UNL1        0.1025
     29 O           1.8391    2.0815   22.2948 O.2     1  UNL1       -0.1408
     30 O           2.6031   -0.3887   23.8160 O.2     1  UNL1       -0.1408
     31 C           0.9359    0.3003   20.8644 C.3     1  UNL1        0.1161
     32 N           2.0726    0.0307   21.8053 N.3     1  UNL1       -0.1424
     33 C           3.0608   -1.0545   21.4961 C.3     1  UNL1        0.1161
@<TRIPOS>BOND
     1    31    32    1
     2    32    33    1
     3    32    28    1
     4    28    29    2
     5    28    30    2
     6    28    26    1
     7    26    27    1
     8     1    26    1
     9     1     2    1
    10     2     3    1
    11     3     4    1
    12     4     5    1
    13     5     6   ar
    14     6     7   ar
    15     7     8   ar
    16     8    14    1
    17    14    15    2
    18    14    16   am
    19    16    18    1
    20    18    19    1
    21    19    20   ar
    22    20    21   ar
    23    21    22   ar
    24    22    23    1
    25    22    24   ar
    26    24    25   ar
    27     8     9   ar
    28     9    10    1
    29     9    11   ar
    30    11    12    2
    31     6     1    1
    32    25    19   ar
    33    11     5   ar
    34    16    17    1
    35    10    13    1
@<TRIPOS>MOLECULE
*****
 33 35 0 0 0
SMALL
GASTEIGER

@<TRIPOS>ATOM
      1 C           3.3843    0.5061   19.3925 C.3     1  UNL1        0.1371
      2 C           3.4515    0.1235   17.9437 C.3     1  UNL1        0.0274
      3 C           3.8496   -1.2690   17.5534 C.3     1  UNL1        0.0265
      4 C           4.1806   -2.2789   18.6119 C.3     1  UNL1        0.1104
      5 N           4.1135   -1.8964   20.0607 N.ar    1  UNL1       -0.2804
      6 C           3.7153   -0.5038   20.4510 C.ar    1  UNL1        0.1391
      7 N           3.6482   -0.1213   21.8999 N.ar    1  UNL1       -0.2231
      8 C           3.9792   -1.1312   22.9584 C.ar    1  UNL1        0.1740
      9 C           4.3773   -2.5238   22.5680 C.ar    1  UNL1        0.2130
     10 O           4.7083   -3.5337   23.6266 O.3     1  UNL1       -0.5006
     11 C           4.4445   -2.9063   21.1192 C.ar    1  UNL1        0.2973
     12 O           4.8426   -4.2989   20.7289 O.2     1  UNL1       -0.2636
     13 H           4.6664   -3.2947   24.5316 H       1  UNL1        0.2924
     14 C           3.9121   -0.7487   24.4072 C.2     1  UNL1        0.2671
     15 O           4.6376   -1.5674   25.4335 O.2     1  UNL1       -0.2684
     16 N           3.1193    0.4526   24.8298 N.am    1  UNL1       -0.2956
     17 H           2.6431    0.9899   24.1562 H       1  UNL1        0.1501
     18 C           3.0521    0.8351   26.2786 C.3     1  UNL1        0.1166
     19 C           1.7567    0.7188   27.0258 C.ar    1  UNL1       -0.0024
     20 C           1.6917   -0.0785   28.2946 C.ar    1  UNL1       -0.0003
     21 C           0.3963   -0.1949   29.0418 C.ar    1  UNL1        0.0294
     22 C          -0.8342    0.4860   28.5202 C.ar    1  UNL1        0.1401
     23 F          -2.1296    0.3696   29.2673 F       1  UNL1       -0.2042
     24 C          -0.7692    1.2833   27.2513 C.ar    1  UNL1        0.0294
     25 C           0.5262    1.3997   26.5041 C.ar    1  UNL1       -0.0003
     26 N           2.9862    1.8986   19.7829 N.3     1  UNL1       -0.1381
     27 C           3.9800    2.8043   20.4478 C.3     1  UNL1        0.1165
     28 S           1.5943    2.3855   19.5082 S.O2    1  UNL1        0.1025
     29 O           2.1193    3.2712   18.4175 O.2     1  UNL1       -0.1408
     30 O           1.0693    1.4998   20.5990 O.2     1  UNL1       -0.1408
     31 C          -0.1978    3.2523   17.8387 C.3     1  UNL1        0.1161
     32 N           0.2023    2.8725   19.2336 N.3     1  UNL1       -0.1424
     33 C          -0.7895    2.9795   20.3537 C.3     1  UNL1        0.1161
@<TRIPOS>BOND
     1    31    32    1
     2    32    33    1
     3    32    28    1
     4    28    29    2
     5    28    30    2
     6    28    26    1
     7    26    27    1
     8     1    26    1
     9     1     2    1
    10     2     3    1
    11     3     4    1
    12     4     5    1
    13     5     6   ar
    14     6     7   ar
    15     7     8   ar
    16     8    14    1
    17    14    15    2
    18    14    16   am
    19    16    18    1
    20    18    19    1
    21    19    20   ar
    22    20    21   ar
    23    21    22   ar
    24    22    23    1
    25    22    24   ar
    26    24    25   ar
    27     8     9   ar
    28     9    10    1
    29     9    11   ar
    30    11    12    2
    31     6     1    1
    32    25    19   ar
    33    11     5   ar
    34    16    17    1
    35    10    13    1
@<TRIPOS>MOLECULE
*****
 33 35 0 0 0
SMALL
GASTEIGER

@<TRIPOS>ATOM
      1 C           2.4979    0.6030   24.3968 C.3     1  UNL1        0.1371
      2 C           3.4642   -0.4264   24.9033 C.3     1  UNL1        0.0274
      3 C           3.9840   -1.4865   23.9782 C.3     1  UNL1        0.0265
      4 C           3.5375   -1.5173   22.5465 C.3     1  UNL1        0.1104
      5 N           2.5712   -0.4879   22.0401 N.ar    1  UNL1       -0.2804
      6 C           2.0514    0.5722   22.9652 C.ar    1  UNL1        0.1391
      7 N           1.0850    1.6016   22.4586 N.ar    1  UNL1       -0.2231
      8 C           0.6385    1.5709   21.0270 C.ar    1  UNL1        0.1740
      9 C           1.1583    0.5107   20.1019 C.ar    1  UNL1        0.2130
     10 O           0.7117    0.4799   18.6702 O.3     1  UNL1       -0.5006
     11 C           2.1246   -0.5187   20.6084 C.ar    1  UNL1        0.2973
     12 O           2.6444   -1.5788   19.6832 O.2     1  UNL1       -0.2636
     13 H           0.1081    1.1230   18.3538 H       1  UNL1        0.2924
     14 C          -0.3279    2.6003   20.5204 C.2     1  UNL1        0.2671
     15 O           0.1767    3.7997   19.7744 O.2     1  UNL1       -0.2684
     16 N          -1.7988    2.4302   20.7600 N.am    1  UNL1       -0.2956
     17 H          -2.1300    1.6429   21.2497 H       1  UNL1        0.1501
     18 C          -2.7652    3.4595   20.2535 C.3     1  UNL1        0.1166
     19 C          -4.0659    3.6822   20.9666 C.ar    1  UNL1       -0.0024
     20 C          -4.1845    3.3633   22.4274 C.ar    1  UNL1       -0.0003
     21 C          -5.4853    3.5859   23.1405 C.ar    1  UNL1        0.0294
     22 C          -6.6674    4.1275   22.3927 C.ar    1  UNL1        0.1401
     23 F          -7.9682    4.3502   23.1058 F       1  UNL1       -0.2042
     24 C          -6.5488    4.4464   20.9318 C.ar    1  UNL1        0.0294
     25 C          -5.2480    4.2237   20.2188 C.ar    1  UNL1       -0.0003
     26 N           1.9781    1.6632   25.3220 N.3     1  UNL1       -0.1381
     27 C           2.2961    3.1060   25.0632 C.3     1  UNL1        0.1165
     28 S           1.1404    1.2805   26.5059 S.O2    1  UNL1        0.1025
     29 O           2.3118    1.5188   27.4119 O.2     1  UNL1       -0.1408
     30 O          -0.0311    1.0421   25.5999 O.2     1  UNL1       -0.1408
     31 C          -1.0852    1.4479   27.8359 C.3     1  UNL1        0.1161
     32 N           0.3026    0.8978   27.6899 N.3     1  UNL1       -0.1424
     33 C           0.8527   -0.0351   28.7278 C.3     1  UNL1        0.1161
@<TRIPOS>BOND
     1    31    32    1
     2    32    33    1
     3    32    28    1
     4    28    29    2
     5    28    30    2
     6    28    26    1
     7    26    27    1
     8     1    26    1
     9     1     2    1
    10     2     3    1
    11     3     4    1
    12     4     5    1
    13     5     6   ar
    14     6     7   ar
    15     7     8   ar
    16     8    14    1
    17    14    15    2
    18    14    16   am
    19    16    18    1
    20    18    19    1
    21    19    20   ar
    22    20    21   ar
    23    21    22   ar
    24    22    23    1
    25    22    24   ar
    26    24    25   ar
    27     8     9   ar
    28     9    10    1
    29     9    11   ar
    30    11    12    2
    31     6     1    1
    32    25    19   ar
    33    11     5   ar
    34    16    17    1
    35    10    13    1
