@<TRIPOS>MOLECULE
*****
 31 33 0 0 0
SMALL
GASTEIGER

@<TRIPOS>ATOM
      1 O          -1.1467    3.6016   19.8158 O.3     1  UNL1       -0.4352
      2 C          -2.2990    3.6823   20.7728 C.ar    1  UNL1        0.1582
      3 C          -3.6547    3.1935   20.3571 C.ar    1  UNL1        0.0400
      4 C          -4.8070    3.2742   21.3142 C.ar    1  UNL1        0.0228
      5 C          -4.6034    3.8437   22.6868 C.ar    1  UNL1        0.0886
      6 N          -5.5433    4.0496   23.8375 N.ar    1  UNL1       -0.2404
      7 C          -4.7683    4.6657   24.9644 C.ar    1  UNL1        0.1123
      8 S          -3.3495    4.8406   24.5101 S.2     1  UNL1       -0.0676
      9 C          -3.2475    4.3325   23.1024 C.ar    1  UNL1        0.0618
     10 C          -2.0953    4.2518   22.1454 C.ar    1  UNL1        0.0996
     11 CL         -0.7395    4.7406   22.5611 Cl      1  UNL1       -0.0785
     12 C          -5.3159    5.0411   26.3094 C.3     1  UNL1        0.1289
     13 C          -6.4369    5.7847   25.6455 C.3     1  UNL1        0.0360
     14 C          -4.1950    4.2976   26.9733 C.3     1  UNL1        0.0360
     15 O          -5.8636    5.4166   27.6545 O.3     1  UNL1       -0.3807
     16 H          -6.6651    5.9508   27.5396 H       1  UNL1        0.2108
     17 C           1.3982   -0.1067   19.6663 C.ar    1  UNL1        0.0191
     18 C           1.3760    0.8352   18.4990 C.ar    1  UNL1        0.0063
     19 C           0.5277    2.0713   18.5489 C.ar    1  UNL1        0.0581
     20 C          -0.2984    2.3656   19.7659 C.ar    1  UNL1        0.2297
     21 N          -0.2761    1.4236   20.9331 N.ar    1  UNL1       -0.2098
     22 C           0.5722    0.1875   20.8832 C.ar    1  UNL1        0.1020
     23 C           3.7414   -1.2288   19.6631 C.2     1  UNL1       -0.0069
     24 C           2.2465   -1.3428   19.6164 C.2     1  UNL1       -0.0014
     25 C           4.5897   -2.4649   19.6133 C.3     1  UNL1        0.0939
     26 C           3.9681   -3.7879   19.2764 C.3     1  UNL1        0.0262
     27 C           8.5116   -2.2259   19.0556 C.3     1  UNL1        0.0946
     28 C           7.0419   -2.3128   18.7686 C.2     1  UNL1        0.2232
     29 O           6.5547   -2.3345   17.3501 O.2     1  UNL1       -0.2751
     30 N           6.0594   -2.3780   19.9003 N.am    1  UNL1       -0.3022
     31 H           6.3792   -2.3638   20.8313 H       1  UNL1        0.1497
@<TRIPOS>BOND
     1    27    28    1
     2    28    29    2
     3    28    30   am
     4    30    25    1
     5    25    26    1
     6    25    23    1
     7    23    24    2
     8    24    17    1
     9    17    18   ar
    10    18    19   ar
    11    19    20   ar
    12    20     1    1
    13     1     2    1
    14     2     3   ar
    15     3     4   ar
    16     4     5   ar
    17     5     6   ar
    18     6     7   ar
    19     7    12    1
    20    12    13    1
    21    12    14    1
    22    12    15    1
    23     7     8   ar
    24     8     9   ar
    25     9    10   ar
    26    10    11    1
    27    20    21   ar
    28    21    22   ar
    29    22    17   ar
    30    10     2   ar
    31     9     5   ar
    32    30    31    1
    33    15    16    1
@<TRIPOS>MOLECULE
*****
 31 33 0 0 0
SMALL
GASTEIGER

@<TRIPOS>ATOM
      1 O           6.5351   -3.8960   31.5121 O.3     1  UNL1       -0.4352
      2 C           6.5194   -3.6119   30.0392 C.ar    1  UNL1        0.1582
      3 C           6.0980   -2.2617   29.5403 C.ar    1  UNL1        0.0400
      4 C           6.0823   -1.9776   28.0674 C.ar    1  UNL1        0.0228
      5 C           6.4881   -3.0439   27.0937 C.ar    1  UNL1        0.0886
      6 N           6.5720   -3.0562   25.5961 N.ar    1  UNL1       -0.2404
      7 C           7.0454   -4.4141   25.1695 C.ar    1  UNL1        0.1123
      8 S           7.2540   -5.2411   26.4035 S.2     1  UNL1       -0.0676
      9 C           6.9095   -4.3943   27.5927 C.ar    1  UNL1        0.0618
     10 C           6.9252   -4.6783   29.0655 C.ar    1  UNL1        0.0996
     11 CL          7.3467   -6.0286   29.5645 Cl      1  UNL1       -0.0785
     12 C           7.2706   -4.8658   23.7570 C.3     1  UNL1        0.1289
     13 C           7.9733   -6.0915   24.2610 C.3     1  UNL1        0.0360
     14 C           6.5680   -3.6401   23.2530 C.3     1  UNL1        0.0360
     15 O           7.4959   -5.3175   22.3445 O.3     1  UNL1       -0.3807
     16 H           7.9728   -6.1622   22.3473 H       1  UNL1        0.2108
     17 C           5.2656   -0.7146   34.4306 C.ar    1  UNL1        0.0191
     18 C           6.6618   -0.7152   33.8821 C.ar    1  UNL1        0.0063
     19 C           7.0849   -1.7757   32.9093 C.ar    1  UNL1        0.0581
     20 C           6.1120   -2.8355   32.4849 C.ar    1  UNL1        0.2297
     21 N           4.7159   -2.8349   33.0333 N.ar    1  UNL1       -0.2098
     22 C           4.2927   -1.7744   34.0062 C.ar    1  UNL1        0.1020
     23 C           4.8544    0.0605   36.8759 C.2     1  UNL1       -0.0069
     24 C           4.8425    0.3458   35.4034 C.2     1  UNL1       -0.0014
     25 C           4.4313    1.1210   37.8488 C.3     1  UNL1        0.0939
     26 C           5.0968    2.4651   37.8293 C.3     1  UNL1        0.0262
     27 C           0.8887    1.1435   39.6376 C.3     1  UNL1        0.0946
     28 C           1.9774    1.4272   38.6454 C.2     1  UNL1        0.2232
     29 O           1.7008    2.3008   37.4578 O.2     1  UNL1       -0.2751
     30 N           3.3426    0.8373   38.8409 N.am    1  UNL1       -0.3022
     31 H           3.5242    0.2639   39.6204 H       1  UNL1        0.1497
@<TRIPOS>BOND
     1    27    28    1
     2    28    29    2
     3    28    30   am
     4    30    25    1
     5    25    26    1
     6    25    23    1
     7    23    24    2
     8    24    17    1
     9    17    18   ar
    10    18    19   ar
    11    19    20   ar
    12    20     1    1
    13     1     2    1
    14     2     3   ar
    15     3     4   ar
    16     4     5   ar
    17     5     6   ar
    18     6     7   ar
    19     7    12    1
    20    12    13    1
    21    12    14    1
    22    12    15    1
    23     7     8   ar
    24     8     9   ar
    25     9    10   ar
    26    10    11    1
    27    20    21   ar
    28    21    22   ar
    29    22    17   ar
    30    10     2   ar
    31     9     5   ar
    32    30    31    1
    33    15    16    1
@<TRIPOS>MOLECULE
*****
 31 33 0 0 0
SMALL
GASTEIGER

@<TRIPOS>ATOM
      1 O           0.3450    4.2335   18.2802 O.3     1  UNL1       -0.4352
      2 C          -1.0799    4.1299   18.7374 C.ar    1  UNL1        0.1582
      3 C          -2.1841    4.0092   17.7295 C.ar    1  UNL1        0.0400
      4 C          -3.6091    3.9056   18.1868 C.ar    1  UNL1        0.0228
      5 C          -3.9296    3.9227   19.6520 C.ar    1  UNL1        0.0886
      6 N          -5.2292    3.8378   20.3961 N.ar    1  UNL1       -0.2404
      7 C          -4.9282    3.9061   21.8640 C.ar    1  UNL1        0.1123
      8 S          -3.4425    4.0331   22.0271 S.2     1  UNL1       -0.0676
      9 C          -2.8253    4.0433   20.6600 C.ar    1  UNL1        0.0618
     10 C          -1.4005    4.1470   20.2027 C.ar    1  UNL1        0.0996
     11 CL         -0.2962    4.2676   21.2106 Cl      1  UNL1       -0.0785
     12 C          -5.9359    3.8562   22.9740 C.3     1  UNL1        0.1289
     13 C          -6.9059    4.6265   22.1280 C.3     1  UNL1        0.0360
     14 C          -4.9658    3.0858   23.8199 C.3     1  UNL1        0.0360
     15 O          -6.9436    3.8062   24.0840 O.3     1  UNL1       -0.3807
     16 H          -7.7522    4.2651   23.8074 H       1  UNL1        0.2108
     17 C           2.9974    0.5988   18.3419 C.ar    1  UNL1        0.0191
     18 C           3.6040    1.9705   18.3686 C.ar    1  UNL1        0.0063
     19 C           2.7199    3.1820   18.3480 C.ar    1  UNL1        0.0581
     20 C           1.2291    3.0220   18.3008 C.ar    1  UNL1        0.2297
     21 N           0.6226    1.6503   18.2741 N.ar    1  UNL1       -0.2098
     22 C           1.5068    0.4387   18.2946 C.ar    1  UNL1        0.1020
     23 C           3.6662   -1.6810   19.3931 C.2     1  UNL1       -0.0069
     24 C           3.8816   -0.6127   18.3624 C.2     1  UNL1       -0.0014
     25 C           4.5503   -2.8925   19.4137 C.3     1  UNL1        0.0939
     26 C           3.9979   -4.2308   19.0213 C.3     1  UNL1        0.0262
     27 C           8.4783   -2.3646   19.2091 C.3     1  UNL1        0.0946
     28 C           7.0419   -2.4914   18.7962 C.2     1  UNL1        0.2232
     29 O           6.6605   -2.3437   17.3530 O.2     1  UNL1       -0.2751
     30 N           5.9868   -2.7658   19.8266 N.am    1  UNL1       -0.3022
     31 H           6.2371   -2.8627   20.7738 H       1  UNL1        0.1497
@<TRIPOS>BOND
     1    27    28    1
     2    28    29    2
     3    28    30   am
     4    30    25    1
     5    25    26    1
     6    25    23    1
     7    23    24    2
     8    24    17    1
     9    17    18   ar
    10    18    19   ar
    11    19    20   ar
    12    20     1    1
    13     1     2    1
    14     2     3   ar
    15     3     4   ar
    16     4     5   ar
    17     5     6   ar
    18     6     7   ar
    19     7    12    1
    20    12    13    1
    21    12    14    1
    22    12    15    1
    23     7     8   ar
    24     8     9   ar
    25     9    10   ar
    26    10    11    1
    27    20    21   ar
    28    21    22   ar
    29    22    17   ar
    30    10     2   ar
    31     9     5   ar
    32    30    31    1
    33    15    16    1
@<TRIPOS>MOLECULE
*****
 31 33 0 0 0
SMALL
GASTEIGER

@<TRIPOS>ATOM
      1 O          -0.7561    2.6758   19.8943 O.3     1  UNL1       -0.4352
      2 C          -1.4250    3.0757   21.1760 C.ar    1  UNL1        0.1582
      3 C          -0.6596    3.0365   22.4654 C.ar    1  UNL1        0.0400
      4 C          -1.3284    3.4364   23.7471 C.ar    1  UNL1        0.0228
      5 C          -2.7627    3.8755   23.7394 C.ar    1  UNL1        0.0886
      6 N          -3.6809    4.3241   24.8374 N.ar    1  UNL1       -0.2404
      7 C          -5.0138    4.6406   24.2265 C.ar    1  UNL1        0.1123
      8 S          -4.9194    4.3876   22.7510 S.2     1  UNL1       -0.0676
      9 C          -3.5281    3.9147   22.4499 C.ar    1  UNL1        0.0618
     10 C          -2.8592    3.5148   21.1682 C.ar    1  UNL1        0.0996
     11 CL         -3.6246    3.5541   19.8788 Cl      1  UNL1       -0.0785
     12 C          -6.2281    5.1250   24.9620 C.3     1  UNL1        0.1289
     13 C          -5.4160    5.2560   26.2163 C.3     1  UNL1        0.0360
     14 C          -7.0401    4.9940   23.7076 C.3     1  UNL1        0.0360
     15 O          -7.4423    5.6094   25.6975 O.3     1  UNL1       -0.3807
     16 H          -7.2090    5.7937   26.6208 H       1  UNL1        0.2108
     17 C           2.6383   -0.2779   19.9541 C.ar    1  UNL1        0.0191
     18 C           2.8826    1.1366   19.5185 C.ar    1  UNL1        0.0063
     19 C           1.7511    2.1211   19.4986 C.ar    1  UNL1        0.0581
     20 C           0.3754    1.6913   19.9142 C.ar    1  UNL1        0.2297
     21 N           0.1312    0.2769   20.3498 N.ar    1  UNL1       -0.2098
     22 C           1.2627   -0.7077   20.3698 C.ar    1  UNL1        0.1020
     23 C           3.6483   -2.5598   19.2311 C.2     1  UNL1       -0.0069
     24 C           3.7698   -1.2624   19.9741 C.2     1  UNL1       -0.0014
     25 C           4.7798   -3.5443   19.2511 C.3     1  UNL1        0.0939
     26 C           4.5481   -4.9620   18.8189 C.3     1  UNL1        0.0262
     27 C           8.4424   -2.0174   19.1874 C.3     1  UNL1        0.0946
     28 C           7.0792   -2.4505   18.7353 C.2     1  UNL1        0.2232
     29 O           6.6525   -2.2228   17.3154 O.2     1  UNL1       -0.2751
     30 N           6.1429   -3.1112   19.7032 N.am    1  UNL1       -0.3022
     31 H           6.4230   -3.2607   20.6351 H       1  UNL1        0.1497
@<TRIPOS>BOND
     1    27    28    1
     2    28    29    2
     3    28    30   am
     4    30    25    1
     5    25    26    1
     6    25    23    1
     7    23    24    2
     8    24    17    1
     9    17    18   ar
    10    18    19   ar
    11    19    20   ar
    12    20     1    1
    13     1     2    1
    14     2     3   ar
    15     3     4   ar
    16     4     5   ar
    17     5     6   ar
    18     6     7   ar
    19     7    12    1
    20    12    13    1
    21    12    14    1
    22    12    15    1
    23     7     8   ar
    24     8     9   ar
    25     9    10   ar
    26    10    11    1
    27    20    21   ar
    28    21    22   ar
    29    22    17   ar
    30    10     2   ar
    31     9     5   ar
    32    30    31    1
    33    15    16    1
@<TRIPOS>MOLECULE
*****
 31 33 0 0 0
SMALL
GASTEIGER

@<TRIPOS>ATOM
      1 O           0.2373    3.1901   19.9480 O.3     1  UNL1       -0.4352
      2 C          -0.9952    3.3542   20.7871 C.ar    1  UNL1        0.1582
      3 C          -2.3516    3.2653   20.1529 C.ar    1  UNL1        0.0400
      4 C          -3.5841    3.4294   20.9920 C.ar    1  UNL1        0.0228
      5 C          -3.4601    3.6823   22.4653 C.ar    1  UNL1        0.0886
      6 N          -4.4880    3.8839   23.5390 N.ar    1  UNL1       -0.2404
      7 C          -3.7668    4.0972   24.8368 C.ar    1  UNL1        0.1123
      8 S          -2.2932    4.0276   24.5652 S.2     1  UNL1       -0.0676
      9 C          -2.1037    3.7712   23.0995 C.ar    1  UNL1        0.0618
     10 C          -0.8712    3.6071   22.2604 C.ar    1  UNL1        0.0996
     11 CL          0.4852    3.6959   22.8946 Cl      1  UNL1       -0.0785
     12 C          -4.4068    4.3380   26.1719 C.3     1  UNL1        0.1289
     13 C          -3.1957    3.7741   26.8541 C.3     1  UNL1        0.0360
     14 C          -5.6178    4.9018   25.4897 C.3     1  UNL1        0.0360
     15 O          -5.0467    4.5787   27.5070 O.3     1  UNL1       -0.3807
     16 H          -4.4463    4.2869   28.2107 H       1  UNL1        0.2108
     17 C           2.4289   -0.7401   19.9136 C.ar    1  UNL1        0.0191
     18 C           0.9801   -0.6926   20.2994 C.ar    1  UNL1        0.0063
     19 C           0.2496    0.6174   20.3108 C.ar    1  UNL1        0.0581
     20 C           0.9678    1.8800   19.9365 C.ar    1  UNL1        0.2297
     21 N           2.4166    1.8325   19.5508 N.ar    1  UNL1       -0.2098
     22 C           3.1471    0.5224   19.5393 C.ar    1  UNL1        0.1020
     23 C           4.5204   -2.1445   19.2786 C.2     1  UNL1       -0.0069
     24 C           3.1594   -2.0501   19.9022 C.2     1  UNL1       -0.0014
     25 C           5.2509   -3.4545   19.2672 C.3     1  UNL1        0.0939
     26 C           4.5636   -4.6921   18.7709 C.3     1  UNL1        0.0262
     27 C           8.3766   -4.0346   21.6427 C.3     1  UNL1        0.0946
     28 C           6.9589   -3.9621   21.1579 C.2     1  UNL1        0.2232
     29 O           5.8318   -4.3246   22.0789 O.2     1  UNL1       -0.2751
     30 N           6.6685   -3.5270   19.7520 N.am    1  UNL1       -0.3022
     31 H           7.4083   -3.2891   19.1475 H       1  UNL1        0.1497
@<TRIPOS>BOND
     1    27    28    1
     2    28    29    2
     3    28    30   am
     4    30    25    1
     5    25    26    1
     6    25    23    1
     7    23    24    2
     8    24    17    1
     9    17    18   ar
    10    18    19   ar
    11    19    20   ar
    12    20     1    1
    13     1     2    1
    14     2     3   ar
    15     3     4   ar
    16     4     5   ar
    17     5     6   ar
    18     6     7   ar
    19     7    12    1
    20    12    13    1
    21    12    14    1
    22    12    15    1
    23     7     8   ar
    24     8     9   ar
    25     9    10   ar
    26    10    11    1
    27    20    21   ar
    28    21    22   ar
    29    22    17   ar
    30    10     2   ar
    31     9     5   ar
    32    30    31    1
    33    15    16    1
@<TRIPOS>MOLECULE
*****
 31 33 0 0 0
SMALL
GASTEIGER

@<TRIPOS>ATOM
      1 O           0.7704    2.7438   24.7104 O.3     1  UNL1       -0.4352
      2 C           0.6675    2.1609   26.0887 C.ar    1  UNL1        0.1582
      3 C          -0.5814    1.4442   26.5086 C.ar    1  UNL1        0.0400
      4 C          -0.6843    0.8613   27.8870 C.ar    1  UNL1        0.0228
      5 C           0.4618    0.9952   28.8453 C.ar    1  UNL1        0.0886
      6 N           0.6487    0.5271   30.2581 N.ar    1  UNL1       -0.2404
      7 C           2.0133    0.9546   30.7112 C.ar    1  UNL1        0.1123
      8 S           2.6697    1.6868   29.5785 S.2     1  UNL1       -0.0676
      9 C           1.7108    1.7119   28.4253 C.ar    1  UNL1        0.0618
     10 C           1.8136    2.2948   27.0470 C.ar    1  UNL1        0.0996
     11 CL          3.0626    3.0115   26.6270 Cl      1  UNL1       -0.0785
     12 C           2.6156    0.6954   32.0603 C.3     1  UNL1        0.1289
     13 C           1.8910    1.8868   32.6128 C.3     1  UNL1        0.0360
     14 C           3.3403   -0.4961   31.5078 C.3     1  UNL1        0.0360
     15 O           3.2180    0.4361   33.4093 O.3     1  UNL1       -0.3807
     16 H           2.9061    1.1067   34.0370 H       1  UNL1        0.2108
     17 C           1.8268    0.1024   21.2236 C.ar    1  UNL1        0.0191
     18 C           2.6950    0.1127   22.4468 C.ar    1  UNL1        0.0063
     19 C           2.3428    0.9931   23.6091 C.ar    1  UNL1        0.0581
     20 C           1.1225    1.8634   23.5481 C.ar    1  UNL1        0.2297
     21 N           0.2544    1.8531   22.3249 N.ar    1  UNL1       -0.2098
     22 C           0.6066    0.9726   21.1626 C.ar    1  UNL1        0.1020
     23 C           3.3923   -0.4765   19.2327 C.2     1  UNL1       -0.0069
     24 C           2.1789   -0.7780   20.0614 C.2     1  UNL1       -0.0014
     25 C           3.7445   -1.3570   18.0705 C.3     1  UNL1        0.0939
     26 C           4.1763   -0.7458   16.7704 C.3     1  UNL1        0.0262
     27 C           4.7605   -5.1082   18.8744 C.3     1  UNL1        0.0946
     28 C           4.8401   -3.6166   18.7366 C.2     1  UNL1        0.2232
     29 O           6.0948   -2.8932   19.1270 O.2     1  UNL1       -0.2751
     30 N           3.6649   -2.8485   18.2083 N.am    1  UNL1       -0.3022
     31 H           2.8414   -3.3233   17.9521 H       1  UNL1        0.1497
@<TRIPOS>BOND
     1    27    28    1
     2    28    29    2
     3    28    30   am
     4    30    25    1
     5    25    26    1
     6    25    23    1
     7    23    24    2
     8    24    17    1
     9    17    18   ar
    10    18    19   ar
    11    19    20   ar
    12    20     1    1
    13     1     2    1
    14     2     3   ar
    15     3     4   ar
    16     4     5   ar
    17     5     6   ar
    18     6     7   ar
    19     7    12    1
    20    12    13    1
    21    12    14    1
    22    12    15    1
    23     7     8   ar
    24     8     9   ar
    25     9    10   ar
    26    10    11    1
    27    20    21   ar
    28    21    22   ar
    29    22    17   ar
    30    10     2   ar
    31     9     5   ar
    32    30    31    1
    33    15    16    1
@<TRIPOS>MOLECULE
*****
 31 33 0 0 0
SMALL
GASTEIGER

@<TRIPOS>ATOM
      1 O           8.2550   -3.1703   26.9466 O.3     1  UNL1       -0.4352
      2 C           7.7039   -3.2780   28.3376 C.ar    1  UNL1        0.1582
      3 C           7.4186   -4.6265   28.9289 C.ar    1  UNL1        0.0400
      4 C           6.8675   -4.7342   30.3200 C.ar    1  UNL1        0.0228
      5 C           6.6019   -3.4932   31.1195 C.ar    1  UNL1        0.0886
      6 N           6.0653   -3.2877   32.5051 N.ar    1  UNL1       -0.2404
      7 C           6.0191   -1.8120   32.7700 C.ar    1  UNL1        0.1123
      8 S           6.5271   -1.1055   31.5482 S.2     1  UNL1       -0.0676
      9 C           6.8873   -2.1446   30.5281 C.ar    1  UNL1        0.0618
     10 C           7.4383   -2.0370   29.1371 C.ar    1  UNL1        0.0996
     11 CL          7.7237   -0.6883   28.5457 Cl      1  UNL1       -0.0785
     12 C           5.5476   -1.1576   34.0347 C.3     1  UNL1        0.1289
     13 C           6.8436   -0.4085   34.1303 C.3     1  UNL1        0.0360
     14 C           4.2515   -1.9067   33.9391 C.3     1  UNL1        0.0360
     15 O           5.0761   -0.5032   35.2994 O.3     1  UNL1       -0.3807
     16 H           5.7646    0.0946   35.6303 H       1  UNL1        0.2108
     17 C           5.4869   -3.4003   23.4061 C.ar    1  UNL1        0.0191
     18 C           6.6684   -4.3203   23.4954 C.ar    1  UNL1        0.0063
     19 C           7.5910   -4.2436   24.6755 C.ar    1  UNL1        0.0581
     20 C           7.3323   -3.2470   25.7664 C.ar    1  UNL1        0.2297
     21 N           6.1509   -2.3271   25.6771 N.ar    1  UNL1       -0.2098
     22 C           5.2281   -2.4038   24.4969 C.ar    1  UNL1        0.1020
     23 C           5.1255   -3.6379   20.8443 C.2     1  UNL1       -0.0069
     24 C           4.5642   -3.4770   22.2260 C.2     1  UNL1       -0.0014
     25 C           4.2029   -3.7146   19.6641 C.3     1  UNL1        0.0939
     26 C           3.8620   -5.0464   19.0640 C.3     1  UNL1        0.0262
     27 C           3.7480   -0.4953   17.3883 C.3     1  UNL1        0.0946
     28 C           4.3298   -1.7504   17.9684 C.2     1  UNL1        0.2232
     29 O           5.6202   -2.2962   17.4326 O.2     1  UNL1       -0.2751
     30 N           3.6211   -2.4595   19.0841 N.am    1  UNL1       -0.3022
     31 H           2.7742   -2.1013   19.4357 H       1  UNL1        0.1497
@<TRIPOS>BOND
     1    27    28    1
     2    28    29    2
     3    28    30   am
     4    30    25    1
     5    25    26    1
     6    25    23    1
     7    23    24    2
     8    24    17    1
     9    17    18   ar
    10    18    19   ar
    11    19    20   ar
    12    20     1    1
    13     1     2    1
    14     2     3   ar
    15     3     4   ar
    16     4     5   ar
    17     5     6   ar
    18     6     7   ar
    19     7    12    1
    20    12    13    1
    21    12    14    1
    22    12    15    1
    23     7     8   ar
    24     8     9   ar
    25     9    10   ar
    26    10    11    1
    27    20    21   ar
    28    21    22   ar
    29    22    17   ar
    30    10     2   ar
    31     9     5   ar
    32    30    31    1
    33    15    16    1
@<TRIPOS>MOLECULE
*****
 31 33 0 0 0
SMALL
GASTEIGER

@<TRIPOS>ATOM
      1 O           7.5742   -3.7644   20.5629 O.3     1  UNL1       -0.4352
      2 C           6.1841   -3.2887   20.2603 C.ar    1  UNL1        0.1582
      3 C           5.1549   -4.2543   19.7525 C.ar    1  UNL1        0.0400
      4 C           3.7648   -3.7786   19.4498 C.ar    1  UNL1        0.0228
      5 C           3.4042   -2.3372   19.6551 C.ar    1  UNL1        0.0886
      6 N           2.1248   -1.5829   19.4446 N.ar    1  UNL1       -0.2404
      7 C           2.3635   -0.1510   19.8225 C.ar    1  UNL1        0.1123
      8 S           3.7903   -0.0204   20.2664 S.2     1  UNL1       -0.0676
      9 C           4.4335   -1.3715   20.1629 C.ar    1  UNL1        0.0618
     10 C           5.8235   -1.8472   20.4655 C.ar    1  UNL1        0.0996
     11 CL          6.8528   -0.8815   20.9734 Cl      1  UNL1       -0.0785
     12 C           1.3527    0.9559   19.7662 C.3     1  UNL1        0.1289
     13 C           2.2748    1.7535   18.8924 C.3     1  UNL1        0.0360
     14 C           0.4306    0.1583   20.6401 C.3     1  UNL1        0.0360
     15 O           0.3420    2.0628   19.7100 O.3     1  UNL1       -0.3807
     16 H           0.6863    2.7877   19.1651 H       1  UNL1        0.2108
     17 C           8.2947   -6.5546   24.0192 C.ar    1  UNL1        0.0191
     18 C           7.5452   -5.2730   24.2336 C.ar    1  UNL1        0.0063
     19 C           7.3051   -4.3430   23.0815 C.ar    1  UNL1        0.0581
     20 C           7.8143   -4.6944   21.7150 C.ar    1  UNL1        0.2297
     21 N           8.5638   -5.9760   21.5007 N.ar    1  UNL1       -0.2098
     22 C           8.8039   -6.9061   22.6529 C.ar    1  UNL1        0.1020
     23 C           8.6012   -6.9452   26.5694 C.2     1  UNL1       -0.0069
     24 C           8.5348   -7.4846   25.1713 C.2     1  UNL1       -0.0014
     25 C           8.8413   -7.8753   27.7215 C.3     1  UNL1        0.0939
     26 C           8.3869   -9.3025   27.6404 C.3     1  UNL1        0.0262
     27 C           9.4820   -6.0468   31.1850 C.3     1  UNL1        0.0946
     28 C           8.7876   -6.5440   29.9519 C.2     1  UNL1        0.2232
     29 O           7.3450   -6.2073   29.7162 O.2     1  UNL1       -0.2751
     30 N           9.5358   -7.3781   28.9546 N.am    1  UNL1       -0.3022
     31 H          10.4826   -7.5991   29.1093 H       1  UNL1        0.1497
@<TRIPOS>BOND
     1    27    28    1
     2    28    29    2
     3    28    30   am
     4    30    25    1
     5    25    26    1
     6    25    23    1
     7    23    24    2
     8    24    17    1
     9    17    18   ar
    10    18    19   ar
    11    19    20   ar
    12    20     1    1
    13     1     2    1
    14     2     3   ar
    15     3     4   ar
    16     4     5   ar
    17     5     6   ar
    18     6     7   ar
    19     7    12    1
    20    12    13    1
    21    12    14    1
    22    12    15    1
    23     7     8   ar
    24     8     9   ar
    25     9    10   ar
    26    10    11    1
    27    20    21   ar
    28    21    22   ar
    29    22    17   ar
    30    10     2   ar
    31     9     5   ar
    32    30    31    1
    33    15    16    1
@<TRIPOS>MOLECULE
*****
 31 33 0 0 0
SMALL
GASTEIGER

@<TRIPOS>ATOM
      1 O           7.2225   -4.6038   21.6502 O.3     1  UNL1       -0.4352
      2 C           6.5345   -3.3296   21.2588 C.ar    1  UNL1        0.1582
      3 C           7.2810   -2.0294   21.3050 C.ar    1  UNL1        0.0400
      4 C           6.5930   -0.7552   20.9136 C.ar    1  UNL1        0.0228
      5 C           5.1585   -0.7813   20.4760 C.ar    1  UNL1        0.0886
      6 N           4.2237    0.3058   20.0350 N.ar    1  UNL1       -0.2404
      7 C           2.8996   -0.3226   19.7163 C.ar    1  UNL1        0.1123
      8 S           3.0159   -1.7981   19.9602 S.2     1  UNL1       -0.0676
      9 C           4.4120   -2.0816   20.4297 C.ar    1  UNL1        0.0618
     10 C           5.1000   -3.3557   20.8211 C.ar    1  UNL1        0.0996
     11 CL          4.3536   -4.6559   20.7749 Cl      1  UNL1       -0.0785
     12 C           1.6741    0.3980   19.2376 C.3     1  UNL1        0.1289
     13 C           0.8373   -0.3790   20.2103 C.3     1  UNL1        0.0360
     14 C           2.5109    1.1749   18.2649 C.3     1  UNL1        0.0360
     15 O           0.4487    1.1185   18.7590 O.3     1  UNL1       -0.3807
     16 H          -0.3257    0.8001   19.2488 H       1  UNL1        0.2108
     17 C           7.4248   -5.8133   25.9799 C.ar    1  UNL1        0.0191
     18 C           6.7884   -4.5108   25.5940 C.ar    1  UNL1        0.0063
     19 C           6.7210   -4.1077   24.1507 C.ar    1  UNL1        0.0581
     20 C           7.2899   -5.0069   23.0934 C.ar    1  UNL1        0.2297
     21 N           7.9262   -6.3092   23.4794 N.ar    1  UNL1       -0.2098
     22 C           7.9936   -6.7124   24.9227 C.ar    1  UNL1        0.1020
     23 C           7.4698   -5.1686   28.4963 C.2     1  UNL1       -0.0069
     24 C           7.4921   -6.2164   27.4231 C.2     1  UNL1       -0.0014
     25 C           7.5372   -5.5718   29.9395 C.3     1  UNL1        0.0939
     26 C           8.5863   -6.5402   30.3995 C.3     1  UNL1        0.0262
     27 C           5.8279   -3.1031   32.5346 C.3     1  UNL1        0.0946
     28 C           6.8096   -3.6684   31.5513 C.2     1  UNL1        0.2232
     29 O           8.0454   -2.8957   31.1967 O.2     1  UNL1       -0.2751
     30 N           6.5555   -5.0065   30.9228 N.am    1  UNL1       -0.3022
     31 H           5.7444   -5.5136   31.1555 H       1  UNL1        0.1497
@<TRIPOS>BOND
     1    27    28    1
     2    28    29    2
     3    28    30   am
     4    30    25    1
     5    25    26    1
     6    25    23    1
     7    23    24    2
     8    24    17    1
     9    17    18   ar
    10    18    19   ar
    11    19    20   ar
    12    20     1    1
    13     1     2    1
    14     2     3   ar
    15     3     4   ar
    16     4     5   ar
    17     5     6   ar
    18     6     7   ar
    19     7    12    1
    20    12    13    1
    21    12    14    1
    22    12    15    1
    23     7     8   ar
    24     8     9   ar
    25     9    10   ar
    26    10    11    1
    27    20    21   ar
    28    21    22   ar
    29    22    17   ar
    30    10     2   ar
    31     9     5   ar
    32    30    31    1
    33    15    16    1
