@<TRIPOS>MOLECULE
*****
 16 17 0 0 0
SMALL
GASTEIGER

@<TRIPOS>ATOM
      1 C          -2.5673  -18.9412   20.1864 C.2     1  UNL1        0.1223
      2 C          -2.4942  -19.2664   21.6489 C.2     1  UNL1        0.0343
      3 C          -3.7549  -19.4225   22.4465 C.2     1  UNL1        0.0232
      4 C          -5.0888  -19.2534   21.7817 C.2     1  UNL1        0.0975
      5 N          -6.4909  -19.3467   22.3064 N.2     1  UNL1       -0.2200
      6 C          -7.4306  -19.0791   21.1683 C.2     1  UNL1        0.1898
      7 N          -6.6093  -18.8205   19.9401 N.2     1  UNL1       -0.2236
      8 C          -5.1620  -18.9282   20.3192 C.2     1  UNL1        0.0863
      9 C          -3.9012  -18.7721   19.5216 C.3     1  UNL1        0.1112
     10 C          -0.2315  -17.8515   19.8604 C.3     1  UNL1        0.2520
     11 O          -1.3066  -18.7852   19.3888 O.2     1  UNL1       -0.4753
     12 S          -8.9287  -19.0716   21.2450 S.3     1  UNL1       -0.0757
     13 C          -9.6177  -18.3869   22.3879 C.3     1  UNL1        0.0651
     14 C         -10.1806  -19.1968   23.5181 C.3     1  UNL1        0.0112
     15 C          -9.4781  -20.4424   23.9707 C.3     1  UNL1        0.0009
     16 C         -11.4459  -18.7610   24.1955 C.3     1  UNL1        0.0009
@<TRIPOS>BOND
     1    10    11    1
     2    11     1    1
     3     1     2    2
     4     2     3    1
     5     3     4    2
     6     4     5    1
     7     5     6    2
     8     6    12    1
     9    12    13    1
    10    13    14    1
    11    14    15    1
    12    14    16    1
    13     6     7    1
    14     7     8    2
    15     8     9    1
    16     9     1    1
    17     8     4    1
@<TRIPOS>MOLECULE
*****
 16 17 0 0 0
SMALL
GASTEIGER

@<TRIPOS>ATOM
      1 C          -3.2902  -19.0391   20.2986 C.2     1  UNL1        0.1223
      2 C          -3.2909  -19.2744   21.7800 C.2     1  UNL1        0.0343
      3 C          -4.5902  -19.4019   22.5185 C.2     1  UNL1        0.0232
      4 C          -5.8889  -19.2942   21.7756 C.2     1  UNL1        0.0975
      5 N          -7.3156  -19.3778   22.2309 N.2     1  UNL1       -0.2200
      6 C          -8.1967  -19.1942   21.0309 C.2     1  UNL1        0.1898
      7 N          -7.3145  -18.9971   19.8339 N.2     1  UNL1       -0.2236
      8 C          -5.8881  -19.0589   20.2942 C.2     1  UNL1        0.0863
      9 C          -4.5888  -18.9314   19.5557 C.3     1  UNL1        0.1112
     10 C          -1.7565  -17.7416   18.6511 C.3     1  UNL1        0.2520
     11 O          -1.9908  -18.9115   19.5600 O.2     1  UNL1       -0.4753
     12 S          -9.6967  -19.2056   21.0284 S.3     1  UNL1       -0.0757
     13 C         -10.4505  -18.4719   19.9591 C.3     1  UNL1        0.0651
     14 C         -11.4946  -17.4628   20.3354 C.3     1  UNL1        0.0112
     15 C         -12.5296  -17.8032   21.3663 C.3     1  UNL1        0.0009
     16 C         -11.5035  -16.1132   19.6808 C.3     1  UNL1        0.0009
@<TRIPOS>BOND
     1    10    11    1
     2    11     1    1
     3     1     2    2
     4     2     3    1
     5     3     4    2
     6     4     5    1
     7     5     6    2
     8     6    12    1
     9    12    13    1
    10    13    14    1
    11    14    15    1
    12    14    16    1
    13     6     7    1
    14     7     8    2
    15     8     9    1
    16     9     1    1
    17     8     4    1
@<TRIPOS>MOLECULE
*****
 16 17 0 0 0
SMALL
GASTEIGER

@<TRIPOS>ATOM
      1 C          -3.0794  -19.5752   20.9258 C.2     1  UNL1        0.1223
      2 C          -3.8934  -20.5990   20.1915 C.2     1  UNL1        0.0343
      3 C          -5.3872  -20.6074   20.3271 C.2     1  UNL1        0.0232
      4 C          -6.0671  -19.5921   21.1971 C.2     1  UNL1        0.0975
      5 N          -7.5121  -19.3555   21.5224 N.2     1  UNL1       -0.2200
      6 C          -7.5912  -18.1856   22.4578 C.2     1  UNL1        0.1898
      7 N          -6.1951  -17.6990   22.7106 N.2     1  UNL1       -0.2236
      8 C          -5.2531  -18.5683   21.9315 C.2     1  UNL1        0.0863
      9 C          -3.7592  -18.5599   21.7958 C.3     1  UNL1        0.1112
     10 C          -0.9074  -18.4629   20.0342 C.3     1  UNL1        0.2520
     11 O          -1.5856  -19.5668   20.7901 O.2     1  UNL1       -0.4753
     12 S          -8.8462  -17.6042   23.0385 S.3     1  UNL1       -0.0757
     13 C          -9.8077  -18.4851   23.7799 C.3     1  UNL1        0.0651
     14 C         -11.0711  -18.9437   23.1141 C.3     1  UNL1        0.0112
     15 C         -12.3766  -18.2847   23.4479 C.3     1  UNL1        0.0009
     16 C         -11.0291  -20.0612   22.1145 C.3     1  UNL1        0.0009
@<TRIPOS>BOND
     1    10    11    1
     2    11     1    1
     3     1     2    2
     4     2     3    1
     5     3     4    2
     6     4     5    1
     7     5     6    2
     8     6    12    1
     9    12    13    1
    10    13    14    1
    11    14    15    1
    12    14    16    1
    13     6     7    1
    14     7     8    2
    15     8     9    1
    16     9     1    1
    17     8     4    1
@<TRIPOS>MOLECULE
*****
 16 17 0 0 0
SMALL
GASTEIGER

@<TRIPOS>ATOM
      1 C         -11.0707  -18.2501   23.4997 C.2     1  UNL1        0.1223
      2 C         -10.8839  -16.9985   22.6943 C.2     1  UNL1        0.0343
      3 C          -9.6553  -16.8254   21.8515 C.2     1  UNL1        0.0232
      4 C          -8.6134  -17.9038   21.8140 C.2     1  UNL1        0.0975
      5 N          -7.3089  -18.0141   21.0818 N.2     1  UNL1       -0.2200
      6 C          -6.6894  -19.3339   21.4346 C.2     1  UNL1        0.1898
      7 N          -7.6111  -20.0393   22.3849 N.2     1  UNL1       -0.2236
      8 C          -8.8002  -19.1553   22.6194 C.2     1  UNL1        0.0863
      9 C         -10.0288  -19.3285   23.4622 C.3     1  UNL1        0.1112
     10 C         -13.6296  -17.9506   23.8353 C.3     1  UNL1        0.2520
     11 O         -12.2994  -18.4232   24.3425 O.2     1  UNL1       -0.4753
     12 S          -5.3785  -19.8566   20.9264 S.3     1  UNL1       -0.0757
     13 C          -4.5747  -19.0464   19.9530 C.3     1  UNL1        0.0651
     14 C          -3.0798  -19.0024   20.0682 C.3     1  UNL1        0.0112
     15 C          -2.2688  -18.2798   19.0337 C.3     1  UNL1        0.0009
     16 C          -2.3960  -19.6811   21.2178 C.3     1  UNL1        0.0009
@<TRIPOS>BOND
     1    10    11    1
     2    11     1    1
     3     1     2    2
     4     2     3    1
     5     3     4    2
     6     4     5    1
     7     5     6    2
     8     6    12    1
     9    12    13    1
    10    13    14    1
    11    14    15    1
    12    14    16    1
    13     6     7    1
    14     7     8    2
    15     8     9    1
    16     9     1    1
    17     8     4    1
@<TRIPOS>MOLECULE
*****
 16 17 0 0 0
SMALL
GASTEIGER

@<TRIPOS>ATOM
      1 C          -2.5278  -19.0186   20.9280 C.2     1  UNL1        0.1223
      2 C          -2.7216  -18.6178   22.3604 C.2     1  UNL1        0.0343
      3 C          -4.1065  -18.4785   22.9194 C.2     1  UNL1        0.0232
      4 C          -5.2977  -18.7401   22.0461 C.2     1  UNL1        0.0975
      5 N          -6.7721  -18.6834   22.3161 N.2     1  UNL1       -0.2200
      6 C          -7.4895  -19.0493   21.0506 C.2     1  UNL1        0.1898
      7 N          -6.4585  -19.3321   19.9984 N.2     1  UNL1       -0.2236
      8 C          -5.1038  -19.1410   20.6137 C.2     1  UNL1        0.0863
      9 C          -3.7189  -19.2803   20.0547 C.3     1  UNL1        0.1112
     10 C          -0.3942  -17.9424   19.9084 C.3     1  UNL1        0.2520
     11 O          -1.1428  -19.1579   20.3690 O.2     1  UNL1       -0.4753
     12 S          -8.9769  -19.1199   20.8691 S.3     1  UNL1       -0.0757
     13 C          -9.8784  -18.2934   21.7375 C.3     1  UNL1        0.0651
     14 C         -11.2028  -17.8246   21.2119 C.3     1  UNL1        0.0112
     15 C         -11.3011  -17.2540   19.8281 C.3     1  UNL1        0.0009
     16 C         -12.4288  -17.9265   22.0700 C.3     1  UNL1        0.0009
@<TRIPOS>BOND
     1    10    11    1
     2    11     1    1
     3     1     2    2
     4     2     3    1
     5     3     4    2
     6     4     5    1
     7     5     6    2
     8     6    12    1
     9    12    13    1
    10    13    14    1
    11    14    15    1
    12    14    16    1
    13     6     7    1
    14     7     8    2
    15     8     9    1
    16     9     1    1
    17     8     4    1
@<TRIPOS>MOLECULE
*****
 16 17 0 0 0
SMALL
GASTEIGER

@<TRIPOS>ATOM
      1 C         -10.6735  -18.2914   22.3176 C.2     1  UNL1        0.1223
      2 C         -10.4289  -19.3432   23.3587 C.2     1  UNL1        0.0343
      3 C          -9.1221  -20.0791   23.3888 C.2     1  UNL1        0.0232
      4 C          -8.0601  -19.7632   22.3777 C.2     1  UNL1        0.0975
      5 N          -6.6838  -20.3189   22.1608 N.2     1  UNL1       -0.2200
      6 C          -6.0778  -19.6105   20.9856 C.2     1  UNL1        0.1898
      7 N          -7.0796  -18.6171   20.4762 N.2     1  UNL1       -0.2236
      8 C          -8.3047  -18.7115   21.3366 C.2     1  UNL1        0.0863
      9 C          -9.6115  -17.9756   21.3066 C.3     1  UNL1        0.1112
     10 C         -12.2532  -16.5557   21.2032 C.3     1  UNL1        0.2520
     11 O         -11.9803  -17.5555   22.2875 O.2     1  UNL1       -0.4753
     12 S          -4.7101  -19.8531   20.4192 S.3     1  UNL1       -0.0757
     13 C          -4.0546  -18.8065   19.5677 C.3     1  UNL1        0.0651
     14 C          -2.6088  -18.4666   19.7773 C.3     1  UNL1        0.0112
     15 C          -1.9426  -18.7944   21.0806 C.3     1  UNL1        0.0009
     16 C          -1.8292  -17.7989   18.6836 C.3     1  UNL1        0.0009
@<TRIPOS>BOND
     1    10    11    1
     2    11     1    1
     3     1     2    2
     4     2     3    1
     5     3     4    2
     6     4     5    1
     7     5     6    2
     8     6    12    1
     9    12    13    1
    10    13    14    1
    11    14    15    1
    12    14    16    1
    13     6     7    1
    14     7     8    2
    15     8     9    1
    16     9     1    1
    17     8     4    1
@<TRIPOS>MOLECULE
*****
 16 17 0 0 0
SMALL
GASTEIGER

@<TRIPOS>ATOM
      1 C          -9.9694  -18.2802   20.7842 C.2     1  UNL1        0.1223
      2 C          -9.6976  -19.2061   19.6359 C.2     1  UNL1        0.0343
      3 C          -8.3169  -19.7524   19.4235 C.2     1  UNL1        0.0232
      4 C          -7.2079  -19.3728   20.3594 C.2     1  UNL1        0.0975
      5 N          -5.7569  -19.7504   20.4019 N.2     1  UNL1       -0.2200
      6 C          -5.1318  -19.0578   21.5765 C.2     1  UNL1        0.1898
      7 N          -6.1965  -18.2522   22.2600 N.2     1  UNL1       -0.2236
      8 C          -7.4797  -18.4469   21.5078 C.2     1  UNL1        0.0863
      9 C          -8.8604  -17.9006   21.7202 C.3     1  UNL1        0.1112
     10 C         -11.7470  -16.4323   20.3656 C.3     1  UNL1        0.2520
     11 O         -11.3501  -17.7339   20.9966 O.2     1  UNL1       -0.4753
     12 S          -3.6943  -19.1541   21.9942 S.3     1  UNL1       -0.0757
     13 C          -2.6087  -19.1179   20.9598 C.3     1  UNL1        0.0651
     14 C          -2.2052  -17.8123   20.3413 C.3     1  UNL1        0.0112
     15 C          -2.0600  -17.7008   18.8525 C.3     1  UNL1        0.0009
     16 C          -1.9470  -16.6182   21.2115 C.3     1  UNL1        0.0009
@<TRIPOS>BOND
     1    10    11    1
     2    11     1    1
     3     1     2    2
     4     2     3    1
     5     3     4    2
     6     4     5    1
     7     5     6    2
     8     6    12    1
     9    12    13    1
    10    13    14    1
    11    14    15    1
    12    14    16    1
    13     6     7    1
    14     7     8    2
    15     8     9    1
    16     9     1    1
    17     8     4    1
@<TRIPOS>MOLECULE
*****
 16 17 0 0 0
SMALL
GASTEIGER

@<TRIPOS>ATOM
      1 C          -2.9763  -19.4552   21.0233 C.2     1  UNL1        0.1223
      2 C          -3.6048  -20.5247   20.1801 C.2     1  UNL1        0.0343
      3 C          -5.0971  -20.6719   20.1449 C.2     1  UNL1        0.0232
      4 C          -5.9610  -19.7495   20.9529 C.2     1  UNL1        0.0975
      5 N          -7.4490  -19.6543   21.1167 N.2     1  UNL1       -0.2200
      6 C          -7.7401  -18.5258   22.0611 C.2     1  UNL1        0.1898
      7 N          -6.4321  -17.9236   22.4810 N.2     1  UNL1       -0.2236
      8 C          -5.3325  -18.6799   21.7960 C.2     1  UNL1        0.0863
      9 C          -3.8401  -18.5328   21.8312 C.3     1  UNL1        0.1112
     10 C          -0.7953  -18.4110   20.0730 C.3     1  UNL1        0.2520
     11 O          -1.4839  -19.3080   21.0584 O.2     1  UNL1       -0.4753
     12 S          -9.1005  -18.0782   22.5073 S.3     1  UNL1       -0.0757
     13 C          -9.2540  -16.8021   23.2805 C.3     1  UNL1        0.0651
     14 C          -9.1479  -16.8143   24.7767 C.3     1  UNL1        0.0112
     15 C          -9.5771  -18.0263   25.5492 C.3     1  UNL1        0.0009
     16 C          -8.6125  -15.6145   25.5004 C.3     1  UNL1        0.0009
@<TRIPOS>BOND
     1    10    11    1
     2    11     1    1
     3     1     2    2
     4     2     3    1
     5     3     4    2
     6     4     5    1
     7     5     6    2
     8     6    12    1
     9    12    13    1
    10    13    14    1
    11    14    15    1
    12    14    16    1
    13     6     7    1
    14     7     8    2
    15     8     9    1
    16     9     1    1
    17     8     4    1
@<TRIPOS>MOLECULE
*****
 16 17 0 0 0
SMALL
GASTEIGER

@<TRIPOS>ATOM
      1 C          -8.8612  -17.3430   23.7042 C.2     1  UNL1        0.1223
      2 C          -9.5217  -18.6867   23.6138 C.2     1  UNL1        0.0343
      3 C          -8.8362  -19.8128   22.8984 C.2     1  UNL1        0.0232
      4 C          -7.4901  -19.5954   22.2734 C.2     1  UNL1        0.0975
      5 N          -6.5786  -20.5095   21.5095 N.2     1  UNL1       -0.2200
      6 C          -5.3547  -19.7308   21.1278 C.2     1  UNL1        0.1898
      7 N          -5.5097  -18.3354   21.6558 N.2     1  UNL1       -0.2236
      8 C          -6.8295  -18.2517   22.3638 C.2     1  UNL1        0.0863
      9 C          -7.5151  -17.1255   23.0792 C.3     1  UNL1        0.1112
     10 C          -8.7581  -15.3042   25.3113 C.3     1  UNL1        0.2520
     11 O          -9.5467  -16.2168   24.4195 O.2     1  UNL1       -0.4753
     12 S          -4.1817  -20.2555   20.3539 S.3     1  UNL1       -0.0757
     13 C          -3.4349  -19.3510   19.4189 C.3     1  UNL1        0.0651
     14 C          -2.2527  -18.5717   19.9137 C.3     1  UNL1        0.0112
     15 C          -1.8499  -18.6551   21.3562 C.3     1  UNL1        0.0009
     16 C          -1.4733  -17.7089   18.9661 C.3     1  UNL1        0.0009
@<TRIPOS>BOND
     1    10    11    1
     2    11     1    1
     3     1     2    2
     4     2     3    1
     5     3     4    2
     6     4     5    1
     7     5     6    2
     8     6    12    1
     9    12    13    1
    10    13    14    1
    11    14    15    1
    12    14    16    1
    13     6     7    1
    14     7     8    2
    15     8     9    1
    16     9     1    1
    17     8     4    1
