@<TRIPOS>MOLECULE
*****
 25 28 0 0 0
SMALL
GASTEIGER

@<TRIPOS>ATOM
      1 C          -7.8775  -17.3767   23.2173 C.3     1  UNL1        0.2082
      2 S          -8.0547  -18.5809   22.3407 S.3     1  UNL1       -0.0753
      3 C          -6.8610  -19.2235   21.6987 C.ar    1  UNL1        0.0443
      4 C          -7.0382  -20.4277   20.8222 C.ar    1  UNL1        0.0077
      5 C          -5.8445  -21.0702   20.1802 C.ar    1  UNL1        0.0006
      6 C          -4.4736  -20.5085   20.4147 C.ar    1  UNL1        0.0015
      7 C          -4.2963  -19.3043   21.2913 C.ar    1  UNL1        0.0182
      8 C          -5.4900  -18.6618   21.9333 C.ar    1  UNL1        0.0768
      9 N          -5.3128  -17.4575   22.8099 N.ar    1  UNL1       -0.2242
     10 C          -6.5065  -16.8150   23.4518 C.ar    1  UNL1        0.2069
     11 N          -6.0253  -15.6467   24.2603 N.ar    1  UNL1       -0.0545
     12 O          -4.5342  -15.5673   24.1180 O.2     1  UNL1       -0.2950
     13 C          -4.0938  -16.6864   23.2215 C.ar    1  UNL1        0.4472
     14 O          -2.6824  -16.9825   22.8092 O.2     1  UNL1       -0.2203
     15 C          -9.3664  -17.5398   23.2967 C.ar    1  UNL1        0.0191
     16 C         -10.2673  -16.5269   22.6543 C.ar    1  UNL1        0.0024
     17 C         -11.7563  -16.6901   22.7338 C.ar    1  UNL1        0.0367
     18 C         -12.3444  -17.8661   23.4556 C.ar    1  UNL1        0.1387
     19 C         -11.4436  -18.8790   24.0979 C.ar    1  UNL1        0.0367
     20 C          -9.9546  -18.7158   24.0185 C.ar    1  UNL1        0.0024
     21 O         -13.8334  -18.0293   23.5351 O.3     1  UNL1       -0.4714
     22 C         -14.4806  -18.3803   24.8419 C.3     1  UNL1        0.2525
     23 O          -8.2173  -16.2291   24.1214 O.3     1  UNL1       -0.3379
     24 C          -8.4062  -15.4243   26.5845 C.3     1  UNL1        0.0347
     25 C          -8.6099  -16.4872   25.5459 C.3     1  UNL1        0.1440
@<TRIPOS>BOND
     1    24    25    1
     2    25    23    1
     3    23     1    1
     4     1    15    1
     5    15    16   ar
     6    16    17   ar
     7    17    18   ar
     8    18    21    1
     9    21    22    1
    10    18    19   ar
    11    19    20   ar
    12     1     2    1
    13     2     3    1
    14     3     4   ar
    15     4     5   ar
    16     5     6   ar
    17     6     7   ar
    18     7     8   ar
    19     8     9    1
    20     9    10   ar
    21    10    11   ar
    22    11    12   ar
    23    12    13   ar
    24    13    14    2
    25    10     1    1
    26    20    15   ar
    27     8     3   ar
    28    13     9   ar
@<TRIPOS>MOLECULE
*****
 25 28 0 0 0
SMALL
GASTEIGER

@<TRIPOS>ATOM
      1 C          -8.6944  -18.1234   22.3680 C.3     1  UNL1        0.2082
      2 S          -7.2285  -18.2395   22.6641 S.3     1  UNL1       -0.0753
      3 C          -6.3353  -19.0116   21.7389 C.ar    1  UNL1        0.0443
      4 C          -4.8694  -19.1277   22.0351 C.ar    1  UNL1        0.0077
      5 C          -3.9762  -19.8997   21.1098 C.ar    1  UNL1        0.0006
      6 C          -4.5489  -20.5557   19.8884 C.ar    1  UNL1        0.0015
      7 C          -6.0147  -20.4395   19.5922 C.ar    1  UNL1        0.0182
      8 C          -6.9079  -19.6675   20.5175 C.ar    1  UNL1        0.0768
      9 N          -8.3738  -19.5513   20.2213 N.ar    1  UNL1       -0.2242
     10 C          -9.2670  -18.7793   21.1466 C.ar    1  UNL1        0.2069
     11 N         -10.6624  -18.8371   20.5992 N.ar    1  UNL1       -0.0545
     12 O         -10.6315  -19.6449   19.3357 O.2     1  UNL1       -0.2950
     13 C          -9.2171  -20.0863   19.1021 C.ar    1  UNL1        0.4472
     14 O          -8.7313  -20.9169   17.9514 O.2     1  UNL1       -0.2203
     15 C          -8.6221  -17.3316   23.6399 C.ar    1  UNL1        0.0191
     16 C          -9.2989  -17.8391   24.8787 C.ar    1  UNL1        0.0024
     17 C          -9.2266  -17.0473   26.1507 C.ar    1  UNL1        0.0367
     18 C          -8.4776  -15.7482   26.1839 C.ar    1  UNL1        0.1387
     19 C          -7.8008  -15.2408   24.9451 C.ar    1  UNL1        0.0367
     20 C          -7.8731  -16.0325   23.6732 C.ar    1  UNL1        0.0024
     21 O          -8.4052  -14.9564   27.4559 O.3     1  UNL1       -0.4714
     22 C          -7.0732  -14.5375   28.0037 C.3     1  UNL1        0.2525
     23 O         -10.1352  -17.7323   22.5135 O.3     1  UNL1       -0.3379
     24 C         -11.9831  -15.9100   22.3932 C.3     1  UNL1        0.0347
     25 C         -10.5900  -16.3700   22.0809 C.3     1  UNL1        0.1440
@<TRIPOS>BOND
     1    24    25    1
     2    25    23    1
     3    23     1    1
     4     1    15    1
     5    15    16   ar
     6    16    17   ar
     7    17    18   ar
     8    18    21    1
     9    21    22    1
    10    18    19   ar
    11    19    20   ar
    12     1     2    1
    13     2     3    1
    14     3     4   ar
    15     4     5   ar
    16     5     6   ar
    17     6     7   ar
    18     7     8   ar
    19     8     9    1
    20     9    10   ar
    21    10    11   ar
    22    11    12   ar
    23    12    13   ar
    24    13    14    2
    25    10     1    1
    26    20    15   ar
    27     8     3   ar
    28    13     9   ar
@<TRIPOS>MOLECULE
*****
 25 28 0 0 0
SMALL
GASTEIGER

@<TRIPOS>ATOM
      1 C          -6.3828  -18.4832   21.7570 C.3     1  UNL1        0.2082
      2 S          -5.7253  -17.5401   22.7205 S.3     1  UNL1       -0.0753
      3 C          -6.5553  -16.7871   23.7175 C.ar    1  UNL1        0.0443
      4 C          -5.8978  -15.8440   24.6810 C.ar    1  UNL1        0.0077
      5 C          -6.7278  -15.0910   25.6780 C.ar    1  UNL1        0.0006
      6 C          -8.2153  -15.2811   25.7116 C.ar    1  UNL1        0.0015
      7 C          -8.8729  -16.2242   24.7481 C.ar    1  UNL1        0.0182
      8 C          -8.0428  -16.9772   23.7511 C.ar    1  UNL1        0.0768
      9 N          -8.7003  -17.9203   22.7876 N.ar    1  UNL1       -0.2242
     10 C          -7.8703  -18.6733   21.7906 C.ar    1  UNL1        0.2069
     11 N          -8.7917  -19.5282   20.9719 N.ar    1  UNL1       -0.0545
     12 O         -10.1911  -19.3036   21.4630 O.2     1  UNL1       -0.2950
     13 C         -10.1346  -18.3098   22.5852 C.ar    1  UNL1        0.4472
     14 O         -11.3067  -17.7959   23.3675 O.2     1  UNL1       -0.2203
     15 C          -4.9510  -18.6395   21.3384 C.ar    1  UNL1        0.0191
     16 C          -3.8912  -18.8913   22.3697 C.ar    1  UNL1        0.0024
     17 C          -2.4593  -19.0476   21.9510 C.ar    1  UNL1        0.0367
     18 C          -2.0871  -18.9520   20.5011 C.ar    1  UNL1        0.1387
     19 C          -3.1469  -18.7001   19.4698 C.ar    1  UNL1        0.0367
     20 C          -4.5787  -18.5439   19.8885 C.ar    1  UNL1        0.0024
     21 O          -0.6552  -19.1083   20.0824 O.3     1  UNL1       -0.4714
     22 C           0.1957  -17.8945   19.8529 C.3     1  UNL1        0.2525
     23 O          -6.5431  -19.4806   20.6482 O.3     1  UNL1       -0.3379
     24 C          -6.1667  -21.8777   19.7196 C.3     1  UNL1        0.0347
     25 C          -6.1699  -20.9162   20.8709 C.3     1  UNL1        0.1440
@<TRIPOS>BOND
     1    24    25    1
     2    25    23    1
     3    23     1    1
     4     1    15    1
     5    15    16   ar
     6    16    17   ar
     7    17    18   ar
     8    18    21    1
     9    21    22    1
    10    18    19   ar
    11    19    20   ar
    12     1     2    1
    13     2     3    1
    14     3     4   ar
    15     4     5   ar
    16     5     6   ar
    17     6     7   ar
    18     7     8   ar
    19     8     9    1
    20     9    10   ar
    21    10    11   ar
    22    11    12   ar
    23    12    13   ar
    24    13    14    2
    25    10     1    1
    26    20    15   ar
    27     8     3   ar
    28    13     9   ar
@<TRIPOS>MOLECULE
*****
 25 28 0 0 0
SMALL
GASTEIGER

@<TRIPOS>ATOM
      1 C         -14.7887   -5.5495   18.5007 C.3     1  UNL1        0.2082
      2 S         -13.7367   -6.6186   18.5173 S.3     1  UNL1       -0.0753
      3 C         -12.2933   -6.2480   18.6886 C.ar    1  UNL1        0.0443
      4 C         -11.2413   -7.3170   18.7051 C.ar    1  UNL1        0.0077
      5 C          -9.7980   -6.9464   18.8764 C.ar    1  UNL1        0.0006
      6 C          -9.4066   -5.5066   19.0312 C.ar    1  UNL1        0.0015
      7 C         -10.4586   -4.4375   19.0146 C.ar    1  UNL1        0.0182
      8 C         -11.9019   -4.8082   18.8433 C.ar    1  UNL1        0.0768
      9 N         -12.9540   -3.7391   18.8268 N.ar    1  UNL1       -0.2242
     10 C         -14.3974   -4.1098   18.6555 C.ar    1  UNL1        0.2069
     11 N         -15.2061   -2.8467   18.6785 N.ar    1  UNL1       -0.0545
     12 O         -14.2627   -1.6955   18.8639 O.2     1  UNL1       -0.2950
     13 C         -12.8708   -2.2470   18.9556 C.ar    1  UNL1        0.4472
     14 O         -11.6159   -1.4469   19.1432 O.2     1  UNL1       -0.2203
     15 C         -15.6491   -6.7645   18.3182 C.ar    1  UNL1        0.0191
     16 C         -16.4361   -6.9432   17.0537 C.ar    1  UNL1        0.0024
     17 C         -17.2965   -8.1583   16.8712 C.ar    1  UNL1        0.0367
     18 C         -17.3700   -9.1946   17.9532 C.ar    1  UNL1        0.1387
     19 C         -16.5831   -9.0159   19.2176 C.ar    1  UNL1        0.0367
     20 C         -15.7227   -7.8009   19.4001 C.ar    1  UNL1        0.0024
     21 O         -18.2305  -10.4097   17.7707 O.3     1  UNL1       -0.4714
     22 C         -19.4708  -10.3310   16.9307 C.3     1  UNL1        0.2525
     23 O         -16.1395   -4.9024   18.4208 O.3     1  UNL1       -0.3379
     24 C         -18.4914   -4.6343   19.4918 C.3     1  UNL1        0.0347
     25 C         -17.0122   -4.8349   19.6390 C.3     1  UNL1        0.1440
@<TRIPOS>BOND
     1    24    25    1
     2    25    23    1
     3    23     1    1
     4     1    15    1
     5    15    16   ar
     6    16    17   ar
     7    17    18   ar
     8    18    21    1
     9    21    22    1
    10    18    19   ar
    11    19    20   ar
    12     1     2    1
    13     2     3    1
    14     3     4   ar
    15     4     5   ar
    16     5     6   ar
    17     6     7   ar
    18     7     8   ar
    19     8     9    1
    20     9    10   ar
    21    10    11   ar
    22    11    12   ar
    23    12    13   ar
    24    13    14    2
    25    10     1    1
    26    20    15   ar
    27     8     3   ar
    28    13     9   ar
@<TRIPOS>MOLECULE
*****
 25 28 0 0 0
SMALL
GASTEIGER

@<TRIPOS>ATOM
      1 C          -8.6614  -18.2267   22.6730 C.3     1  UNL1        0.2082
      2 S          -8.6328  -17.2176   23.7825 S.3     1  UNL1       -0.0753
      3 C          -7.3333  -16.5907   24.1929 C.ar    1  UNL1        0.0443
      4 C          -7.3047  -15.5816   25.3023 C.ar    1  UNL1        0.0077
      5 C          -6.0052  -14.9548   25.7126 C.ar    1  UNL1        0.0006
      6 C          -4.7343  -15.3371   25.0135 C.ar    1  UNL1        0.0015
      7 C          -4.7629  -16.3463   23.9041 C.ar    1  UNL1        0.0182
      8 C          -6.0624  -16.9730   23.4938 C.ar    1  UNL1        0.0768
      9 N          -6.0911  -17.9822   22.3843 N.ar    1  UNL1       -0.2242
     10 C          -7.3905  -18.6090   21.9740 C.ar    1  UNL1        0.2069
     11 N          -7.1100  -19.5667   20.8542 N.ar    1  UNL1       -0.0545
     12 O          -5.6371  -19.5318   20.5724 O.2     1  UNL1       -0.2950
     13 C          -5.0074  -18.5525   21.5182 C.ar    1  UNL1        0.4472
     14 O          -3.5498  -18.2046   21.5858 O.2     1  UNL1       -0.2203
     15 C         -10.1179  -18.1905   23.0298 C.ar    1  UNL1        0.0191
     16 C         -10.7022  -19.2584   23.9064 C.ar    1  UNL1        0.0024
     17 C         -12.1587  -19.2222   24.2632 C.ar    1  UNL1        0.0367
     18 C         -13.0309  -18.1180   23.7435 C.ar    1  UNL1        0.1387
     19 C         -12.4466  -17.0502   22.8670 C.ar    1  UNL1        0.0367
     20 C         -10.9902  -17.0864   22.5102 C.ar    1  UNL1        0.0024
     21 O         -14.4874  -18.0818   24.1003 O.3     1  UNL1       -0.4714
     22 C         -14.9345  -18.4982   25.4702 C.3     1  UNL1        0.2525
     23 O          -9.1959  -19.2232   21.6875 O.3     1  UNL1       -0.3379
     24 C         -10.2978  -19.7418   19.3925 C.3     1  UNL1        0.0347
     25 C          -9.8730  -18.7507   20.4353 C.3     1  UNL1        0.1440
@<TRIPOS>BOND
     1    24    25    1
     2    25    23    1
     3    23     1    1
     4     1    15    1
     5    15    16   ar
     6    16    17   ar
     7    17    18   ar
     8    18    21    1
     9    21    22    1
    10    18    19   ar
    11    19    20   ar
    12     1     2    1
    13     2     3    1
    14     3     4   ar
    15     4     5   ar
    16     5     6   ar
    17     6     7   ar
    18     7     8   ar
    19     8     9    1
    20     9    10   ar
    21    10    11   ar
    22    11    12   ar
    23    12    13   ar
    24    13    14    2
    25    10     1    1
    26    20    15   ar
    27     8     3   ar
    28    13     9   ar
@<TRIPOS>MOLECULE
*****
 25 28 0 0 0
SMALL
GASTEIGER

@<TRIPOS>ATOM
      1 C         -13.8767   -4.6183   18.4327 C.3     1  UNL1        0.2082
      2 S         -15.3165   -4.5049   18.8376 S.3     1  UNL1       -0.0753
      3 C         -15.9006   -3.1621   19.1630 C.ar    1  UNL1        0.0443
      4 C         -17.3404   -3.0487   19.5679 C.ar    1  UNL1        0.0077
      5 C         -17.9244   -1.7059   19.8934 C.ar    1  UNL1        0.0006
      6 C         -17.0686   -0.4766   19.8140 C.ar    1  UNL1        0.0015
      7 C         -15.6287   -0.5900   19.4091 C.ar    1  UNL1        0.0182
      8 C         -15.0448   -1.9328   19.0836 C.ar    1  UNL1        0.0768
      9 N         -13.6049   -2.0463   18.6787 N.ar    1  UNL1       -0.2242
     10 C         -13.0209   -3.3890   18.3532 C.ar    1  UNL1        0.2069
     11 N         -11.5799   -3.1912   17.9867 N.ar    1  UNL1       -0.0545
     12 O         -11.2733   -1.7262   18.0857 O.2     1  UNL1       -0.2950
     13 C         -12.5248   -1.0186   18.5134 C.ar    1  UNL1        0.4472
     14 O         -12.6707    0.4575   18.7365 O.2     1  UNL1       -0.2203
     15 C         -14.2813   -6.0610   18.3631 C.ar    1  UNL1        0.0191
     16 C         -15.0503   -6.6796   19.4928 C.ar    1  UNL1        0.0024
     17 C         -15.4549   -8.1224   19.4232 C.ar    1  UNL1        0.0367
     18 C         -15.0905   -8.9465   18.2240 C.ar    1  UNL1        0.1387
     19 C         -14.3216   -8.3278   17.0944 C.ar    1  UNL1        0.0367
     20 C         -13.9170   -6.8852   17.1639 C.ar    1  UNL1        0.0024
     21 O         -15.4951  -10.3892   18.1544 O.3     1  UNL1       -0.4714
     22 C         -16.8980  -10.7922   18.5003 C.3     1  UNL1        0.2525
     23 O         -12.5774   -5.2328   18.0036 O.3     1  UNL1       -0.3379
     24 C         -10.4977   -6.6806   18.5770 C.3     1  UNL1        0.0347
     25 C         -11.6718   -5.8599   19.0218 C.3     1  UNL1        0.1440
@<TRIPOS>BOND
     1    24    25    1
     2    25    23    1
     3    23     1    1
     4     1    15    1
     5    15    16   ar
     6    16    17   ar
     7    17    18   ar
     8    18    21    1
     9    21    22    1
    10    18    19   ar
    11    19    20   ar
    12     1     2    1
    13     2     3    1
    14     3     4   ar
    15     4     5   ar
    16     5     6   ar
    17     6     7   ar
    18     7     8   ar
    19     8     9    1
    20     9    10   ar
    21    10    11   ar
    22    11    12   ar
    23    12    13   ar
    24    13    14    2
    25    10     1    1
    26    20    15   ar
    27     8     3   ar
    28    13     9   ar
@<TRIPOS>MOLECULE
*****
 25 28 0 0 0
SMALL
GASTEIGER

@<TRIPOS>ATOM
      1 C          -6.6807  -18.0485   22.3286 C.3     1  UNL1        0.2082
      2 S          -6.8681  -18.7866   21.0364 S.3     1  UNL1       -0.0753
      3 C          -8.2506  -19.0589   20.5218 C.ar    1  UNL1        0.0443
      4 C          -8.4380  -19.7970   19.2295 C.ar    1  UNL1        0.0077
      5 C          -9.8204  -20.0692   18.7150 C.ar    1  UNL1        0.0006
      6 C         -11.0154  -19.6034   19.4927 C.ar    1  UNL1        0.0015
      7 C         -10.8280  -18.8652   20.7850 C.ar    1  UNL1        0.0182
      8 C          -9.4456  -18.5930   21.2995 C.ar    1  UNL1        0.0768
      9 N          -9.2582  -17.8548   22.5918 N.ar    1  UNL1       -0.2242
     10 C          -7.8757  -17.5826   23.1064 C.ar    1  UNL1        0.2069
     11 N          -8.0018  -16.8373   24.4020 N.ar    1  UNL1       -0.0545
     12 O          -9.4622  -16.6490   24.6882 O.2     1  UNL1       -0.2950
     13 C         -10.2386  -17.2779   23.5694 C.ar    1  UNL1        0.4472
     14 O         -11.7332  -17.3220   23.4493 O.2     1  UNL1       -0.2203
     15 C          -5.2478  -18.2868   21.9546 C.ar    1  UNL1        0.0191
     16 C          -4.1743  -18.1900   22.9978 C.ar    1  UNL1        0.0024
     17 C          -2.7413  -18.4283   22.6238 C.ar    1  UNL1        0.0367
     18 C          -2.3819  -18.7633   21.2065 C.ar    1  UNL1        0.1387
     19 C          -3.4554  -18.8600   20.1634 C.ar    1  UNL1        0.0367
     20 C          -4.8883  -18.6218   20.5374 C.ar    1  UNL1        0.0024
     21 O          -0.9489  -19.0016   20.8324 O.3     1  UNL1       -0.4714
     22 C          -0.2501  -18.0567   19.9004 C.3     1  UNL1        0.2525
     23 O          -5.9957  -17.3931   23.4910 O.3     1  UNL1       -0.3379
     24 C          -5.2296  -15.2234   24.6975 C.3     1  UNL1        0.0347
     25 C          -5.7049  -15.9219   23.4581 C.3     1  UNL1        0.1440
@<TRIPOS>BOND
     1    24    25    1
     2    25    23    1
     3    23     1    1
     4     1    15    1
     5    15    16   ar
     6    16    17   ar
     7    17    18   ar
     8    18    21    1
     9    21    22    1
    10    18    19   ar
    11    19    20   ar
    12     1     2    1
    13     2     3    1
    14     3     4   ar
    15     4     5   ar
    16     5     6   ar
    17     6     7   ar
    18     7     8   ar
    19     8     9    1
    20     9    10   ar
    21    10    11   ar
    22    11    12   ar
    23    12    13   ar
    24    13    14    2
    25    10     1    1
    26    20    15   ar
    27     8     3   ar
    28    13     9   ar
@<TRIPOS>MOLECULE
*****
 25 28 0 0 0
SMALL
GASTEIGER

@<TRIPOS>ATOM
      1 C         -12.9717   -2.8290   17.8050 C.3     1  UNL1        0.2082
      2 S         -14.2468   -2.6683   18.5784 S.3     1  UNL1       -0.0753
      3 C         -14.7528   -1.2966   18.9137 C.ar    1  UNL1        0.0443
      4 C         -16.0279   -1.1358   19.6871 C.ar    1  UNL1        0.0077
      5 C         -16.5339    0.2359   20.0224 C.ar    1  UNL1        0.0006
      6 C         -15.7647    1.4468   19.5842 C.ar    1  UNL1        0.0015
      7 C         -14.4896    1.2861   18.8108 C.ar    1  UNL1        0.0182
      8 C         -13.9837   -0.0856   18.4755 C.ar    1  UNL1        0.0768
      9 N         -12.7085   -0.2464   17.7020 N.ar    1  UNL1       -0.2242
     10 C         -12.2026   -1.6181   17.3668 C.ar    1  UNL1        0.2069
     11 N         -10.9237   -1.4653   16.5979 N.ar    1  UNL1       -0.0545
     12 O         -10.6393    0.0008   16.4580 O.2     1  UNL1       -0.2950
     13 C         -11.7424    0.7541   17.1404 C.ar    1  UNL1        0.4472
     14 O         -11.8589    2.2461   17.2431 O.2     1  UNL1       -0.2203
     15 C         -13.3428   -4.2695   17.9978 C.ar    1  UNL1        0.0191
     16 C         -13.5807   -4.8044   19.3790 C.ar    1  UNL1        0.0024
     17 C         -13.9518   -6.2450   19.5718 C.ar    1  UNL1        0.0367
     18 C         -14.0850   -7.1506   18.3835 C.ar    1  UNL1        0.1387
     19 C         -13.8471   -6.6158   17.0024 C.ar    1  UNL1        0.0367
     20 C         -13.4761   -5.1753   16.8096 C.ar    1  UNL1        0.0024
     21 O         -14.4561   -8.5912   18.5763 O.3     1  UNL1       -0.4714
     22 C         -15.7820   -8.9498   19.1789 C.3     1  UNL1        0.2525
     23 O         -11.8255   -3.4901   17.0985 O.3     1  UNL1       -0.3379
     24 C          -9.5648   -4.7652   17.2158 C.3     1  UNL1        0.0347
     25 C         -10.6128   -3.9159   17.8718 C.3     1  UNL1        0.1440
@<TRIPOS>BOND
     1    24    25    1
     2    25    23    1
     3    23     1    1
     4     1    15    1
     5    15    16   ar
     6    16    17   ar
     7    17    18   ar
     8    18    21    1
     9    21    22    1
    10    18    19   ar
    11    19    20   ar
    12     1     2    1
    13     2     3    1
    14     3     4   ar
    15     4     5   ar
    16     5     6   ar
    17     6     7   ar
    18     7     8   ar
    19     8     9    1
    20     9    10   ar
    21    10    11   ar
    22    11    12   ar
    23    12    13   ar
    24    13    14    2
    25    10     1    1
    26    20    15   ar
    27     8     3   ar
    28    13     9   ar
@<TRIPOS>MOLECULE
*****
 25 28 0 0 0
SMALL
GASTEIGER

@<TRIPOS>ATOM
      1 C           4.1550   -1.9104   21.7282 C.3     1  UNL1        0.2082
      2 S           3.4994   -0.9601   22.6858 S.3     1  UNL1       -0.0753
      3 C           3.8351   -1.0168   24.1467 C.ar    1  UNL1        0.0443
      4 C           3.1795   -0.0666   25.1044 C.ar    1  UNL1        0.0077
      5 C           3.5152   -0.1233   26.5652 C.ar    1  UNL1        0.0006
      6 C           4.5066   -1.1303   27.0684 C.ar    1  UNL1        0.0015
      7 C           5.1621   -2.0806   26.1107 C.ar    1  UNL1        0.0182
      8 C           4.8264   -2.0239   24.6499 C.ar    1  UNL1        0.0768
      9 N           5.4820   -2.9742   23.6922 N.ar    1  UNL1       -0.2242
     10 C           5.1463   -2.9174   22.2314 C.ar    1  UNL1        0.2069
     11 N           5.9469   -3.9746   21.5304 N.ar    1  UNL1       -0.0545
     12 O           6.7773   -4.6848   22.5580 O.2     1  UNL1       -0.2950
     13 C           6.4901   -4.0664   23.8941 C.ar    1  UNL1        0.4472
     14 O           7.1032   -4.4696   25.2024 O.2     1  UNL1       -0.2203
     15 C           3.2866   -1.1406   20.7778 C.ar    1  UNL1        0.0191
     16 C           3.8828   -0.5291   19.5446 C.ar    1  UNL1        0.0024
     17 C           3.0144    0.2408   18.5942 C.ar    1  UNL1        0.0367
     18 C           1.5499    0.3992   18.8770 C.ar    1  UNL1        0.1387
     19 C           0.9537   -0.2123   20.1101 C.ar    1  UNL1        0.0367
     20 C           1.8221   -0.9822   21.0605 C.ar    1  UNL1        0.0024
     21 O           0.6814    1.1690   17.9266 O.3     1  UNL1       -0.4714
     22 C           0.3266    2.5960   18.2231 C.3     1  UNL1        0.2525
     23 O           4.5090   -2.5934   20.4405 O.3     1  UNL1       -0.3379
     24 C           4.0644   -4.5802   18.8264 C.3     1  UNL1        0.0347
     25 C           3.5644   -3.5889   19.8350 C.3     1  UNL1        0.1440
@<TRIPOS>BOND
     1    24    25    1
     2    25    23    1
     3    23     1    1
     4     1    15    1
     5    15    16   ar
     6    16    17   ar
     7    17    18   ar
     8    18    21    1
     9    21    22    1
    10    18    19   ar
    11    19    20   ar
    12     1     2    1
    13     2     3    1
    14     3     4   ar
    15     4     5   ar
    16     5     6   ar
    17     6     7   ar
    18     7     8   ar
    19     8     9    1
    20     9    10   ar
    21    10    11   ar
    22    11    12   ar
    23    12    13   ar
    24    13    14    2
    25    10     1    1
    26    20    15   ar
    27     8     3   ar
    28    13     9   ar
