@<TRIPOS>MOLECULE
*****
 31 33 0 0 0
SMALL
GASTEIGER

@<TRIPOS>ATOM
      1 C          -5.9954  -20.5101   20.4137 C.2     1  UNL1        0.1999
      2 O          -5.8256  -21.9937   20.2723 O.2     1  UNL1       -0.2864
      3 N          -8.0084  -20.0920   22.9480 N.pl3   1  UNL1       -0.3425
      4 C          -8.2915  -19.7115   21.5250 C.ar    1  UNL1        0.1314
      5 C          -7.3663  -19.9036   20.3601 C.ar    1  UNL1        0.0909
      6 C          -8.0526  -19.3829   19.1322 C.ar    1  UNL1        0.1265
      7 N          -9.4020  -18.8688   19.5381 N.ar    1  UNL1       -0.1622
      8 N          -9.5497  -19.0719   21.0170 N.ar    1  UNL1       -0.2164
      9 H          -7.1484  -20.5090   23.1842 H       1  UNL1        0.1437
     10 H          -8.6825  -19.9247   23.6457 H       1  UNL1        0.1437
     11 C         -10.7456  -18.7006   21.8429 C.ar    1  UNL1        0.0843
     12 C         -10.7183  -18.8915   23.3304 C.ar    1  UNL1        0.0215
     13 C         -11.9141  -18.5203   24.1564 C.ar    1  UNL1        0.0312
     14 C         -13.1373  -17.9581   23.4946 C.ar    1  UNL1        0.1402
     15 F         -14.3332  -17.5868   24.3205 F       1  UNL1       -0.2042
     16 C         -13.1646  -17.7671   22.0071 C.ar    1  UNL1        0.0312
     17 C         -11.9687  -18.1384   21.1812 C.ar    1  UNL1        0.0215
     18 C          -4.7943  -19.6329   20.6088 C.ar    1  UNL1        0.0421
     19 C          -3.7025  -19.6168   19.5804 C.ar    1  UNL1        0.0034
     20 C          -2.5014  -18.7397   19.7755 C.ar    1  UNL1        0.0032
     21 C          -2.3923  -17.8786   20.9989 C.ar    1  UNL1        0.0369
     22 C          -3.4842  -17.8947   22.0272 C.ar    1  UNL1        0.1388
     23 C          -4.6852  -18.7719   21.8322 C.ar    1  UNL1        0.0401
     24 O          -3.3750  -17.0337   23.2506 O.3     1  UNL1       -0.4728
     25 C          -4.5996  -16.7179   24.0572 C.3     1  UNL1        0.2369
     26 C          -5.3740  -15.4625   23.7848 C.3     1  UNL1        0.1835
     27 O          -4.8632  -14.4684   22.7844 O.3     1  UNL1       -0.3784
     28 H          -5.4781  -13.7202   22.7292 H       1  UNL1        0.2106
     29 C          -6.6593  -15.2013   24.5128 C.3     1  UNL1        0.1702
     30 O          -7.5347  -14.0549   24.1011 O.3     1  UNL1       -0.3794
     31 H          -7.0759  -13.2185   24.2765 H       1  UNL1        0.2105
@<TRIPOS>BOND
     1     3     4    1
     2     4     5   ar
     3     5     1    1
     4     1     2    2
     5     1    18    1
     6    18    19   ar
     7    19    20   ar
     8    20    21   ar
     9    21    22   ar
    10    22    24    1
    11    24    25    1
    12    25    26    1
    13    26    27    1
    14    26    29    1
    15    29    30    1
    16    22    23   ar
    17     5     6   ar
    18     6     7   ar
    19     7     8   ar
    20     8    11    1
    21    11    12   ar
    22    12    13   ar
    23    13    14   ar
    24    14    15    1
    25    14    16   ar
    26    16    17   ar
    27     8     4   ar
    28    17    11   ar
    29    23    18   ar
    30     3     9    1
    31     3    10    1
    32    27    28    1
    33    30    31    1
@<TRIPOS>MOLECULE
*****
 31 33 0 0 0
SMALL
GASTEIGER

@<TRIPOS>ATOM
      1 C          -8.0111  -20.0341   22.1636 C.2     1  UNL1        0.1999
      2 O          -8.1894  -20.7159   23.4877 O.2     1  UNL1       -0.2864
      3 N          -5.5861  -17.8630   22.3987 N.pl3   1  UNL1       -0.3425
      4 C          -5.5766  -19.1084   21.5627 C.ar    1  UNL1        0.1314
      5 C          -6.6913  -20.1063   21.4546 C.ar    1  UNL1        0.0909
      6 C          -6.2543  -21.1891   20.5130 C.ar    1  UNL1        0.1265
      7 N          -4.8697  -20.8604   20.0391 N.ar    1  UNL1       -0.1622
      8 N          -4.4508  -19.5744   20.6878 N.ar    1  UNL1       -0.2164
      9 H          -6.3763  -17.6412   22.9425 H       1  UNL1        0.1437
     10 H          -4.8022  -17.2675   22.4037 H       1  UNL1        0.1437
     11 C          -3.1368  -18.8769   20.4955 C.ar    1  UNL1        0.0843
     12 C          -2.2685  -18.5731   21.6803 C.ar    1  UNL1        0.0215
     13 C          -0.9545  -17.8756   21.4881 C.ar    1  UNL1        0.0312
     14 C          -0.5088  -17.4820   20.1109 C.ar    1  UNL1        0.1402
     15 F           0.8052  -16.7845   19.9186 F       1  UNL1       -0.2042
     16 C          -1.3771  -17.7858   18.9261 C.ar    1  UNL1        0.0312
     17 C          -2.6911  -18.4833   19.1184 C.ar    1  UNL1        0.0215
     18 C          -9.1527  -19.2800   21.5486 C.ar    1  UNL1        0.0421
     19 C          -9.4231  -19.3971   20.0778 C.ar    1  UNL1        0.0034
     20 C         -10.5647  -18.6431   19.4628 C.ar    1  UNL1        0.0032
     21 C         -11.4357  -17.7719   20.3186 C.ar    1  UNL1        0.0369
     22 C         -11.1653  -17.6548   21.7893 C.ar    1  UNL1        0.1388
     23 C         -10.0238  -18.4088   22.4043 C.ar    1  UNL1        0.0401
     24 O         -12.0364  -16.7836   22.6451 O.3     1  UNL1       -0.4728
     25 C         -13.3366  -17.3121   23.1742 C.3     1  UNL1        0.2369
     26 C         -13.3492  -18.1975   24.3849 C.3     1  UNL1        0.1835
     27 O         -12.0681  -18.7860   24.8971 O.3     1  UNL1       -0.3784
     28 H         -12.2518  -19.3290   25.6796 H       1  UNL1        0.2106
     29 C         -14.6431  -18.4943   25.0835 C.3     1  UNL1        0.1702
     30 O         -14.6582  -18.7337   26.5642 O.3     1  UNL1       -0.3794
     31 H         -14.1744  -19.5502   26.7647 H       1  UNL1        0.2105
@<TRIPOS>BOND
     1     3     4    1
     2     4     5   ar
     3     5     1    1
     4     1     2    2
     5     1    18    1
     6    18    19   ar
     7    19    20   ar
     8    20    21   ar
     9    21    22   ar
    10    22    24    1
    11    24    25    1
    12    25    26    1
    13    26    27    1
    14    26    29    1
    15    29    30    1
    16    22    23   ar
    17     5     6   ar
    18     6     7   ar
    19     7     8   ar
    20     8    11    1
    21    11    12   ar
    22    12    13   ar
    23    13    14   ar
    24    14    15    1
    25    14    16   ar
    26    16    17   ar
    27     8     4   ar
    28    17    11   ar
    29    23    18   ar
    30     3     9    1
    31     3    10    1
    32    27    28    1
    33    30    31    1
@<TRIPOS>MOLECULE
*****
 31 33 0 0 0
SMALL
GASTEIGER

@<TRIPOS>ATOM
      1 C          -7.0321  -19.0140   20.3133 C.2     1  UNL1        0.1999
      2 O          -7.5716  -19.2959   18.9424 O.2     1  UNL1       -0.2864
      3 N         -10.1691  -19.8107   20.7295 N.pl3   1  UNL1       -0.3425
      4 C          -9.3832  -18.8525   21.5746 C.ar    1  UNL1        0.1314
      5 C          -7.9413  -18.4863   21.3833 C.ar    1  UNL1        0.0909
      6 C          -7.5682  -17.4997   22.4498 C.ar    1  UNL1        0.1265
      7 N          -8.7795  -17.2562   23.3003 N.ar    1  UNL1       -0.1622
      8 N          -9.9013  -18.0923   22.7593 N.ar    1  UNL1       -0.2164
      9 H          -9.7385  -20.2636   19.9688 H       1  UNL1        0.1437
     10 H         -11.1156  -19.9868   20.9356 H       1  UNL1        0.1437
     11 C         -11.2963  -18.1568   23.3070 C.ar    1  UNL1        0.0843
     12 C         -12.4371  -17.5784   22.5236 C.ar    1  UNL1        0.0215
     13 C         -13.8321  -17.6429   23.0712 C.ar    1  UNL1        0.0312
     14 C         -14.0862  -18.2859   24.4024 C.ar    1  UNL1        0.1402
     15 F         -15.4812  -18.3504   24.9501 F       1  UNL1       -0.2042
     16 C         -12.9453  -18.8643   25.1859 C.ar    1  UNL1        0.0312
     17 C         -11.5504  -18.7998   24.6382 C.ar    1  UNL1        0.0215
     18 C          -5.5832  -19.2598   20.6143 C.ar    1  UNL1        0.0421
     19 C          -5.1750  -19.7840   21.9590 C.ar    1  UNL1        0.0034
     20 C          -3.7262  -20.0298   22.2599 C.ar    1  UNL1        0.0032
     21 C          -2.6856  -19.7513   21.2160 C.ar    1  UNL1        0.0369
     22 C          -3.0939  -19.2271   19.8712 C.ar    1  UNL1        0.1388
     23 C          -4.5427  -18.9813   19.5704 C.ar    1  UNL1        0.0401
     24 O          -2.0533  -18.9486   18.8273 O.3     1  UNL1       -0.4728
     25 C          -1.2432  -17.6879   18.8935 C.3     1  UNL1        0.2369
     26 C          -0.6324  -17.2563   20.1937 C.3     1  UNL1        0.1835
     27 O           0.7010  -17.8004   20.6131 O.3     1  UNL1       -0.3784
     28 H           0.9491  -17.4223   21.4713 H       1  UNL1        0.2106
     29 C          -1.3550  -16.2805   21.0745 C.3     1  UNL1        0.1702
     30 O          -1.9185  -16.7317   22.3893 O.3     1  UNL1       -0.3794
     31 H          -2.6326  -17.3693   22.2333 H       1  UNL1        0.2105
@<TRIPOS>BOND
     1     3     4    1
     2     4     5   ar
     3     5     1    1
     4     1     2    2
     5     1    18    1
     6    18    19   ar
     7    19    20   ar
     8    20    21   ar
     9    21    22   ar
    10    22    24    1
    11    24    25    1
    12    25    26    1
    13    26    27    1
    14    26    29    1
    15    29    30    1
    16    22    23   ar
    17     5     6   ar
    18     6     7   ar
    19     7     8   ar
    20     8    11    1
    21    11    12   ar
    22    12    13   ar
    23    13    14   ar
    24    14    15    1
    25    14    16   ar
    26    16    17   ar
    27     8     4   ar
    28    17    11   ar
    29    23    18   ar
    30     3     9    1
    31     3    10    1
    32    27    28    1
    33    30    31    1
@<TRIPOS>MOLECULE
*****
 31 33 0 0 0
SMALL
GASTEIGER

@<TRIPOS>ATOM
      1 C          -8.8171  -19.6601   20.9783 C.2     1  UNL1        0.1999
      2 O          -9.8566  -19.8031   19.9063 O.2     1  UNL1       -0.2864
      3 N          -6.3967  -17.4849   21.2223 N.pl3   1  UNL1       -0.3425
      4 C          -6.2600  -18.9093   20.7724 C.ar    1  UNL1        0.1314
      5 C          -7.3726  -19.9091   20.6602 C.ar    1  UNL1        0.0909
      6 C          -6.7869  -21.2017   20.1741 C.ar    1  UNL1        0.1265
      7 N          -5.3124  -21.0007   19.9858 N.ar    1  UNL1       -0.1622
      8 N          -4.9868  -19.5839   20.3556 N.ar    1  UNL1       -0.2164
      9 H          -7.2797  -17.1317   21.4770 H       1  UNL1        0.1437
     10 H          -5.6035  -16.9033   21.2630 H       1  UNL1        0.1437
     11 C          -3.6267  -18.9526   20.3156 C.ar    1  UNL1        0.0843
     12 C          -3.0844  -18.4208   19.0222 C.ar    1  UNL1        0.0215
     13 C          -1.7243  -17.7894   18.9821 C.ar    1  UNL1        0.0312
     14 C          -0.9065  -17.6899   20.2357 C.ar    1  UNL1        0.1402
     15 F           0.4536  -17.0586   20.1957 F       1  UNL1       -0.2042
     16 C          -1.4488  -18.2217   21.5292 C.ar    1  UNL1        0.0312
     17 C          -2.8089  -18.8530   21.5691 C.ar    1  UNL1        0.0215
     18 C          -9.2223  -19.2681   22.3683 C.ar    1  UNL1        0.0421
     19 C          -9.6485  -20.3192   23.3499 C.ar    1  UNL1        0.0034
     20 C         -10.0536  -19.9271   24.7399 C.ar    1  UNL1        0.0032
     21 C         -10.0325  -18.4840   25.1483 C.ar    1  UNL1        0.0369
     22 C          -9.6063  -17.4329   24.1668 C.ar    1  UNL1        0.1388
     23 C          -9.2012  -17.8249   22.7768 C.ar    1  UNL1        0.0401
     24 O          -9.5852  -15.9897   24.5752 O.3     1  UNL1       -0.4728
     25 C          -8.2804  -15.3157   24.8808 C.3     1  UNL1        0.2369
     26 C          -7.2774  -15.0929   23.7880 C.3     1  UNL1        0.1835
     27 O          -7.7401  -14.7358   22.4066 O.3     1  UNL1       -0.3784
     28 H          -6.9708  -14.6276   21.8257 H       1  UNL1        0.2106
     29 C          -5.8115  -15.2271   24.0766 C.3     1  UNL1        0.1702
     30 O          -4.8038  -14.6686   23.1162 O.3     1  UNL1       -0.3794
     31 H          -4.8498  -15.1566   22.2791 H       1  UNL1        0.2105
@<TRIPOS>BOND
     1     3     4    1
     2     4     5   ar
     3     5     1    1
     4     1     2    2
     5     1    18    1
     6    18    19   ar
     7    19    20   ar
     8    20    21   ar
     9    21    22   ar
    10    22    24    1
    11    24    25    1
    12    25    26    1
    13    26    27    1
    14    26    29    1
    15    29    30    1
    16    22    23   ar
    17     5     6   ar
    18     6     7   ar
    19     7     8   ar
    20     8    11    1
    21    11    12   ar
    22    12    13   ar
    23    13    14   ar
    24    14    15    1
    25    14    16   ar
    26    16    17   ar
    27     8     4   ar
    28    17    11   ar
    29    23    18   ar
    30     3     9    1
    31     3    10    1
    32    27    28    1
    33    30    31    1
@<TRIPOS>MOLECULE
*****
 31 33 0 0 0
SMALL
GASTEIGER

@<TRIPOS>ATOM
      1 C          -8.0829  -19.8288   22.6695 C.2     1  UNL1        0.1999
      2 O          -8.5265  -21.0026   23.4913 O.2     1  UNL1       -0.2864
      3 N          -5.5283  -17.8011   22.7801 N.pl3   1  UNL1       -0.3425
      4 C          -5.6689  -18.9940   21.8817 C.ar    1  UNL1        0.1314
      5 C          -6.8431  -19.9261   21.8309 C.ar    1  UNL1        0.0909
      6 C          -6.5597  -20.9725   20.7942 C.ar    1  UNL1        0.1265
      7 N          -5.2105  -20.6872   20.2042 N.ar    1  UNL1       -0.1622
      8 N          -4.6599  -19.4644   20.8764 N.ar    1  UNL1       -0.2164
      9 H          -6.2492  -17.5718   23.4102 H       1  UNL1        0.1437
     10 H          -4.7153  -17.2474   22.7396 H       1  UNL1        0.1437
     11 C          -3.3332  -18.8244   20.5930 C.ar    1  UNL1        0.0843
     12 C          -2.3609  -18.5871   21.7103 C.ar    1  UNL1        0.0215
     13 C          -1.0342  -17.9471   21.4270 C.ar    1  UNL1        0.0312
     14 C          -0.6798  -17.5444   20.0261 C.ar    1  UNL1        0.1402
     15 F           0.6469  -16.9044   19.7427 F       1  UNL1       -0.2042
     16 C          -1.6520  -17.7817   18.9088 C.ar    1  UNL1        0.0312
     17 C          -2.9787  -18.4217   19.1922 C.ar    1  UNL1        0.0215
     18 C          -8.8791  -18.5576   22.6865 C.ar    1  UNL1        0.0421
     19 C          -9.8884  -18.2904   21.6095 C.ar    1  UNL1        0.0034
     20 C         -10.6845  -17.0193   21.6265 C.ar    1  UNL1        0.0032
     21 C         -10.4714  -16.0153   22.7204 C.ar    1  UNL1        0.0369
     22 C          -9.4621  -16.2825   23.7973 C.ar    1  UNL1        0.1388
     23 C          -8.6659  -17.5536   23.7804 C.ar    1  UNL1        0.0401
     24 O          -9.2489  -15.2786   24.8913 O.3     1  UNL1       -0.4728
     25 C          -8.4827  -15.6621   26.1224 C.3     1  UNL1        0.2369
     26 C          -7.0757  -15.1779   26.3114 C.3     1  UNL1        0.1835
     27 O          -6.6829  -14.4939   27.5872 O.3     1  UNL1       -0.3784
     28 H          -5.7459  -14.2463   27.5462 H       1  UNL1        0.2106
     29 C          -6.0614  -15.3777   25.2244 C.3     1  UNL1        0.1702
     30 O          -6.2781  -14.7617   23.8740 O.3     1  UNL1       -0.3794
     31 H          -7.0504  -15.1702   23.4525 H       1  UNL1        0.2105
@<TRIPOS>BOND
     1     3     4    1
     2     4     5   ar
     3     5     1    1
     4     1     2    2
     5     1    18    1
     6    18    19   ar
     7    19    20   ar
     8    20    21   ar
     9    21    22   ar
    10    22    24    1
    11    24    25    1
    12    25    26    1
    13    26    27    1
    14    26    29    1
    15    29    30    1
    16    22    23   ar
    17     5     6   ar
    18     6     7   ar
    19     7     8   ar
    20     8    11    1
    21    11    12   ar
    22    12    13   ar
    23    13    14   ar
    24    14    15    1
    25    14    16   ar
    26    16    17   ar
    27     8     4   ar
    28    17    11   ar
    29    23    18   ar
    30     3     9    1
    31     3    10    1
    32    27    28    1
    33    30    31    1
@<TRIPOS>MOLECULE
*****
 31 33 0 0 0
SMALL
GASTEIGER

@<TRIPOS>ATOM
      1 C          -7.8168  -19.2690   20.2206 C.2     1  UNL1        0.1999
      2 O          -8.8233  -19.8418   19.2672 O.2     1  UNL1       -0.2864
      3 N          -5.9396  -18.1505   22.6443 N.pl3   1  UNL1       -0.3425
      4 C          -7.4072  -17.8913   22.4742 C.ar    1  UNL1        0.1314
      5 C          -8.2701  -18.4054   21.3602 C.ar    1  UNL1        0.0909
      6 C          -9.6658  -17.9043   21.5859 C.ar    1  UNL1        0.1265
      7 N          -9.6655  -17.0805   22.8394 N.ar    1  UNL1       -0.1622
      8 N          -8.2696  -17.0724   23.3884 N.ar    1  UNL1       -0.2164
      9 H          -5.4581  -18.7038   21.9876 H       1  UNL1        0.1437
     10 H          -5.4578  -17.7672   23.4125 H       1  UNL1        0.1437
     11 C          -7.8158  -16.3690   24.6331 C.ar    1  UNL1        0.0843
     12 C          -8.6937  -16.3552   25.8493 C.ar    1  UNL1        0.0215
     13 C          -8.2400  -15.6518   27.0940 C.ar    1  UNL1        0.0312
     14 C          -6.9082  -14.9622   27.1225 C.ar    1  UNL1        0.1402
     15 F          -6.4544  -14.2587   28.3673 F       1  UNL1       -0.2042
     16 C          -6.0302  -14.9760   25.9064 C.ar    1  UNL1        0.0312
     17 C          -6.4840  -15.6794   24.6617 C.ar    1  UNL1        0.0215
     18 C          -6.3571  -19.5598   20.0344 C.ar    1  UNL1        0.0421
     19 C          -5.8284  -20.9397   20.2919 C.ar    1  UNL1        0.0034
     20 C          -4.3687  -21.2305   20.1057 C.ar    1  UNL1        0.0032
     21 C          -3.4377  -20.1414   19.6619 C.ar    1  UNL1        0.0369
     22 C          -3.9663  -18.7615   19.4043 C.ar    1  UNL1        0.1388
     23 C          -5.4260  -18.4707   19.5906 C.ar    1  UNL1        0.0401
     24 O          -3.0353  -17.6723   18.9605 O.3     1  UNL1       -0.4728
     25 C          -1.7424  -17.4485   19.6873 C.3     1  UNL1        0.2369
     26 C          -1.7228  -17.4033   21.1865 C.3     1  UNL1        0.1835
     27 O          -1.1645  -18.5578   21.9645 O.3     1  UNL1       -0.3784
     28 H          -1.2269  -18.3684   22.9137 H       1  UNL1        0.2106
     29 C          -2.2616  -16.2034   21.9077 C.3     1  UNL1        0.1702
     30 O          -3.5728  -16.2894   22.6311 O.3     1  UNL1       -0.3794
     31 H          -4.2874  -16.4277   21.9898 H       1  UNL1        0.2105
@<TRIPOS>BOND
     1     3     4    1
     2     4     5   ar
     3     5     1    1
     4     1     2    2
     5     1    18    1
     6    18    19   ar
     7    19    20   ar
     8    20    21   ar
     9    21    22   ar
    10    22    24    1
    11    24    25    1
    12    25    26    1
    13    26    27    1
    14    26    29    1
    15    29    30    1
    16    22    23   ar
    17     5     6   ar
    18     6     7   ar
    19     7     8   ar
    20     8    11    1
    21    11    12   ar
    22    12    13   ar
    23    13    14   ar
    24    14    15    1
    25    14    16   ar
    26    16    17   ar
    27     8     4   ar
    28    17    11   ar
    29    23    18   ar
    30     3     9    1
    31     3    10    1
    32    27    28    1
    33    30    31    1
@<TRIPOS>MOLECULE
*****
 31 33 0 0 0
SMALL
GASTEIGER

@<TRIPOS>ATOM
      1 C          -5.0489  -15.8947   23.3825 C.2     1  UNL1        0.1999
      2 O          -4.4497  -14.5228   23.2880 O.2     1  UNL1       -0.2864
      3 N          -7.7031  -16.9551   21.8076 N.pl3   1  UNL1       -0.3425
      4 C          -7.6333  -16.5651   23.2544 C.ar    1  UNL1        0.1314
      5 C          -6.4133  -16.0777   23.9783 C.ar    1  UNL1        0.0909
      6 C          -6.7973  -15.8054   25.4025 C.ar    1  UNL1        0.1265
      7 N          -8.2545  -16.1246   25.5589 N.ar    1  UNL1       -0.1622
      8 N          -8.7712  -16.5941   24.2312 N.ar    1  UNL1       -0.2164
      9 H          -6.8976  -16.9017   21.2440 H       1  UNL1        0.1437
     10 H          -8.5543  -17.2645   21.4217 H       1  UNL1        0.1437
     11 C         -10.1788  -17.0181   23.9328 C.ar    1  UNL1        0.0843
     12 C         -10.7492  -18.2401   24.5896 C.ar    1  UNL1        0.0215
     13 C         -12.1567  -18.6642   24.2913 C.ar    1  UNL1        0.0312
     14 C         -12.9939  -17.8663   23.3359 C.ar    1  UNL1        0.1402
     15 F         -14.4014  -18.2903   23.0375 F       1  UNL1       -0.2042
     16 C         -12.4234  -16.6443   22.6790 C.ar    1  UNL1        0.0312
     17 C         -11.0159  -16.2203   22.9775 C.ar    1  UNL1        0.0215
     18 C          -4.2837  -17.0835   22.8813 C.ar    1  UNL1        0.0421
     19 C          -2.7909  -17.0145   22.7521 C.ar    1  UNL1        0.0034
     20 C          -2.0258  -18.2034   22.2509 C.ar    1  UNL1        0.0032
     21 C          -2.7535  -19.4612   21.8789 C.ar    1  UNL1        0.0369
     22 C          -4.2463  -19.5302   22.0082 C.ar    1  UNL1        0.1388
     23 C          -5.0114  -18.3414   22.5094 C.ar    1  UNL1        0.0401
     24 O          -4.9740  -20.7880   21.6362 O.3     1  UNL1       -0.4728
     25 C          -5.7287  -20.8631   20.3421 C.3     1  UNL1        0.2369
     26 C          -6.6253  -19.7334   19.9301 C.3     1  UNL1        0.1835
     27 O          -6.0326  -18.4294   19.4850 O.3     1  UNL1       -0.3784
     28 H          -6.7447  -17.8120   19.2557 H       1  UNL1        0.2106
     29 C          -8.1149  -19.9078   19.9633 C.3     1  UNL1        0.1702
     30 O          -9.0118  -18.7720   19.5690 O.3     1  UNL1       -0.3794
     31 H          -8.9187  -18.0492   20.2092 H       1  UNL1        0.2105
@<TRIPOS>BOND
     1     3     4    1
     2     4     5   ar
     3     5     1    1
     4     1     2    2
     5     1    18    1
     6    18    19   ar
     7    19    20   ar
     8    20    21   ar
     9    21    22   ar
    10    22    24    1
    11    24    25    1
    12    25    26    1
    13    26    27    1
    14    26    29    1
    15    29    30    1
    16    22    23   ar
    17     5     6   ar
    18     6     7   ar
    19     7     8   ar
    20     8    11    1
    21    11    12   ar
    22    12    13   ar
    23    13    14   ar
    24    14    15    1
    25    14    16   ar
    26    16    17   ar
    27     8     4   ar
    28    17    11   ar
    29    23    18   ar
    30     3     9    1
    31     3    10    1
    32    27    28    1
    33    30    31    1
@<TRIPOS>MOLECULE
*****
 31 33 0 0 0
SMALL
GASTEIGER

@<TRIPOS>ATOM
      1 C         -10.3316  -18.5624   20.2329 C.2     1  UNL1        0.1999
      2 O         -11.3300  -17.8464   19.3724 O.2     1  UNL1       -0.2864
      3 N          -8.0515  -16.7549   21.7107 N.pl3   1  UNL1       -0.3425
      4 C          -9.2090  -17.4342   22.3805 C.ar    1  UNL1        0.1314
      5 C         -10.2571  -18.2650   21.7013 C.ar    1  UNL1        0.0909
      6 C         -11.2175  -18.7463   22.7482 C.ar    1  UNL1        0.1265
      7 N         -10.7631  -18.2129   24.0744 N.ar    1  UNL1       -0.1622
      8 N          -9.5217  -17.4020   23.8472 N.ar    1  UNL1       -0.2164
      9 H          -7.9300  -16.8352   20.7370 H       1  UNL1        0.1437
     10 H          -7.4134  -16.2288   22.2447 H       1  UNL1        0.1437
     11 C          -8.7318  -16.6848   24.9015 C.ar    1  UNL1        0.0843
     12 C          -9.0022  -16.9515   26.3526 C.ar    1  UNL1        0.0215
     13 C          -8.2123  -16.2344   27.4070 C.ar    1  UNL1        0.0312
     14 C          -7.1519  -15.2503   27.0102 C.ar    1  UNL1        0.1402
     15 F          -6.3620  -14.5331   28.0646 F       1  UNL1       -0.2042
     16 C          -6.8815  -14.9836   25.5591 C.ar    1  UNL1        0.0312
     17 C          -7.6715  -15.7008   24.5048 C.ar    1  UNL1        0.0215
     18 C          -9.4077  -19.5758   19.6251 C.ar    1  UNL1        0.0421
     19 C          -9.8412  -20.3595   18.4218 C.ar    1  UNL1        0.0034
     20 C          -8.9173  -21.3728   17.8140 C.ar    1  UNL1        0.0032
     21 C          -7.5598  -21.6025   18.4095 C.ar    1  UNL1        0.0369
     22 C          -7.1263  -20.8188   19.6128 C.ar    1  UNL1        0.1388
     23 C          -8.0502  -19.8055   20.2206 C.ar    1  UNL1        0.0401
     24 O          -5.7688  -21.0485   20.2082 O.3     1  UNL1       -0.4728
     25 C          -4.7295  -19.9688   20.1447 C.3     1  UNL1        0.2369
     26 C          -4.3737  -19.1968   21.3806 C.3     1  UNL1        0.1835
     27 O          -5.3981  -18.3207   22.0386 O.3     1  UNL1       -0.3784
     28 H          -5.0078  -17.8967   22.8188 H       1  UNL1        0.2106
     29 C          -2.9933  -19.3008   21.9584 C.3     1  UNL1        0.1702
     30 O          -2.0228  -20.3026   21.4065 O.3     1  UNL1       -0.3794
     31 H          -2.3439  -21.1992   21.5907 H       1  UNL1        0.2105
@<TRIPOS>BOND
     1     3     4    1
     2     4     5   ar
     3     5     1    1
     4     1     2    2
     5     1    18    1
     6    18    19   ar
     7    19    20   ar
     8    20    21   ar
     9    21    22   ar
    10    22    24    1
    11    24    25    1
    12    25    26    1
    13    26    27    1
    14    26    29    1
    15    29    30    1
    16    22    23   ar
    17     5     6   ar
    18     6     7   ar
    19     7     8   ar
    20     8    11    1
    21    11    12   ar
    22    12    13   ar
    23    13    14   ar
    24    14    15    1
    25    14    16   ar
    26    16    17   ar
    27     8     4   ar
    28    17    11   ar
    29    23    18   ar
    30     3     9    1
    31     3    10    1
    32    27    28    1
    33    30    31    1
@<TRIPOS>MOLECULE
*****
 31 33 0 0 0
SMALL
GASTEIGER

@<TRIPOS>ATOM
      1 C         -10.7431   -6.3623   18.3179 C.2     1  UNL1        0.1999
      2 O          -9.6198   -7.1193   18.9623 O.2     1  UNL1       -0.2864
      3 N         -13.3908   -5.7623   20.1286 N.pl3   1  UNL1       -0.3425
      4 C         -13.3040   -6.7326   18.9881 C.ar    1  UNL1        0.1314
      5 C         -12.0870   -7.0085   18.1558 C.ar    1  UNL1        0.0909
      6 C         -12.4499   -8.0439   17.1329 C.ar    1  UNL1        0.1265
      7 N         -13.8912   -8.4080   17.3330 N.ar    1  UNL1       -0.1622
      8 N         -14.4191   -7.5976   18.4796 N.ar    1  UNL1       -0.2164
      9 H         -12.6001   -5.2369   20.3892 H       1  UNL1        0.1437
     10 H         -14.2386   -5.6508   20.6166 H       1  UNL1        0.1437
     11 C         -15.8167   -7.6440   19.0224 C.ar    1  UNL1        0.0843
     12 C         -16.3358   -8.9032   19.6508 C.ar    1  UNL1        0.0215
     13 C         -17.7334   -8.9497   20.1936 C.ar    1  UNL1        0.0312
     14 C         -18.6119   -7.7368   20.1080 C.ar    1  UNL1        0.1402
     15 F         -20.0095   -7.7832   20.6508 F       1  UNL1       -0.2042
     16 C         -18.0928   -6.4776   19.4796 C.ar    1  UNL1        0.0312
     17 C         -16.6952   -6.4312   18.9368 C.ar    1  UNL1        0.0215
     18 C         -10.5224   -4.9592   17.8356 C.ar    1  UNL1        0.0421
     19 C          -9.5470   -4.6915   16.7279 C.ar    1  UNL1        0.0034
     20 C          -9.3264   -3.2884   16.2457 C.ar    1  UNL1        0.0032
     21 C         -10.0811   -2.1530   16.8711 C.ar    1  UNL1        0.0369
     22 C         -11.0565   -2.4206   17.9788 C.ar    1  UNL1        0.1388
     23 C         -11.2771   -3.8237   18.4610 C.ar    1  UNL1        0.0401
     24 O         -11.8112   -1.2852   18.6042 O.3     1  UNL1       -0.4728
     25 C         -13.3026   -1.2086   18.4642 C.3     1  UNL1        0.2369
     26 C         -14.1675   -2.2827   19.0545 C.3     1  UNL1        0.1835
     27 O         -14.5898   -3.4516   18.2148 O.3     1  UNL1       -0.3784
     28 H         -15.1410   -4.0482   18.7450 H       1  UNL1        0.2106
     29 C         -14.6100   -2.1877   20.4847 C.3     1  UNL1        0.1702
     30 O         -14.0296   -3.1135   21.5123 O.3     1  UNL1       -0.3794
     31 H         -14.3023   -4.0239   21.3181 H       1  UNL1        0.2105
@<TRIPOS>BOND
     1     3     4    1
     2     4     5   ar
     3     5     1    1
     4     1     2    2
     5     1    18    1
     6    18    19   ar
     7    19    20   ar
     8    20    21   ar
     9    21    22   ar
    10    22    24    1
    11    24    25    1
    12    25    26    1
    13    26    27    1
    14    26    29    1
    15    29    30    1
    16    22    23   ar
    17     5     6   ar
    18     6     7   ar
    19     7     8   ar
    20     8    11    1
    21    11    12   ar
    22    12    13   ar
    23    13    14   ar
    24    14    15    1
    25    14    16   ar
    26    16    17   ar
    27     8     4   ar
    28    17    11   ar
    29    23    18   ar
    30     3     9    1
    31     3    10    1
    32    27    28    1
    33    30    31    1
