@<TRIPOS>MOLECULE
*****
 47 52 0 0 0
SMALL
GASTEIGER

@<TRIPOS>ATOM
      1 C          -3.6994    4.0556   25.0568 C.ar    1  UNL1        0.1348
      2 C          -3.0768    4.6892   26.2654 C.ar    1  UNL1        0.0346
      3 C          -1.5952    4.5977   26.4809 C.ar    1  UNL1        0.0065
      4 C          -0.7362    3.8727   25.4878 C.ar    1  UNL1        0.0432
      5 C          -1.3588    3.2392   24.2791 C.ar    1  UNL1        0.1256
      6 N          -2.8404    3.3306   24.0636 N.ar    1  UNL1       -0.2222
      7 C           0.7454    3.7813   25.7033 C.ar    1  UNL1        0.0850
      8 C           1.4344    2.9678   26.7585 C.ar    1  UNL1        0.0992
      9 N           2.9130    3.1711   26.6088 N.ar    1  UNL1       -0.2265
     10 C           3.1379    4.1102   25.4610 C.ar    1  UNL1        0.1474
     11 C           4.3894    4.6707   24.8531 C.ar    1  UNL1        0.0332
     12 C           4.3013    5.6083   23.6856 C.ar    1  UNL1       -0.0174
     13 C           5.5528    6.1688   23.0777 C.3     1  UNL1        0.0312
     14 C           2.9617    5.9855   23.1259 C.ar    1  UNL1        0.0149
     15 C           1.7102    5.4250   23.7338 C.ar    1  UNL1        0.0811
     16 N           1.7983    4.4873   24.9014 N.ar    1  UNL1       -0.2888
     17 C           0.7627    2.1029   27.7836 C.ar    1  UNL1        0.0253
     18 C          -0.1175    0.9691   27.3476 C.ar    1  UNL1        0.0224
     19 C          -0.7892    0.1042   28.3727 C.ar    1  UNL1        0.1021
     20 N          -0.5808    0.3730   29.8336 N.ar    1  UNL1       -0.2101
     21 C           0.2994    1.5067   30.2695 C.ar    1  UNL1        0.2250
     22 C           0.9711    2.3716   29.2444 C.ar    1  UNL1        0.0593
     23 O           0.5079    1.7754   31.7304 O.3     1  UNL1       -0.4561
     24 C           1.8924    1.7533   32.3070 C.3     1  UNL1        0.2542
     25 C          -5.7674    5.3488   24.1618 C.2     1  UNL1        0.2414
     26 O          -4.8720    6.4594   23.6978 O.2     1  UNL1       -0.2733
     27 N          -5.1810    4.1470   24.8413 N.am    1  UNL1       -0.2682
     28 H          -5.7687    3.4182   25.1458 H       1  UNL1        0.1563
     29 C          -7.2490    5.4403   23.9463 C.3     1  UNL1        0.1319
     30 C          -8.1232    6.0565   24.9980 C.3     1  UNL1        0.0270
     31 C          -7.0586    4.9154   21.4090 C.3     1  UNL1        0.0862
     32 N          -7.8564    4.9155   22.6792 N.3     1  UNL1       -0.2902
     33 H          -8.1231    3.9476   22.8594 H       1  UNL1        0.1237
     34 C          -0.4998    2.5141   23.2859 C.1     1  UNL1       -0.0404
     35 C           0.3592    1.7891   22.2927 C.1     1  UNL1       -0.0583
     36 C           1.2182    1.0641   21.2994 C.ar    1  UNL1        0.0421
     37 C           1.2079    1.4759   19.8571 C.ar    1  UNL1        0.0097
     38 C           2.0669    0.7509   18.8640 C.ar    1  UNL1        0.0179
     39 C           2.9362   -0.3860   19.3131 C.ar    1  UNL1        0.0625
     40 C           2.9465   -0.7979   20.7554 C.ar    1  UNL1        0.0166
     41 C           3.8159   -1.9348   21.2045 C.ar    1  UNL1        0.0063
     42 C           4.6749   -2.6598   20.2113 C.ar    1  UNL1        0.0608
     43 C           4.6646   -2.2480   18.7690 C.ar    1  UNL1        0.2610
     44 O           5.5236   -2.9730   17.7758 O.2     1  UNL1       -0.2670
     45 N           3.7952   -1.1111   18.3199 N.ar    1  UNL1       -0.2935
     46 C           3.7849   -0.6992   16.8776 C.3     1  UNL1        0.1335
     47 C           2.0875   -0.0728   21.7485 C.ar    1  UNL1        0.0097
@<TRIPOS>BOND
     1    31    32    1
     2    32    29    1
     3    29    30    1
     4    29    25    1
     5    25    26    2
     6    25    27   am
     7    27     1    1
     8     1     2   ar
     9     2     3   ar
    10     3     4   ar
    11     4     7    1
    12     7     8   ar
    13     8    17    1
    14    17    18   ar
    15    18    19   ar
    16    19    20   ar
    17    20    21   ar
    18    21    23    1
    19    23    24    1
    20    21    22   ar
    21     8     9   ar
    22     9    10   ar
    23    10    11   ar
    24    11    12   ar
    25    12    13    1
    26    12    14   ar
    27    14    15   ar
    28    15    16   ar
    29     4     5   ar
    30     5    34    1
    31    34    35    3
    32    35    36    1
    33    36    37   ar
    34    37    38   ar
    35    38    39   ar
    36    39    40   ar
    37    40    41   ar
    38    41    42   ar
    39    42    43   ar
    40    43    44    2
    41    43    45   ar
    42    45    46    1
    43    40    47   ar
    44     5     6   ar
    45     6     1   ar
    46    16     7   ar
    47    47    36   ar
    48    22    17   ar
    49    16    10   ar
    50    45    39   ar
    51    32    33    1
    52    27    28    1
@<TRIPOS>MOLECULE
*****
 47 52 0 0 0
SMALL
GASTEIGER

@<TRIPOS>ATOM
      1 C          -3.1004    4.1854   25.7397 C.ar    1  UNL1        0.1348
      2 C          -2.4539    5.1891   26.6477 C.ar    1  UNL1        0.0346
      3 C          -0.9609    5.2206   26.7889 C.ar    1  UNL1        0.0065
      4 C          -0.1144    4.2483   26.0221 C.ar    1  UNL1        0.0432
      5 C          -0.7608    3.2446   25.1141 C.ar    1  UNL1        0.1256
      6 N          -2.2538    3.2131   24.9729 N.ar    1  UNL1       -0.2222
      7 C           1.3786    4.2798   26.1634 C.ar    1  UNL1        0.0850
      8 C           2.1686    3.7102   27.3042 C.ar    1  UNL1        0.0992
      9 N           3.6220    3.9648   27.0345 N.ar    1  UNL1       -0.2265
     10 C           3.7304    4.6917   25.7269 C.ar    1  UNL1        0.1474
     11 C           4.9124    5.2016   24.9569 C.ar    1  UNL1        0.0332
     12 C           4.7079    5.9061   23.6485 C.ar    1  UNL1       -0.0174
     13 C           5.8899    6.4159   22.8785 C.3     1  UNL1        0.0312
     14 C           3.3215    6.1008   23.1101 C.ar    1  UNL1        0.0149
     15 C           2.1394    5.5910   23.8801 C.ar    1  UNL1        0.0811
     16 N           2.3439    4.8864   25.1885 N.ar    1  UNL1       -0.2888
     17 C           1.6042    3.0091   28.5042 C.ar    1  UNL1        0.0253
     18 C           1.6223    3.6832   29.8441 C.ar    1  UNL1        0.0224
     19 C           1.0579    2.9821   31.0441 C.ar    1  UNL1        0.1021
     20 N           0.4754    1.6069   30.9042 N.ar    1  UNL1       -0.2101
     21 C           0.4573    0.9329   29.5643 C.ar    1  UNL1        0.2250
     22 C           1.0217    1.6340   28.3643 C.ar    1  UNL1        0.0593
     23 O          -0.1252   -0.4423   29.4244 O.3     1  UNL1       -0.4561
     24 C          -1.5216   -0.6161   28.9051 C.3     1  UNL1        0.2542
     25 C          -5.2764    5.0891   24.6452 C.2     1  UNL1        0.2414
     26 O          -4.4665    6.0558   23.8330 O.2     1  UNL1       -0.2733
     27 N          -4.5934    4.1539   25.5985 N.am    1  UNL1       -0.2682
     28 H          -5.1250    3.5194   26.1315 H       1  UNL1        0.1563
     29 C          -6.7694    5.0576   24.5039 C.3     1  UNL1        0.1319
     30 C          -7.6268    5.8821   25.4179 C.3     1  UNL1        0.0270
     31 C          -6.9494    4.3059   22.0235 C.3     1  UNL1        0.0862
     32 N          -7.4051    4.2017   23.4488 N.3     1  UNL1       -0.2902
     33 H          -7.2652    3.2320   23.7325 H       1  UNL1        0.1237
     34 C           0.0857    2.2723   24.3472 C.1     1  UNL1       -0.0404
     35 C           0.9323    1.3000   23.5804 C.1     1  UNL1       -0.0583
     36 C           1.7788    0.3277   22.8135 C.ar    1  UNL1        0.0421
     37 C           1.6480    0.2329   21.3223 C.ar    1  UNL1        0.0097
     38 C           2.4946   -0.7393   20.5555 C.ar    1  UNL1        0.0179
     39 C           3.4719   -1.6169   21.2800 C.ar    1  UNL1        0.0625
     40 C           3.6026   -1.5221   22.7712 C.ar    1  UNL1        0.0166
     41 C           4.5799   -2.3996   23.4957 C.ar    1  UNL1        0.0063
     42 C           5.4264   -3.3719   22.7289 C.ar    1  UNL1        0.0608
     43 C           5.2957   -3.4667   21.2376 C.ar    1  UNL1        0.2610
     44 O           6.1422   -4.4390   20.4708 O.2     1  UNL1       -0.2670
     45 N           4.3184   -2.5892   20.5131 N.ar    1  UNL1       -0.2935
     46 C           4.1877   -2.6840   19.0219 C.3     1  UNL1        0.1335
     47 C           2.7561   -0.5498   23.5380 C.ar    1  UNL1        0.0097
@<TRIPOS>BOND
     1    31    32    1
     2    32    29    1
     3    29    30    1
     4    29    25    1
     5    25    26    2
     6    25    27   am
     7    27     1    1
     8     1     2   ar
     9     2     3   ar
    10     3     4   ar
    11     4     7    1
    12     7     8   ar
    13     8    17    1
    14    17    18   ar
    15    18    19   ar
    16    19    20   ar
    17    20    21   ar
    18    21    23    1
    19    23    24    1
    20    21    22   ar
    21     8     9   ar
    22     9    10   ar
    23    10    11   ar
    24    11    12   ar
    25    12    13    1
    26    12    14   ar
    27    14    15   ar
    28    15    16   ar
    29     4     5   ar
    30     5    34    1
    31    34    35    3
    32    35    36    1
    33    36    37   ar
    34    37    38   ar
    35    38    39   ar
    36    39    40   ar
    37    40    41   ar
    38    41    42   ar
    39    42    43   ar
    40    43    44    2
    41    43    45   ar
    42    45    46    1
    43    40    47   ar
    44     5     6   ar
    45     6     1   ar
    46    16     7   ar
    47    47    36   ar
    48    22    17   ar
    49    16    10   ar
    50    45    39   ar
    51    32    33    1
    52    27    28    1
@<TRIPOS>MOLECULE
*****
 47 52 0 0 0
SMALL
GASTEIGER

@<TRIPOS>ATOM
      1 C           3.9799   -0.8688   30.1006 C.ar    1  UNL1        0.1348
      2 C           5.2488   -1.5112   30.5770 C.ar    1  UNL1        0.0346
      3 C           6.2434   -2.0346   29.5836 C.ar    1  UNL1        0.0065
      4 C           5.9690   -1.9156   28.1137 C.ar    1  UNL1        0.0432
      5 C           4.7000   -1.2732   27.6373 C.ar    1  UNL1        0.1256
      6 N           3.7055   -0.7498   28.6308 N.ar    1  UNL1       -0.2222
      7 C           6.9636   -2.4390   27.1203 C.ar    1  UNL1        0.0850
      8 C           7.9246   -1.6141   26.3166 C.ar    1  UNL1        0.0992
      9 N           8.7267   -2.5445   25.4557 N.ar    1  UNL1       -0.2265
     10 C           8.2614   -3.9443   25.7274 C.ar    1  UNL1        0.1474
     11 C           8.6891   -5.2700   25.1709 C.ar    1  UNL1        0.0332
     12 C           8.0271   -6.5304   25.6431 C.ar    1  UNL1       -0.0174
     13 C           8.4548   -7.8561   25.0867 C.3     1  UNL1        0.0312
     14 C           6.9374   -6.4653   26.6719 C.ar    1  UNL1        0.0149
     15 C           6.5097   -5.1397   27.2284 C.ar    1  UNL1        0.0811
     16 N           7.1717   -3.8791   26.7561 N.ar    1  UNL1       -0.2888
     17 C           8.0599   -0.1210   26.3652 C.ar    1  UNL1        0.0253
     18 C           8.7654    0.5310   27.5173 C.ar    1  UNL1        0.0224
     19 C           8.9007    2.0241   27.5660 C.ar    1  UNL1        0.1021
     20 N           8.3305    2.8652   26.4626 N.ar    1  UNL1       -0.2101
     21 C           7.6250    2.2132   25.3106 C.ar    1  UNL1        0.2250
     22 C           7.4897    0.7201   25.2619 C.ar    1  UNL1        0.0593
     23 O           7.0548    3.0542   24.2072 O.3     1  UNL1       -0.4561
     24 C           5.6182    2.8930   23.8070 C.3     1  UNL1        0.2542
     25 C           3.0153    1.0996   31.4952 C.2     1  UNL1        0.2414
     26 O           4.0400    2.0213   30.9030 O.2     1  UNL1       -0.2733
     27 N           2.9853   -0.3454   31.0940 N.am    1  UNL1       -0.2682
     28 H           2.3128   -0.9503   31.4827 H       1  UNL1        0.1563
     29 C           2.0208    1.6230   32.4887 C.3     1  UNL1        0.1319
     30 C           2.4610    1.9661   33.8810 C.3     1  UNL1        0.0270
     31 C           0.2219    1.9399   30.6411 C.3     1  UNL1        0.0862
     32 N           0.5861    1.8033   32.0898 N.3     1  UNL1       -0.2902
     33 H           0.0775    0.9941   32.4462 H       1  UNL1        0.1237
     34 C           4.4256   -1.1541   26.1674 C.1     1  UNL1       -0.0404
     35 C           4.1512   -1.0351   24.6976 C.1     1  UNL1       -0.0583
     36 C           3.8767   -0.9160   23.2276 C.ar    1  UNL1        0.0421
     37 C           2.7127   -0.1021   22.7455 C.ar    1  UNL1        0.0097
     38 C           2.4383    0.0169   21.2757 C.ar    1  UNL1        0.0179
     39 C           3.3279   -0.6780   20.2880 C.ar    1  UNL1        0.0625
     40 C           4.4919   -1.4920   20.7701 C.ar    1  UNL1        0.0166
     41 C           5.3816   -2.1869   19.7823 C.ar    1  UNL1        0.0063
     42 C           5.1072   -2.0679   18.3125 C.ar    1  UNL1        0.0608
     43 C           3.9431   -1.2539   17.8303 C.ar    1  UNL1        0.2610
     44 O           3.6687   -1.1349   16.3605 O.2     1  UNL1       -0.2670
     45 N           3.0535   -0.5590   18.8180 N.ar    1  UNL1       -0.2935
     46 C           1.8894    0.2549   18.3359 C.3     1  UNL1        0.1335
     47 C           4.7663   -1.6110   22.2399 C.ar    1  UNL1        0.0097
@<TRIPOS>BOND
     1    31    32    1
     2    32    29    1
     3    29    30    1
     4    29    25    1
     5    25    26    2
     6    25    27   am
     7    27     1    1
     8     1     2   ar
     9     2     3   ar
    10     3     4   ar
    11     4     7    1
    12     7     8   ar
    13     8    17    1
    14    17    18   ar
    15    18    19   ar
    16    19    20   ar
    17    20    21   ar
    18    21    23    1
    19    23    24    1
    20    21    22   ar
    21     8     9   ar
    22     9    10   ar
    23    10    11   ar
    24    11    12   ar
    25    12    13    1
    26    12    14   ar
    27    14    15   ar
    28    15    16   ar
    29     4     5   ar
    30     5    34    1
    31    34    35    3
    32    35    36    1
    33    36    37   ar
    34    37    38   ar
    35    38    39   ar
    36    39    40   ar
    37    40    41   ar
    38    41    42   ar
    39    42    43   ar
    40    43    44    2
    41    43    45   ar
    42    45    46    1
    43    40    47   ar
    44     5     6   ar
    45     6     1   ar
    46    16     7   ar
    47    47    36   ar
    48    22    17   ar
    49    16    10   ar
    50    45    39   ar
    51    32    33    1
    52    27    28    1
@<TRIPOS>MOLECULE
*****
 47 52 0 0 0
SMALL
GASTEIGER

@<TRIPOS>ATOM
      1 C          -2.8345    4.5141   23.2532 C.ar    1  UNL1        0.1348
      2 C          -2.5460    5.1433   24.5839 C.ar    1  UNL1        0.0346
      3 C          -1.3212    4.7442   25.3524 C.ar    1  UNL1        0.0065
      4 C          -0.3849    3.7160   24.7902 C.ar    1  UNL1        0.0432
      5 C          -0.6735    3.0868   23.4596 C.ar    1  UNL1        0.1256
      6 N          -1.8983    3.4858   22.6910 N.ar    1  UNL1       -0.2222
      7 C           0.8399    3.3170   25.5588 C.ar    1  UNL1        0.0850
      8 C           2.2260    3.8496   25.3471 C.ar    1  UNL1        0.0992
      9 N           3.1364    3.1771   26.3314 N.ar    1  UNL1       -0.2265
     10 C           2.3129    2.2287   27.1514 C.ar    1  UNL1        0.1474
     11 C           2.6721    1.2976   28.2713 C.ar    1  UNL1        0.0332
     12 C           1.6119    0.4529   28.9135 C.ar    1  UNL1       -0.0174
     13 C           1.9710   -0.4782   30.0334 C.3     1  UNL1        0.0312
     14 C           0.1925    0.5393   28.4361 C.ar    1  UNL1        0.0149
     15 C          -0.1666    1.4705   27.3162 C.ar    1  UNL1        0.0811
     16 N           0.8936    2.3152   26.6739 N.ar    1  UNL1       -0.2888
     17 C           2.6308    4.8749   24.3297 C.ar    1  UNL1        0.0253
     18 C           2.1921    6.3008   24.4864 C.ar    1  UNL1        0.0224
     19 C           2.5968    7.3261   23.4690 C.ar    1  UNL1        0.1021
     20 N           3.4402    6.9255   22.2950 N.ar    1  UNL1       -0.2101
     21 C           3.8789    5.4997   22.1384 C.ar    1  UNL1        0.2250
     22 C           3.4741    4.4744   23.1558 C.ar    1  UNL1        0.0593
     23 O           4.7223    5.0991   20.9645 O.3     1  UNL1       -0.4561
     24 C           5.2302    3.6923   20.8511 C.3     1  UNL1        0.2542
     25 C          -5.2161    3.9649   22.3721 C.2     1  UNL1        0.2414
     26 O          -5.1482    2.6176   23.0280 O.2     1  UNL1       -0.2733
     27 N          -4.0593    4.9131   22.4847 N.am    1  UNL1       -0.2682
     28 H          -4.1040    5.7974   22.0542 H       1  UNL1        0.1563
     29 C          -6.4409    4.3640   21.6036 C.3     1  UNL1        0.1319
     30 C          -6.4082    4.3961   20.1042 C.3     1  UNL1        0.0270
     31 C          -7.6854    4.8668   23.8281 C.3     1  UNL1        0.0862
     32 N          -7.6984    4.7308   22.3343 N.3     1  UNL1       -0.2902
     33 H          -8.0055    5.6285   21.9596 H       1  UNL1        0.1237
     34 C           0.2628    2.0585   22.8973 C.1     1  UNL1       -0.0404
     35 C           1.1990    1.0302   22.3351 C.1     1  UNL1       -0.0583
     36 C           2.1353    0.0019   21.7729 C.ar    1  UNL1        0.0421
     37 C           2.1948   -0.2282   20.2919 C.ar    1  UNL1        0.0097
     38 C           3.1311   -1.2565   19.7297 C.ar    1  UNL1        0.0179
     39 C           4.0078   -2.0546   20.6486 C.ar    1  UNL1        0.0625
     40 C           3.9483   -1.8245   22.1296 C.ar    1  UNL1        0.0166
     41 C           4.8250   -2.6227   23.0484 C.ar    1  UNL1        0.0063
     42 C           5.7613   -3.6509   22.4863 C.ar    1  UNL1        0.0608
     43 C           5.8208   -3.8811   21.0052 C.ar    1  UNL1        0.2610
     44 O           6.7571   -4.9093   20.4430 O.2     1  UNL1       -0.2670
     45 N           4.9441   -3.0829   20.0863 N.ar    1  UNL1       -0.2935
     46 C           5.0036   -3.3130   18.6053 C.3     1  UNL1        0.1335
     47 C           3.0120   -0.7963   22.6917 C.ar    1  UNL1        0.0097
@<TRIPOS>BOND
     1    31    32    1
     2    32    29    1
     3    29    30    1
     4    29    25    1
     5    25    26    2
     6    25    27   am
     7    27     1    1
     8     1     2   ar
     9     2     3   ar
    10     3     4   ar
    11     4     7    1
    12     7     8   ar
    13     8    17    1
    14    17    18   ar
    15    18    19   ar
    16    19    20   ar
    17    20    21   ar
    18    21    23    1
    19    23    24    1
    20    21    22   ar
    21     8     9   ar
    22     9    10   ar
    23    10    11   ar
    24    11    12   ar
    25    12    13    1
    26    12    14   ar
    27    14    15   ar
    28    15    16   ar
    29     4     5   ar
    30     5    34    1
    31    34    35    3
    32    35    36    1
    33    36    37   ar
    34    37    38   ar
    35    38    39   ar
    36    39    40   ar
    37    40    41   ar
    38    41    42   ar
    39    42    43   ar
    40    43    44    2
    41    43    45   ar
    42    45    46    1
    43    40    47   ar
    44     5     6   ar
    45     6     1   ar
    46    16     7   ar
    47    47    36   ar
    48    22    17   ar
    49    16    10   ar
    50    45    39   ar
    51    32    33    1
    52    27    28    1
@<TRIPOS>MOLECULE
*****
 47 52 0 0 0
SMALL
GASTEIGER

@<TRIPOS>ATOM
      1 C          -0.2113    1.7895   20.4643 C.ar    1  UNL1        0.1348
      2 C           0.2169    1.7777   19.0268 C.ar    1  UNL1        0.0346
      3 C           1.4858    1.0845   18.6278 C.ar    1  UNL1        0.0065
      4 C           2.3266    0.4031   19.6664 C.ar    1  UNL1        0.0432
      5 C           1.8985    0.4149   21.1039 C.ar    1  UNL1        0.1256
      6 N           0.6295    1.1081   21.5029 N.ar    1  UNL1       -0.2222
      7 C           3.5956   -0.2901   19.2674 C.ar    1  UNL1        0.0850
      8 C           4.8899    0.3778   18.9088 C.ar    1  UNL1        0.0992
      9 N           5.8873   -0.6923   18.5768 N.ar    1  UNL1       -0.2265
     10 C           5.2094   -2.0215   18.7302 C.ar    1  UNL1        0.1474
     11 C           5.6988   -3.4261   18.5364 C.ar    1  UNL1        0.0332
     12 C           4.7719   -4.5821   18.7694 C.ar    1  UNL1       -0.0174
     13 C           5.2613   -5.9867   18.5755 C.3     1  UNL1        0.0312
     14 C           3.3555   -4.3337   19.1962 C.ar    1  UNL1        0.0149
     15 C           2.8661   -2.9291   19.3901 C.ar    1  UNL1        0.0811
     16 N           3.7931   -1.7730   19.1570 N.ar    1  UNL1       -0.2888
     17 C           5.1426    1.8562   18.8862 C.ar    1  UNL1        0.0253
     18 C           5.4282    2.5485   17.5864 C.ar    1  UNL1        0.0224
     19 C           5.6808    4.0269   17.5638 C.ar    1  UNL1        0.1021
     20 N           5.6478    4.8130   18.8408 N.ar    1  UNL1       -0.2101
     21 C           5.3622    4.1208   20.1405 C.ar    1  UNL1        0.2250
     22 C           5.1096    2.6423   20.1631 C.ar    1  UNL1        0.0593
     23 O           5.3293    4.9069   21.4175 O.3     1  UNL1       -0.4561
     24 C           4.3375    4.5583   22.4875 C.3     1  UNL1        0.2542
     25 C          -1.4231    3.8155   21.5490 C.2     1  UNL1        0.2414
     26 O          -0.0970    4.4552   21.8359 O.2     1  UNL1       -0.2733
     27 N          -1.4803    2.4827   20.8633 N.am    1  UNL1       -0.2682
     28 H          -2.3506    2.0629   20.6751 H       1  UNL1        0.1563
     29 C          -2.6921    4.5088   21.9480 C.3     1  UNL1        0.1319
     30 C          -3.0005    5.8755   21.4122 C.3     1  UNL1        0.0270
     31 C          -4.8694    3.1465   22.3396 C.3     1  UNL1        0.0862
     32 N          -3.6526    3.8353   22.8827 N.3     1  UNL1       -0.2902
     33 H          -3.1205    3.1322   23.3955 H       1  UNL1        0.1237
     34 C           2.7393   -0.2666   22.1426 C.1     1  UNL1       -0.0404
     35 C           3.5801   -0.9480   23.1811 C.1     1  UNL1       -0.0583
     36 C           4.4210   -1.6295   24.2198 C.ar    1  UNL1        0.0421
     37 C           4.3728   -1.1665   25.6457 C.ar    1  UNL1        0.0097
     38 C           5.2136   -1.8479   26.6842 C.ar    1  UNL1        0.0179
     39 C           6.1026   -2.9924   26.2969 C.ar    1  UNL1        0.0625
     40 C           6.1507   -3.4553   24.8709 C.ar    1  UNL1        0.0166
     41 C           7.0396   -4.5998   24.4836 C.ar    1  UNL1        0.0063
     42 C           7.8804   -5.2812   25.5221 C.ar    1  UNL1        0.0608
     43 C           7.8323   -4.8182   26.9481 C.ar    1  UNL1        0.2610
     44 O           8.6731   -5.4997   27.9867 O.2     1  UNL1       -0.2670
     45 N           6.9434   -3.6738   27.3355 N.ar    1  UNL1       -0.2935
     46 C           6.8953   -3.2108   28.7614 C.3     1  UNL1        0.1335
     47 C           5.3099   -2.7739   23.8324 C.ar    1  UNL1        0.0097
@<TRIPOS>BOND
     1    31    32    1
     2    32    29    1
     3    29    30    1
     4    29    25    1
     5    25    26    2
     6    25    27   am
     7    27     1    1
     8     1     2   ar
     9     2     3   ar
    10     3     4   ar
    11     4     7    1
    12     7     8   ar
    13     8    17    1
    14    17    18   ar
    15    18    19   ar
    16    19    20   ar
    17    20    21   ar
    18    21    23    1
    19    23    24    1
    20    21    22   ar
    21     8     9   ar
    22     9    10   ar
    23    10    11   ar
    24    11    12   ar
    25    12    13    1
    26    12    14   ar
    27    14    15   ar
    28    15    16   ar
    29     4     5   ar
    30     5    34    1
    31    34    35    3
    32    35    36    1
    33    36    37   ar
    34    37    38   ar
    35    38    39   ar
    36    39    40   ar
    37    40    41   ar
    38    41    42   ar
    39    42    43   ar
    40    43    44    2
    41    43    45   ar
    42    45    46    1
    43    40    47   ar
    44     5     6   ar
    45     6     1   ar
    46    16     7   ar
    47    47    36   ar
    48    22    17   ar
    49    16    10   ar
    50    45    39   ar
    51    32    33    1
    52    27    28    1
@<TRIPOS>MOLECULE
*****
 47 52 0 0 0
SMALL
GASTEIGER

@<TRIPOS>ATOM
      1 C           6.9048   -2.7473   28.0477 C.ar    1  UNL1        0.1348
      2 C           7.7857   -3.0505   26.8721 C.ar    1  UNL1        0.0346
      3 C           7.4155   -2.5481   25.5081 C.ar    1  UNL1        0.0065
      4 C           6.1644   -1.7425   25.3197 C.ar    1  UNL1        0.0432
      5 C           5.2835   -1.4393   26.4953 C.ar    1  UNL1        0.1256
      6 N           5.6537   -1.9417   27.8593 N.ar    1  UNL1       -0.2222
      7 C           5.7941   -1.2400   23.9557 C.ar    1  UNL1        0.0850
      8 C           5.9212    0.1743   23.4726 C.ar    1  UNL1        0.0992
      9 N           5.4374    0.2247   22.0536 N.ar    1  UNL1       -0.2265
     10 C           5.0113   -1.1585   21.6598 C.ar    1  UNL1        0.1474
     11 C           4.4511   -1.7107   20.3826 C.ar    1  UNL1        0.0332
     12 C           4.1112   -3.1681   20.2810 C.ar    1  UNL1       -0.0174
     13 C           3.5510   -3.7203   19.0038 C.3     1  UNL1        0.0312
     14 C           4.3317   -4.0735   21.4565 C.ar    1  UNL1        0.0149
     15 C           4.8919   -3.5213   22.7337 C.ar    1  UNL1        0.0811
     16 N           5.2318   -2.0638   22.8353 N.ar    1  UNL1       -0.2888
     17 C           6.4409    1.3346   24.2686 C.ar    1  UNL1        0.0253
     18 C           7.9044    1.4331   24.5830 C.ar    1  UNL1        0.0224
     19 C           8.4240    2.5934   25.3790 C.ar    1  UNL1        0.1021
     20 N           7.4804    3.6552   25.8607 N.ar    1  UNL1       -0.2101
     21 C           6.0170    3.5567   25.5464 C.ar    1  UNL1        0.2250
     22 C           5.4973    2.3964   24.7503 C.ar    1  UNL1        0.0593
     23 O           5.0733    4.6184   26.0281 O.3     1  UNL1       -0.4561
     24 C           3.6434    4.2738   26.3221 C.3     1  UNL1        0.2542
     25 C           6.9013   -4.6424   29.8250 C.2     1  UNL1        0.2414
     26 O           6.1573   -5.5327   28.8742 O.2     1  UNL1       -0.2733
     27 N           7.2751   -3.2497   29.4117 N.am    1  UNL1       -0.2682
     28 H           7.7634   -2.6654   30.0357 H       1  UNL1        0.1563
     29 C           7.2716   -5.1448   31.1890 C.3     1  UNL1        0.1319
     30 C           8.4671   -6.0342   31.3616 C.3     1  UNL1        0.0270
     31 C           5.9040   -3.3641   32.4962 C.3     1  UNL1        0.0862
     32 N           6.4464   -4.7578   32.3803 N.3     1  UNL1       -0.2902
     33 H           5.6448   -5.3883   32.4006 H       1  UNL1        0.1237
     34 C           4.0322   -0.6336   26.3069 C.1     1  UNL1       -0.0404
     35 C           2.7811    0.1720   26.1185 C.1     1  UNL1       -0.0583
     36 C           1.5299    0.9777   25.9301 C.ar    1  UNL1        0.0421
     37 C           0.6286    1.2476   27.0983 C.ar    1  UNL1        0.0097
     38 C          -0.6225    2.0532   26.9099 C.ar    1  UNL1        0.0179
     39 C          -0.9724    2.5890   25.5532 C.ar    1  UNL1        0.0625
     40 C          -0.0712    2.3191   24.3850 C.ar    1  UNL1        0.0166
     41 C          -0.4210    2.8548   23.0283 C.ar    1  UNL1        0.0063
     42 C          -1.6722    3.6604   22.8399 C.ar    1  UNL1        0.0608
     43 C          -2.5735    3.9304   24.0082 C.ar    1  UNL1        0.2610
     44 O          -3.8247    4.7360   23.8197 O.2     1  UNL1       -0.2670
     45 N          -2.2236    3.3946   25.3648 N.ar    1  UNL1       -0.2935
     46 C          -3.1249    3.6645   26.5331 C.3     1  UNL1        0.1335
     47 C           1.1800    1.5135   24.5734 C.ar    1  UNL1        0.0097
@<TRIPOS>BOND
     1    31    32    1
     2    32    29    1
     3    29    30    1
     4    29    25    1
     5    25    26    2
     6    25    27   am
     7    27     1    1
     8     1     2   ar
     9     2     3   ar
    10     3     4   ar
    11     4     7    1
    12     7     8   ar
    13     8    17    1
    14    17    18   ar
    15    18    19   ar
    16    19    20   ar
    17    20    21   ar
    18    21    23    1
    19    23    24    1
    20    21    22   ar
    21     8     9   ar
    22     9    10   ar
    23    10    11   ar
    24    11    12   ar
    25    12    13    1
    26    12    14   ar
    27    14    15   ar
    28    15    16   ar
    29     4     5   ar
    30     5    34    1
    31    34    35    3
    32    35    36    1
    33    36    37   ar
    34    37    38   ar
    35    38    39   ar
    36    39    40   ar
    37    40    41   ar
    38    41    42   ar
    39    42    43   ar
    40    43    44    2
    41    43    45   ar
    42    45    46    1
    43    40    47   ar
    44     5     6   ar
    45     6     1   ar
    46    16     7   ar
    47    47    36   ar
    48    22    17   ar
    49    16    10   ar
    50    45    39   ar
    51    32    33    1
    52    27    28    1
@<TRIPOS>MOLECULE
*****
 47 52 0 0 0
SMALL
GASTEIGER

@<TRIPOS>ATOM
      1 C           2.3660    0.5850   24.9644 C.ar    1  UNL1        0.1348
      2 C           3.7652    0.4829   24.4338 C.ar    1  UNL1        0.0346
      3 C           4.0715    0.9300   23.0351 C.ar    1  UNL1        0.0065
      4 C           2.9785    1.4792   22.1670 C.ar    1  UNL1        0.0432
      5 C           1.5792    1.5813   22.6976 C.ar    1  UNL1        0.1256
      6 N           1.2730    1.1342   24.0963 N.ar    1  UNL1       -0.2222
      7 C           3.2848    1.9263   20.7683 C.ar    1  UNL1        0.0850
      8 C           3.7989    1.0586   19.6580 C.ar    1  UNL1        0.0992
      9 N           3.9626    1.9156   18.4378 N.ar    1  UNL1       -0.2265
     10 C           3.5496    3.3129   18.7941 C.ar    1  UNL1        0.1474
     11 C           3.5008    4.5802   17.9930 C.ar    1  UNL1        0.0332
     12 C           3.0332    5.8540   18.6323 C.ar    1  UNL1       -0.0174
     13 C           2.9844    7.1213   17.8312 C.3     1  UNL1        0.0312
     14 C           2.6143    5.8607   20.0726 C.ar    1  UNL1        0.0149
     15 C           2.6630    4.5934   20.8737 C.ar    1  UNL1        0.0811
     16 N           3.1307    3.3195   20.2344 N.ar    1  UNL1       -0.2888
     17 C           4.0971   -0.4085   19.7514 C.ar    1  UNL1        0.0253
     18 C           2.9928   -1.4103   19.5861 C.ar    1  UNL1        0.0224
     19 C           3.2910   -2.8774   19.6795 C.ar    1  UNL1        0.1021
     20 N           4.6933   -3.3427   19.9382 N.ar    1  UNL1       -0.2101
     21 C           5.7975   -2.3410   20.1034 C.ar    1  UNL1        0.2250
     22 C           5.4993   -0.8739   20.0100 C.ar    1  UNL1        0.0593
     23 O           7.1998   -2.8064   20.3621 O.3     1  UNL1       -0.4561
     24 C           7.4488   -3.9569   21.2917 C.3     1  UNL1        0.2542
     25 C           1.3366    1.0566   27.3027 C.2     1  UNL1        0.2414
     26 O           0.9198    2.4225   26.8437 O.2     1  UNL1       -0.2733
     27 N           2.0597    0.1379   26.3631 N.am    1  UNL1       -0.2682
     28 H           2.3333   -0.7586   26.6643 H       1  UNL1        0.1563
     29 C           1.0303    0.6095   28.7014 C.3     1  UNL1        0.1319
     30 C           1.5948    1.3620   29.8699 C.3     1  UNL1        0.0270
     31 C          -1.3252   -0.4857   28.7461 C.3     1  UNL1        0.0862
     32 N           0.1597   -0.5900   28.9317 N.3     1  UNL1       -0.2902
     33 H           0.4856   -1.3170   28.2949 H       1  UNL1        0.1237
     34 C           0.4861    2.1305   21.8295 C.1     1  UNL1       -0.0404
     35 C          -0.6069    2.6797   20.9614 C.1     1  UNL1       -0.0583
     36 C          -1.7000    3.2289   20.0932 C.ar    1  UNL1        0.0421
     37 C          -1.3675    3.8348   18.7620 C.ar    1  UNL1        0.0097
     38 C          -2.4606    4.3840   17.8940 C.ar    1  UNL1        0.0179
     39 C          -3.8862    4.3273   18.3572 C.ar    1  UNL1        0.0625
     40 C          -4.2186    3.7214   19.6884 C.ar    1  UNL1        0.0166
     41 C          -5.6442    3.6647   20.1516 C.ar    1  UNL1        0.0063
     42 C          -6.7373    4.2139   19.2836 C.ar    1  UNL1        0.0608
     43 C          -6.4048    4.8198   17.9523 C.ar    1  UNL1        0.2610
     44 O          -7.4979    5.3690   17.0842 O.2     1  UNL1       -0.2670
     45 N          -4.9793    4.8765   17.4891 N.ar    1  UNL1       -0.2935
     46 C          -4.6468    5.4824   16.1578 C.3     1  UNL1        0.1335
     47 C          -3.1256    3.1722   20.5565 C.ar    1  UNL1        0.0097
@<TRIPOS>BOND
     1    31    32    1
     2    32    29    1
     3    29    30    1
     4    29    25    1
     5    25    26    2
     6    25    27   am
     7    27     1    1
     8     1     2   ar
     9     2     3   ar
    10     3     4   ar
    11     4     7    1
    12     7     8   ar
    13     8    17    1
    14    17    18   ar
    15    18    19   ar
    16    19    20   ar
    17    20    21   ar
    18    21    23    1
    19    23    24    1
    20    21    22   ar
    21     8     9   ar
    22     9    10   ar
    23    10    11   ar
    24    11    12   ar
    25    12    13    1
    26    12    14   ar
    27    14    15   ar
    28    15    16   ar
    29     4     5   ar
    30     5    34    1
    31    34    35    3
    32    35    36    1
    33    36    37   ar
    34    37    38   ar
    35    38    39   ar
    36    39    40   ar
    37    40    41   ar
    38    41    42   ar
    39    42    43   ar
    40    43    44    2
    41    43    45   ar
    42    45    46    1
    43    40    47   ar
    44     5     6   ar
    45     6     1   ar
    46    16     7   ar
    47    47    36   ar
    48    22    17   ar
    49    16    10   ar
    50    45    39   ar
    51    32    33    1
    52    27    28    1
@<TRIPOS>MOLECULE
*****
 47 52 0 0 0
SMALL
GASTEIGER

@<TRIPOS>ATOM
      1 C          -2.8860    3.9473   25.1649 C.ar    1  UNL1        0.1348
      2 C          -2.3955    5.0638   26.0383 C.ar    1  UNL1        0.0346
      3 C          -0.9453    5.1407   26.4136 C.ar    1  UNL1        0.0065
      4 C           0.0145    4.1012   25.9156 C.ar    1  UNL1        0.0432
      5 C          -0.4760    2.9847   25.0422 C.ar    1  UNL1        0.1256
      6 N          -1.9263    2.9078   24.6669 N.ar    1  UNL1       -0.2222
      7 C           1.4647    4.1781   26.2909 C.ar    1  UNL1        0.0850
      8 C           2.0871    3.6014   27.5279 C.ar    1  UNL1        0.0992
      9 N           3.5542    3.9120   27.4967 N.ar    1  UNL1       -0.2265
     10 C           3.8386    4.6808   26.2404 C.ar    1  UNL1        0.1474
     11 C           5.1066    5.2523   25.6787 C.ar    1  UNL1        0.0332
     12 C           5.0832    5.9882   24.3719 C.ar    1  UNL1       -0.0174
     13 C           6.3512    6.5598   23.8102 C.3     1  UNL1        0.0312
     14 C           3.7918    6.1527   23.6267 C.ar    1  UNL1        0.0149
     15 C           2.5238    5.5812   24.1883 C.ar    1  UNL1        0.0811
     16 N           2.5472    4.8452   25.4953 N.ar    1  UNL1       -0.2888
     17 C           1.3685    2.8465   28.6067 C.ar    1  UNL1        0.0253
     18 C           0.7627    1.5069   28.3087 C.ar    1  UNL1        0.0224
     19 C           0.0441    0.7520   29.3875 C.ar    1  UNL1        0.1021
     20 N          -0.0687    1.3366   30.7642 N.ar    1  UNL1       -0.2101
     21 C           0.5371    2.6761   31.0622 C.ar    1  UNL1        0.2250
     22 C           1.2557    3.4310   29.9834 C.ar    1  UNL1        0.0593
     23 O           0.4243    3.2607   32.4390 O.3     1  UNL1       -0.4561
     24 C          -0.2132    4.6044   32.6334 C.3     1  UNL1        0.2542
     25 C          -4.8038    4.4383   23.4823 C.2     1  UNL1        0.2414
     26 O          -3.8210    5.0830   22.5503 O.2     1  UNL1       -0.2733
     27 N          -4.3363    3.8704   24.7896 N.am    1  UNL1       -0.2682
     28 H          -4.9813    3.4473   25.4012 H       1  UNL1        0.1563
     29 C          -6.2540    4.3614   23.1070 C.3     1  UNL1        0.1319
     30 C          -6.6543    4.3357   21.6615 C.3     1  UNL1        0.0270
     31 C          -8.2171    5.4812   24.3885 C.3     1  UNL1        0.0862
     32 N          -7.3040    4.3101   24.1770 N.3     1  UNL1       -0.2902
     33 H          -7.8979    3.5075   23.9684 H       1  UNL1        0.1237
     34 C           0.4838    1.9450   24.5441 C.1     1  UNL1       -0.0404
     35 C           1.4435    0.9054   24.0461 C.1     1  UNL1       -0.0583
     36 C           2.4033   -0.1342   23.5480 C.ar    1  UNL1        0.0421
     37 C           3.3542   -0.7952   24.5013 C.ar    1  UNL1        0.0097
     38 C           4.3139   -1.8348   24.0032 C.ar    1  UNL1        0.0179
     39 C           4.3227   -2.2134   22.5518 C.ar    1  UNL1        0.0625
     40 C           3.3718   -1.5524   21.5985 C.ar    1  UNL1        0.0166
     41 C           3.3806   -1.9310   20.1471 C.ar    1  UNL1        0.0063
     42 C           4.3403   -2.9706   19.6490 C.ar    1  UNL1        0.0608
     43 C           5.2913   -3.6317   20.6023 C.ar    1  UNL1        0.2610
     44 O           6.2510   -4.6713   20.1042 O.2     1  UNL1       -0.2670
     45 N           5.2825   -3.2531   22.0537 N.ar    1  UNL1       -0.2935
     46 C           6.2334   -3.9141   23.0070 C.3     1  UNL1        0.1335
     47 C           2.4121   -0.5128   22.0966 C.ar    1  UNL1        0.0097
@<TRIPOS>BOND
     1    31    32    1
     2    32    29    1
     3    29    30    1
     4    29    25    1
     5    25    26    2
     6    25    27   am
     7    27     1    1
     8     1     2   ar
     9     2     3   ar
    10     3     4   ar
    11     4     7    1
    12     7     8   ar
    13     8    17    1
    14    17    18   ar
    15    18    19   ar
    16    19    20   ar
    17    20    21   ar
    18    21    23    1
    19    23    24    1
    20    21    22   ar
    21     8     9   ar
    22     9    10   ar
    23    10    11   ar
    24    11    12   ar
    25    12    13    1
    26    12    14   ar
    27    14    15   ar
    28    15    16   ar
    29     4     5   ar
    30     5    34    1
    31    34    35    3
    32    35    36    1
    33    36    37   ar
    34    37    38   ar
    35    38    39   ar
    36    39    40   ar
    37    40    41   ar
    38    41    42   ar
    39    42    43   ar
    40    43    44    2
    41    43    45   ar
    42    45    46    1
    43    40    47   ar
    44     5     6   ar
    45     6     1   ar
    46    16     7   ar
    47    47    36   ar
    48    22    17   ar
    49    16    10   ar
    50    45    39   ar
    51    32    33    1
    52    27    28    1
@<TRIPOS>MOLECULE
*****
 47 52 0 0 0
SMALL
GASTEIGER

@<TRIPOS>ATOM
      1 C          -3.3166    6.3250   23.3200 C.ar    1  UNL1        0.1348
      2 C          -3.8504    7.1827   22.2113 C.ar    1  UNL1        0.0346
      3 C          -3.4415    6.9156   20.7930 C.ar    1  UNL1        0.0065
      4 C          -2.4987    5.7907   20.4835 C.ar    1  UNL1        0.0432
      5 C          -1.9649    4.9330   21.5923 C.ar    1  UNL1        0.1256
      6 N          -2.3739    5.2001   23.0105 N.ar    1  UNL1       -0.2222
      7 C          -2.0898    5.5236   19.0653 C.ar    1  UNL1        0.0850
      8 C          -2.9854    5.0316   17.9672 C.ar    1  UNL1        0.0992
      9 N          -2.1625    4.9054   16.7194 N.ar    1  UNL1       -0.2265
     10 C          -0.7584    5.3195   17.0463 C.ar    1  UNL1        0.1474
     11 C           0.4851    5.3980   16.2111 C.ar    1  UNL1        0.0332
     12 C           1.7736    5.8586   16.8257 C.ar    1  UNL1       -0.0174
     13 C           3.0171    5.9371   15.9905 C.3     1  UNL1        0.0312
     14 C           1.8186    6.2406   18.2756 C.ar    1  UNL1        0.0149
     15 C           0.5751    6.1621   19.1108 C.ar    1  UNL1        0.0811
     16 N          -0.7134    5.7015   18.4961 N.ar    1  UNL1       -0.2888
     17 C          -4.4472    4.7203   18.0945 C.ar    1  UNL1        0.0253
     18 C          -4.8919    3.5039   18.8513 C.ar    1  UNL1        0.0224
     19 C          -6.3537    3.1926   18.9786 C.ar    1  UNL1        0.1021
     20 N          -7.3708    4.0978   18.3492 N.ar    1  UNL1       -0.2101
     21 C          -6.9261    5.3142   17.5925 C.ar    1  UNL1        0.2250
     22 C          -5.4643    5.6254   17.4652 C.ar    1  UNL1        0.0593
     23 O          -7.9433    6.2193   16.9631 O.3     1  UNL1       -0.4561
     24 C          -7.9635    7.6791   17.3075 C.3     1  UNL1        0.2542
     25 C          -4.6552    5.6480   25.4412 C.2     1  UNL1        0.2414
     26 O          -5.1760    4.4366   24.7260 O.2     1  UNL1       -0.2733
     27 N          -3.7256    6.5921   24.7382 N.am    1  UNL1       -0.2682
     28 H          -3.3838    7.3871   25.2077 H       1  UNL1        0.1563
     29 C          -5.0642    5.9151   26.8595 C.3     1  UNL1        0.1319
     30 C          -6.5179    5.9429   27.2283 C.3     1  UNL1        0.0270
     31 C          -3.9868    7.4575   28.6511 C.3     1  UNL1        0.0862
     32 N          -4.0195    6.1545   27.9089 N.3     1  UNL1       -0.2902
     33 H          -4.1307    5.4201   28.6080 H       1  UNL1        0.1237
     34 C          -1.0221    3.8080   21.2828 C.1     1  UNL1       -0.0404
     35 C          -0.0794    2.6831   20.9733 C.1     1  UNL1       -0.0583
     36 C           0.8634    1.5582   20.6638 C.ar    1  UNL1        0.0421
     37 C           1.2311    0.5722   21.7327 C.ar    1  UNL1        0.0097
     38 C           2.1739   -0.5527   21.4232 C.ar    1  UNL1        0.0179
     39 C           2.7489   -0.6916   20.0447 C.ar    1  UNL1        0.0625
     40 C           2.3812    0.2944   18.9758 C.ar    1  UNL1        0.0166
     41 C           2.9562    0.1555   17.5974 C.ar    1  UNL1        0.0063
     42 C           3.8990   -0.9694   17.2879 C.ar    1  UNL1        0.0608
     43 C           4.2667   -1.9554   18.3568 C.ar    1  UNL1        0.2610
     44 O           5.2095   -3.0803   18.0473 O.2     1  UNL1       -0.2670
     45 N           3.6917   -1.8165   19.7353 N.ar    1  UNL1       -0.2935
     46 C           4.0594   -2.8025   20.8042 C.3     1  UNL1        0.1335
     47 C           1.4384    1.4193   19.2854 C.ar    1  UNL1        0.0097
@<TRIPOS>BOND
     1    31    32    1
     2    32    29    1
     3    29    30    1
     4    29    25    1
     5    25    26    2
     6    25    27   am
     7    27     1    1
     8     1     2   ar
     9     2     3   ar
    10     3     4   ar
    11     4     7    1
    12     7     8   ar
    13     8    17    1
    14    17    18   ar
    15    18    19   ar
    16    19    20   ar
    17    20    21   ar
    18    21    23    1
    19    23    24    1
    20    21    22   ar
    21     8     9   ar
    22     9    10   ar
    23    10    11   ar
    24    11    12   ar
    25    12    13    1
    26    12    14   ar
    27    14    15   ar
    28    15    16   ar
    29     4     5   ar
    30     5    34    1
    31    34    35    3
    32    35    36    1
    33    36    37   ar
    34    37    38   ar
    35    38    39   ar
    36    39    40   ar
    37    40    41   ar
    38    41    42   ar
    39    42    43   ar
    40    43    44    2
    41    43    45   ar
    42    45    46    1
    43    40    47   ar
    44     5     6   ar
    45     6     1   ar
    46    16     7   ar
    47    47    36   ar
    48    22    17   ar
    49    16    10   ar
    50    45    39   ar
    51    32    33    1
    52    27    28    1
