@<TRIPOS>MOLECULE
*****
 31 34 0 0 0
SMALL
GASTEIGER

@<TRIPOS>ATOM
      1 C         -17.3453   -1.2825   19.7429 C.3     1  UNL1        0.2068
      2 O         -15.9918   -0.8457   20.2197 O.3     1  UNL1       -0.4754
      3 C         -12.2854   -2.7561   18.5277 C.ar    1  UNL1       -0.0021
      4 C         -13.0572   -3.4473   19.6126 C.ar    1  UNL1        0.0005
      5 C         -14.2926   -2.8105   20.1765 C.ar    1  UNL1        0.0366
      6 C         -14.7564   -1.4825   19.6557 C.ar    1  UNL1        0.1385
      7 C         -13.9848   -0.7913   18.5710 C.ar    1  UNL1        0.0366
      8 C         -12.7493   -1.4281   18.0070 C.ar    1  UNL1        0.0005
      9 C         -11.0500   -3.3929   17.9638 C.3     1  UNL1        0.1201
     10 O          -9.2191   -5.0256   19.6906 O.2     1  UNL1       -0.2749
     11 C         -10.0701   -5.6979   18.6544 C.2     1  UNL1        0.2259
     12 C         -10.0058   -7.1865   18.4817 C.3     1  UNL1        0.0853
     13 C         -10.8568   -7.8588   17.4455 C.3     1  UNL1        0.0113
     14 C         -11.7723   -7.0425   16.5820 C.3     1  UNL1        0.0220
     15 C         -11.8367   -5.5539   16.7548 C.3     1  UNL1        0.0937
     16 N         -10.9856   -4.8816   17.7910 N.am    1  UNL1       -0.2754
     17 C         -17.6737   -1.2434   18.2798 C.3     1  UNL1        0.0646
     18 C         -17.9325   -2.5194   17.5349 C.3     1  UNL1        0.0759
     19 N         -17.1364   -3.7497   17.8555 N.3     1  UNL1       -0.2726
     20 C         -15.9549   -4.1201   17.0089 C.3     1  UNL1        0.0721
     21 C         -15.1588   -5.3504   17.3295 C.3     1  UNL1        0.0178
     22 C         -15.5444   -6.2103   18.4965 C.3     1  UNL1        0.0087
     23 C         -16.7260   -5.8397   19.3431 C.3     1  UNL1        0.0178
     24 C         -17.5220   -4.6095   19.0225 C.3     1  UNL1        0.0721
     25 C         -14.7484   -7.4405   18.8171 C.3     1  UNL1        0.0453
     26 C         -15.4279   -8.7758   18.8890 C.ar    1  UNL1        0.0541
     27 C         -16.4695   -9.1823   19.8890 C.ar    1  UNL1        0.1131
     28 N         -16.8705  -10.5967   19.5916 N.ar    1  UNL1       -0.2229
     29 C         -16.0767  -11.0644   18.4079 C.ar    1  UNL1        0.1748
     30 N         -15.1851   -9.9391   17.9737 N.ar    1  UNL1       -0.3382
     31 H         -14.5518   -9.9603   17.2202 H       1  UNL1        0.1672
@<TRIPOS>BOND
     1    10    11    2
     2    11    12    1
     3    12    13    1
     4    13    14    1
     5    14    15    1
     6    15    16    1
     7    16     9    1
     8     9     3    1
     9     3     4   ar
    10     4     5   ar
    11     5     6   ar
    12     6     2    1
    13     2     1    1
    14     1    17    1
    15    17    18    1
    16    18    19    1
    17    19    20    1
    18    20    21    1
    19    21    22    1
    20    22    25    1
    21    25    26    1
    22    26    27   ar
    23    27    28   ar
    24    28    29   ar
    25    29    30   ar
    26    22    23    1
    27    23    24    1
    28     6     7   ar
    29     7     8   ar
    30    16    11   am
    31     8     3   ar
    32    24    19    1
    33    30    26   ar
    34    30    31    1
@<TRIPOS>MOLECULE
*****
 31 34 0 0 0
SMALL
GASTEIGER

@<TRIPOS>ATOM
      1 C           8.8234   -5.2856   24.5833 C.3     1  UNL1        0.2068
      2 O           8.1359   -3.9816   24.3054 O.3     1  UNL1       -0.4754
      3 C           5.0388   -3.7195   21.0513 C.ar    1  UNL1       -0.0021
      4 C           6.4813   -3.9316   20.6985 C.ar    1  UNL1        0.0005
      5 C           7.5137   -4.0189   21.7832 C.ar    1  UNL1        0.0366
      6 C           7.1036   -3.8943   23.2207 C.ar    1  UNL1        0.1385
      7 C           5.6612   -3.6823   23.5735 C.ar    1  UNL1        0.0366
      8 C           4.6288   -3.5949   22.4887 C.ar    1  UNL1        0.0005
      9 C           4.0065   -3.6322   19.9666 C.3     1  UNL1        0.1201
     10 O           5.4893   -2.5770   17.5816 O.2     1  UNL1       -0.2749
     11 C           4.3816   -1.7712   18.1929 C.2     1  UNL1        0.2259
     12 C           4.0154   -0.4377   17.6117 C.3     1  UNL1        0.0853
     13 C           2.9078    0.3682   18.2230 C.3     1  UNL1        0.0113
     14 C           2.1664   -0.1594   19.4155 C.3     1  UNL1        0.0220
     15 C           2.5326   -1.4928   19.9967 C.3     1  UNL1        0.0937
     16 N           3.6403   -2.2987   19.3853 N.am    1  UNL1       -0.2754
     17 C           8.1366   -6.5793   24.2601 C.3     1  UNL1        0.0646
     18 C           7.5383   -7.4058   25.3596 C.3     1  UNL1        0.0759
     19 N           7.5732   -6.9097   26.7748 N.3     1  UNL1       -0.2726
     20 C           8.6270   -7.4084   27.7186 C.3     1  UNL1        0.0721
     21 C           8.6620   -6.9123   29.1338 C.3     1  UNL1        0.0178
     22 C           7.6431   -5.9175   29.6051 C.3     1  UNL1        0.0087
     23 C           6.5892   -5.4188   28.6613 C.3     1  UNL1        0.0178
     24 C           6.5543   -5.9149   27.2462 C.3     1  UNL1        0.0721
     25 C           7.6780   -5.4214   31.0203 C.3     1  UNL1        0.0453
     26 C           6.9884   -4.1396   31.3828 C.ar    1  UNL1        0.0541
     27 C           7.2462   -2.7954   30.7689 C.ar    1  UNL1        0.1131
     28 N           6.3371   -1.8021   31.4296 N.ar    1  UNL1       -0.2229
     29 C           5.5175   -2.5322   32.4519 C.ar    1  UNL1        0.1748
     30 N           5.9200   -3.9769   32.4230 N.ar    1  UNL1       -0.3382
     31 H           5.5482   -4.6926   32.9876 H       1  UNL1        0.1672
@<TRIPOS>BOND
     1    10    11    2
     2    11    12    1
     3    12    13    1
     4    13    14    1
     5    14    15    1
     6    15    16    1
     7    16     9    1
     8     9     3    1
     9     3     4   ar
    10     4     5   ar
    11     5     6   ar
    12     6     2    1
    13     2     1    1
    14     1    17    1
    15    17    18    1
    16    18    19    1
    17    19    20    1
    18    20    21    1
    19    21    22    1
    20    22    25    1
    21    25    26    1
    22    26    27   ar
    23    27    28   ar
    24    28    29   ar
    25    29    30   ar
    26    22    23    1
    27    23    24    1
    28     6     7   ar
    29     7     8   ar
    30    16    11   am
    31     8     3   ar
    32    24    19    1
    33    30    26   ar
    34    30    31    1
@<TRIPOS>MOLECULE
*****
 31 34 0 0 0
SMALL
GASTEIGER

@<TRIPOS>ATOM
      1 C           0.8264    2.8897   18.2762 C.3     1  UNL1        0.2068
      2 O           0.5846    1.4093   18.2898 O.3     1  UNL1       -0.4754
      3 C           3.9178   -1.4051   19.3938 C.ar    1  UNL1       -0.0021
      4 C           2.5589   -1.5752   20.0058 C.ar    1  UNL1        0.0005
      5 C           1.4478   -0.6371   19.6378 C.ar    1  UNL1        0.0366
      6 C           1.6956    0.4712   18.6578 C.ar    1  UNL1        0.1385
      7 C           3.0545    0.6413   18.0458 C.ar    1  UNL1        0.0366
      8 C           4.1656   -0.2968   18.4138 C.ar    1  UNL1        0.0005
      9 C           5.0289   -2.3432   19.7618 C.3     1  UNL1        0.1201
     10 O           4.1796   -4.6217   21.5189 O.2     1  UNL1       -0.2749
     11 C           5.0855   -3.5551   22.0592 C.2     1  UNL1        0.2259
     12 C           5.5667   -3.6278   23.4780 C.3     1  UNL1        0.0853
     13 C           6.4725   -2.5613   24.0183 C.3     1  UNL1        0.0113
     14 C           6.8971   -1.4220   23.1398 C.3     1  UNL1        0.0220
     15 C           6.4159   -1.3494   21.7210 C.3     1  UNL1        0.0937
     16 N           5.5101   -2.4159   21.1807 N.am    1  UNL1       -0.2754
     17 C           0.6912    3.6834   19.5418 C.3     1  UNL1        0.0646
     18 C           1.8483    3.7844   20.4909 C.3     1  UNL1        0.0759
     19 N           2.1861    2.6300   21.3873 N.3     1  UNL1       -0.2726
     20 C           3.6059    2.1604   21.5027 C.3     1  UNL1        0.0721
     21 C           3.9437    1.0061   22.3991 C.3     1  UNL1        0.0178
     22 C           2.8614    0.3214   23.1801 C.3     1  UNL1        0.0087
     23 C           1.4415    0.7910   23.0647 C.3     1  UNL1        0.0178
     24 C           1.1038    1.9453   22.1683 C.3     1  UNL1        0.0721
     25 C           3.1991   -0.8329   24.0765 C.3     1  UNL1        0.0453
     26 C           3.4299   -0.6029   25.5407 C.ar    1  UNL1        0.0541
     27 C           3.5263    0.7315   26.2192 C.ar    1  UNL1        0.1131
     28 N           3.7608    0.4922   27.6812 N.ar    1  UNL1       -0.2229
     29 C           3.8093   -0.9900   27.9064 C.ar    1  UNL1        0.1748
     30 N           3.6048   -1.6668   26.5835 N.ar    1  UNL1       -0.3382
     31 H           3.5883   -2.6387   26.4272 H       1  UNL1        0.1672
@<TRIPOS>BOND
     1    10    11    2
     2    11    12    1
     3    12    13    1
     4    13    14    1
     5    14    15    1
     6    15    16    1
     7    16     9    1
     8     9     3    1
     9     3     4   ar
    10     4     5   ar
    11     5     6   ar
    12     6     2    1
    13     2     1    1
    14     1    17    1
    15    17    18    1
    16    18    19    1
    17    19    20    1
    18    20    21    1
    19    21    22    1
    20    22    25    1
    21    25    26    1
    22    26    27   ar
    23    27    28   ar
    24    28    29   ar
    25    29    30   ar
    26    22    23    1
    27    23    24    1
    28     6     7   ar
    29     7     8   ar
    30    16    11   am
    31     8     3   ar
    32    24    19    1
    33    30    26   ar
    34    30    31    1
@<TRIPOS>MOLECULE
*****
 31 34 0 0 0
SMALL
GASTEIGER

@<TRIPOS>ATOM
      1 C          -0.6366    2.8280   21.8768 C.3     1  UNL1        0.2068
      2 O          -0.8706    2.0508   20.6153 O.3     1  UNL1       -0.4754
      3 C           2.4836   -0.3220   18.7797 C.ar    1  UNL1       -0.0021
      4 C           1.6515   -0.9223   19.8739 C.ar    1  UNL1        0.0005
      5 C           0.5334   -0.1314   20.4858 C.ar    1  UNL1        0.0366
      6 C           0.2475    1.2598   20.0035 C.ar    1  UNL1        0.1385
      7 C           1.0795    1.8602   18.9093 C.ar    1  UNL1        0.0366
      8 C           2.1976    1.0693   18.2974 C.ar    1  UNL1        0.0005
      9 C           3.6016   -1.1129   18.1678 C.3     1  UNL1        0.1201
     10 O           3.1882   -3.9697   18.9850 O.2     1  UNL1       -0.2749
     11 C           4.4006   -3.2227   19.4563 C.2     1  UNL1        0.2259
     12 C           5.4063   -3.9042   20.3362 C.3     1  UNL1        0.0853
     13 C           6.6187   -3.1572   20.8075 C.3     1  UNL1        0.0113
     14 C           6.8254   -1.7288   20.3989 C.3     1  UNL1        0.0220
     15 C           5.8197   -1.0474   19.5191 C.3     1  UNL1        0.0937
     16 N           4.6073   -1.7944   19.0478 N.am    1  UNL1       -0.2754
     17 C           0.4563    3.8538   21.9339 C.3     1  UNL1        0.0646
     18 C           1.6770    3.6034   22.7688 C.3     1  UNL1        0.0759
     19 N           2.2589    2.2233   22.8515 N.3     1  UNL1       -0.2726
     20 C           3.4301    1.8504   21.9918 C.3     1  UNL1        0.0721
     21 C           4.0120    0.4703   22.0745 C.3     1  UNL1        0.0178
     22 C           3.4226   -0.5369   23.0170 C.3     1  UNL1        0.0087
     23 C           2.2513   -0.1639   23.8768 C.3     1  UNL1        0.0178
     24 C           1.6695    1.2161   23.7940 C.3     1  UNL1        0.0721
     25 C           4.0044   -1.9169   23.0998 C.3     1  UNL1        0.0453
     26 C           4.9465   -2.2681   24.2129 C.ar    1  UNL1        0.0541
     27 C           5.2547   -1.4167   25.4089 C.ar    1  UNL1        0.1131
     28 N           6.2444   -2.1547   26.2606 N.ar    1  UNL1       -0.2229
     29 C           6.5480   -3.4623   25.5912 C.ar    1  UNL1        0.1748
     30 N           5.7458   -3.5324   24.3257 N.ar    1  UNL1       -0.3382
     31 H           5.7443   -4.2774   23.6821 H       1  UNL1        0.1672
@<TRIPOS>BOND
     1    10    11    2
     2    11    12    1
     3    12    13    1
     4    13    14    1
     5    14    15    1
     6    15    16    1
     7    16     9    1
     8     9     3    1
     9     3     4   ar
    10     4     5   ar
    11     5     6   ar
    12     6     2    1
    13     2     1    1
    14     1    17    1
    15    17    18    1
    16    18    19    1
    17    19    20    1
    18    20    21    1
    19    21    22    1
    20    22    25    1
    21    25    26    1
    22    26    27   ar
    23    27    28   ar
    24    28    29   ar
    25    29    30   ar
    26    22    23    1
    27    23    24    1
    28     6     7   ar
    29     7     8   ar
    30    16    11   am
    31     8     3   ar
    32    24    19    1
    33    30    26   ar
    34    30    31    1
@<TRIPOS>MOLECULE
*****
 31 34 0 0 0
SMALL
GASTEIGER

@<TRIPOS>ATOM
      1 C           7.9378   -4.3078   21.1381 C.3     1  UNL1        0.2068
      2 O           6.5954   -4.6629   20.5706 O.3     1  UNL1       -0.4754
      3 C           4.3227   -1.6531   18.1158 C.ar    1  UNL1       -0.0021
      4 C           5.8227   -1.6396   18.1186 C.ar    1  UNL1        0.0005
      5 C           6.5802   -2.6428   18.9369 C.ar    1  UNL1        0.0366
      6 C           5.8379   -3.6596   19.7523 C.ar    1  UNL1        0.1385
      7 C           4.3380   -3.6732   19.7495 C.ar    1  UNL1        0.0366
      8 C           3.5804   -2.6699   18.9313 C.ar    1  UNL1        0.0005
      9 C           3.5652   -0.6499   17.2976 C.3     1  UNL1        0.1201
     10 O           5.2043    1.7142   18.1488 O.2     1  UNL1       -0.2749
     11 C           3.7244    1.7008   18.3926 C.2     1  UNL1        0.2259
     12 C           3.0640    2.8695   19.0620 C.3     1  UNL1        0.0853
     13 C           1.5840    2.8561   19.3058 C.3     1  UNL1        0.0113
     14 C           0.7644    1.6741   18.8802 C.3     1  UNL1        0.0220
     15 C           1.4248    0.5055   18.2108 C.3     1  UNL1        0.0937
     16 N           2.9048    0.5189   17.9670 N.am    1  UNL1       -0.2754
     17 C           8.0907   -4.0721   22.6115 C.3     1  UNL1        0.0646
     18 C           7.7431   -2.7357   23.1972 C.3     1  UNL1        0.0759
     19 N           6.4590   -2.0606   22.8158 N.3     1  UNL1       -0.2726
     20 C           5.1485   -2.6266   23.2765 C.3     1  UNL1        0.0721
     21 C           3.8644   -1.9515   22.8951 C.3     1  UNL1        0.0178
     22 C           3.8909   -0.7105   22.0529 C.3     1  UNL1        0.0087
     23 C           5.2015   -0.1445   21.5922 C.3     1  UNL1        0.0178
     24 C           6.4855   -0.8196   21.9737 C.3     1  UNL1        0.0721
     25 C           2.6069   -0.0354   21.6715 C.3     1  UNL1        0.0453
     26 C           1.9277    0.8865   22.6404 C.ar    1  UNL1        0.0541
     27 C           2.5267    1.4389   23.8998 C.ar    1  UNL1        0.1131
     28 N           1.4995    2.3116   24.5577 N.ar    1  UNL1       -0.2229
     29 C           0.2656    2.2988   23.7049 C.ar    1  UNL1        0.1748
     30 N           0.5302    1.4180   22.5200 N.ar    1  UNL1       -0.3382
     31 H          -0.1023    1.2230   21.7911 H       1  UNL1        0.1672
@<TRIPOS>BOND
     1    10    11    2
     2    11    12    1
     3    12    13    1
     4    13    14    1
     5    14    15    1
     6    15    16    1
     7    16     9    1
     8     9     3    1
     9     3     4   ar
    10     4     5   ar
    11     5     6   ar
    12     6     2    1
    13     2     1    1
    14     1    17    1
    15    17    18    1
    16    18    19    1
    17    19    20    1
    18    20    21    1
    19    21    22    1
    20    22    25    1
    21    25    26    1
    22    26    27   ar
    23    27    28   ar
    24    28    29   ar
    25    29    30   ar
    26    22    23    1
    27    23    24    1
    28     6     7   ar
    29     7     8   ar
    30    16    11   am
    31     8     3   ar
    32    24    19    1
    33    30    26   ar
    34    30    31    1
@<TRIPOS>MOLECULE
*****
 31 34 0 0 0
SMALL
GASTEIGER

@<TRIPOS>ATOM
      1 C         -16.3411    0.4825   19.7493 C.3     1  UNL1        0.2068
      2 O         -15.9370   -0.8876   20.2072 O.3     1  UNL1       -0.4754
      3 C         -12.0532   -2.6747   18.8028 C.ar    1  UNL1       -0.0021
      4 C         -12.8535   -3.3628   19.8687 C.ar    1  UNL1        0.0005
      5 C         -14.1481   -2.7671   20.3368 C.ar    1  UNL1        0.0366
      6 C         -14.6424   -1.4833   19.7391 C.ar    1  UNL1        0.1385
      7 C         -13.8422   -0.7951   18.6732 C.ar    1  UNL1        0.0366
      8 C         -12.5476   -1.3908   18.2051 C.ar    1  UNL1        0.0005
      9 C         -10.7587   -3.2704   18.3347 C.3     1  UNL1        0.1201
     10 O         -12.2234   -4.6688   16.1213 O.2     1  UNL1       -0.2749
     11 C         -11.3642   -5.4554   17.0663 C.2     1  UNL1        0.2259
     12 C         -11.2374   -6.9413   16.9046 C.3     1  UNL1        0.0853
     13 C         -10.3782   -7.7279   17.8495 C.3     1  UNL1        0.0113
     14 C          -9.6458   -7.0288   18.9562 C.3     1  UNL1        0.0220
     15 C          -9.7726   -5.5429   19.1179 C.3     1  UNL1        0.0937
     16 N         -10.6319   -4.7563   18.1729 N.am    1  UNL1       -0.2754
     17 C         -17.2785    1.3056   20.5824 C.3     1  UNL1        0.0646
     18 C         -17.1181    2.7958   20.6409 C.3     1  UNL1        0.0759
     19 N         -16.4799    3.4350   21.8385 N.3     1  UNL1       -0.2726
     20 C         -15.2266    4.2434   21.6785 C.3     1  UNL1        0.0721
     21 C         -14.5884    4.8826   22.8761 C.3     1  UNL1        0.0178
     22 C         -15.2036    4.7134   24.2336 C.3     1  UNL1        0.0087
     23 C         -16.4570    3.9050   24.3936 C.3     1  UNL1        0.0178
     24 C         -17.0951    3.2658   23.1960 C.3     1  UNL1        0.0721
     25 C         -14.5655    5.3526   25.4312 C.3     1  UNL1        0.0453
     26 C         -15.3899    5.6589   26.6463 C.ar    1  UNL1        0.0541
     27 C         -16.2878    6.8470   26.8261 C.ar    1  UNL1        0.1131
     28 N         -16.9139    6.7533   28.1859 N.ar    1  UNL1       -0.2229
     29 C         -16.4031    5.5073   28.8465 C.ar    1  UNL1        0.1748
     30 N         -15.4612    4.8309   27.8951 N.ar    1  UNL1       -0.3382
     31 H         -14.9751    3.9910   28.0610 H       1  UNL1        0.1672
@<TRIPOS>BOND
     1    10    11    2
     2    11    12    1
     3    12    13    1
     4    13    14    1
     5    14    15    1
     6    15    16    1
     7    16     9    1
     8     9     3    1
     9     3     4   ar
    10     4     5   ar
    11     5     6   ar
    12     6     2    1
    13     2     1    1
    14     1    17    1
    15    17    18    1
    16    18    19    1
    17    19    20    1
    18    20    21    1
    19    21    22    1
    20    22    25    1
    21    25    26    1
    22    26    27   ar
    23    27    28   ar
    24    28    29   ar
    25    29    30   ar
    26    22    23    1
    27    23    24    1
    28     6     7   ar
    29     7     8   ar
    30    16    11   am
    31     8     3   ar
    32    24    19    1
    33    30    26   ar
    34    30    31    1
@<TRIPOS>MOLECULE
*****
 31 34 0 0 0
SMALL
GASTEIGER

@<TRIPOS>ATOM
      1 C          -0.9340    3.9931   20.9177 C.3     1  UNL1        0.2068
      2 O          -1.1361    2.5210   20.7119 O.3     1  UNL1       -0.4754
      3 C           2.2137   -0.0041   19.0833 C.ar    1  UNL1       -0.0021
      4 C           2.0510    1.4141   18.6223 C.ar    1  UNL1        0.0005
      5 C           0.9344    2.2557   19.1652 C.ar    1  UNL1        0.0366
      6 C          -0.0195    1.6793   20.1690 C.ar    1  UNL1        0.1385
      7 C           0.1430    0.2612   20.6300 C.ar    1  UNL1        0.0366
      8 C           1.2597   -0.5805   20.0871 C.ar    1  UNL1        0.0005
      9 C           3.3302   -0.8458   18.5404 C.3     1  UNL1        0.1201
     10 O           5.5115    0.0453   20.3973 O.2     1  UNL1       -0.2749
     11 C           5.1065   -1.3983   20.3542 C.2     1  UNL1        0.2259
     12 C           5.7921   -2.3964   21.2394 C.3     1  UNL1        0.0853
     13 C           5.3871   -3.8400   21.1963 C.3     1  UNL1        0.0113
     14 C           4.2965   -4.2856   20.2679 C.3     1  UNL1        0.0220
     15 C           3.6109   -3.2876   19.3826 C.3     1  UNL1        0.0937
     16 N           4.0159   -1.8439   19.4257 N.am    1  UNL1       -0.2754
     17 C          -0.7851    4.5429   22.3053 C.3     1  UNL1        0.0646
     18 C           0.5329    4.4426   23.0143 C.3     1  UNL1        0.0759
     19 N           1.2086    3.1109   23.1565 N.3     1  UNL1       -0.2726
     20 C           0.5698    2.0295   23.9765 C.3     1  UNL1        0.0721
     21 C           1.2455    0.6978   24.1187 C.3     1  UNL1        0.0178
     22 C           2.5600    0.4477   23.4409 C.3     1  UNL1        0.0087
     23 C           3.1988    1.5292   22.6208 C.3     1  UNL1        0.0178
     24 C           2.5231    2.8607   22.4787 C.3     1  UNL1        0.0721
     25 C           3.2358   -0.8839   23.5830 C.3     1  UNL1        0.0453
     26 C           4.1015   -1.1620   24.7760 C.ar    1  UNL1        0.0541
     27 C           5.5996   -1.0951   24.8130 C.ar    1  UNL1        0.1131
     28 N           6.0452   -1.4476   26.2012 N.ar    1  UNL1       -0.2229
     29 C           4.8225   -1.7324   27.0221 C.ar    1  UNL1        0.1748
     30 N           3.6213   -1.5559   26.1413 N.ar    1  UNL1       -0.3382
     31 H           2.6825   -1.6773   26.4119 H       1  UNL1        0.1672
@<TRIPOS>BOND
     1    10    11    2
     2    11    12    1
     3    12    13    1
     4    13    14    1
     5    14    15    1
     6    15    16    1
     7    16     9    1
     8     9     3    1
     9     3     4   ar
    10     4     5   ar
    11     5     6   ar
    12     6     2    1
    13     2     1    1
    14     1    17    1
    15    17    18    1
    16    18    19    1
    17    19    20    1
    18    20    21    1
    19    21    22    1
    20    22    25    1
    21    25    26    1
    22    26    27   ar
    23    27    28   ar
    24    28    29   ar
    25    29    30   ar
    26    22    23    1
    27    23    24    1
    28     6     7   ar
    29     7     8   ar
    30    16    11   am
    31     8     3   ar
    32    24    19    1
    33    30    26   ar
    34    30    31    1
@<TRIPOS>MOLECULE
*****
 31 34 0 0 0
SMALL
GASTEIGER

@<TRIPOS>ATOM
      1 C         -16.5714    0.3903   19.7067 C.3     1  UNL1        0.2068
      2 O         -16.0811   -0.9349   20.2100 O.3     1  UNL1       -0.4754
      3 C         -12.1464   -2.5739   18.7671 C.ar    1  UNL1       -0.0021
      4 C         -12.9257   -3.3095   19.8167 C.ar    1  UNL1        0.0005
      5 C         -14.2372   -2.7632   20.2977 C.ar    1  UNL1        0.0366
      6 C         -14.7695   -1.4813   19.7291 C.ar    1  UNL1        0.1385
      7 C         -13.9903   -0.7457   18.6795 C.ar    1  UNL1        0.0366
      8 C         -12.6787   -1.2920   18.1984 C.ar    1  UNL1        0.0005
      9 C         -10.8349   -3.1202   18.2861 C.3     1  UNL1        0.1201
     10 O         -12.2103   -4.6900   16.1311 O.2     1  UNL1       -0.2749
     11 C         -11.3173   -5.3880   17.1136 C.2     1  UNL1        0.2259
     12 C         -11.1121   -6.8708   17.0187 C.3     1  UNL1        0.0853
     13 C         -10.2191   -7.5688   18.0012 C.3     1  UNL1        0.0113
     14 C          -9.5314   -6.7839   19.0787 C.3     1  UNL1        0.0220
     15 C          -9.7366   -5.3011   19.1736 C.3     1  UNL1        0.0937
     16 N         -10.6296   -4.6031   18.1911 N.am    1  UNL1       -0.2754
     17 C         -17.5551    1.1826   20.5158 C.3     1  UNL1        0.0646
     18 C         -17.4701    2.6799   20.5433 C.3     1  UNL1        0.0759
     19 N         -16.6886    3.3671   21.6237 N.3     1  UNL1       -0.2726
     20 C         -17.1636    3.3094   23.0453 C.3     1  UNL1        0.0721
     21 C         -16.3822    3.9966   24.1257 C.3     1  UNL1        0.0178
     22 C         -15.1257    4.7414   23.7844 C.3     1  UNL1        0.0087
     23 C         -14.6507    4.7991   22.3627 C.3     1  UNL1        0.0178
     24 C         -15.4322    4.1119   21.2824 C.3     1  UNL1        0.0721
     25 C         -14.3443    5.4286   24.8647 C.3     1  UNL1        0.0453
     26 C         -12.8455    5.4508   24.8077 C.ar    1  UNL1        0.0541
     27 C         -11.9885    6.6664   24.6121 C.ar    1  UNL1        0.1131
     28 N         -10.5541    6.2282   24.6198 N.ar    1  UNL1       -0.2229
     29 C         -10.5244    4.7420   24.8202 C.ar    1  UNL1        0.1748
     30 N         -11.9406    4.2615   24.9363 N.ar    1  UNL1       -0.3382
     31 H         -12.2260    3.3292   25.0729 H       1  UNL1        0.1672
@<TRIPOS>BOND
     1    10    11    2
     2    11    12    1
     3    12    13    1
     4    13    14    1
     5    14    15    1
     6    15    16    1
     7    16     9    1
     8     9     3    1
     9     3     4   ar
    10     4     5   ar
    11     5     6   ar
    12     6     2    1
    13     2     1    1
    14     1    17    1
    15    17    18    1
    16    18    19    1
    17    19    20    1
    18    20    21    1
    19    21    22    1
    20    22    25    1
    21    25    26    1
    22    26    27   ar
    23    27    28   ar
    24    28    29   ar
    25    29    30   ar
    26    22    23    1
    27    23    24    1
    28     6     7   ar
    29     7     8   ar
    30    16    11   am
    31     8     3   ar
    32    24    19    1
    33    30    26   ar
    34    30    31    1
@<TRIPOS>MOLECULE
*****
 31 34 0 0 0
SMALL
GASTEIGER

@<TRIPOS>ATOM
      1 C           4.3602   -2.0130   17.9008 C.3     1  UNL1        0.2068
      2 O           4.0336   -3.0381   18.9461 O.3     1  UNL1       -0.4754
      3 C           6.8404   -3.7033   22.3999 C.ar    1  UNL1       -0.0021
      4 C           5.3671   -3.9223   22.5778 C.ar    1  UNL1        0.0005
      5 C           4.4315   -3.7006   21.4265 C.ar    1  UNL1        0.0366
      6 C           4.9691   -3.2598   20.0973 C.ar    1  UNL1        0.1385
      7 C           6.4423   -3.0408   19.9194 C.ar    1  UNL1        0.0366
      8 C           7.3780   -3.2626   21.0707 C.ar    1  UNL1        0.0005
      9 C           7.7760   -3.9250   23.5511 C.3     1  UNL1        0.1201
     10 O           8.7602   -6.6224   22.6819 O.2     1  UNL1       -0.2749
     11 C           8.0862   -6.4630   24.0125 C.2     1  UNL1        0.2259
     12 C           7.9044   -7.6521   24.9084 C.3     1  UNL1        0.0853
     13 C           7.2304   -7.4926   26.2390 C.3     1  UNL1        0.0113
     14 C           6.7383   -6.1440   26.6736 C.3     1  UNL1        0.0220
     15 C           6.9202   -4.9548   25.7777 C.3     1  UNL1        0.0937
     16 N           7.5941   -5.1143   24.4471 N.am    1  UNL1       -0.2754
     17 C           3.6607   -0.6861   17.9071 C.3     1  UNL1        0.0646
     18 C           4.0462    0.3601   18.9105 C.3     1  UNL1        0.0759
     19 N           3.9946    0.0481   20.3769 N.3     1  UNL1       -0.2726
     20 C           5.2299    0.1849   21.2166 C.3     1  UNL1        0.0721
     21 C           5.1784   -0.1270   22.6830 C.3     1  UNL1        0.0178
     22 C           3.8915   -0.5758   23.3095 C.3     1  UNL1        0.0087
     23 C           2.6561   -0.7126   22.4696 C.3     1  UNL1        0.0178
     24 C           2.7077   -0.4006   21.0034 C.3     1  UNL1        0.0721
     25 C           3.8399   -0.8878   24.7757 C.3     1  UNL1        0.0453
     26 C           3.2050    0.0827   25.7271 C.ar    1  UNL1        0.0541
     27 C           3.9049    0.8259   26.8262 C.ar    1  UNL1        0.1131
     28 N           2.8912    1.6828   27.5247 N.ar    1  UNL1       -0.2229
     29 C           1.5650    1.4694   26.8574 C.ar    1  UNL1        0.1748
     30 N           1.7589    0.4805   25.7464 N.ar    1  UNL1       -0.3382
     31 H           1.0597    0.1504   25.1368 H       1  UNL1        0.1672
@<TRIPOS>BOND
     1    10    11    2
     2    11    12    1
     3    12    13    1
     4    13    14    1
     5    14    15    1
     6    15    16    1
     7    16     9    1
     8     9     3    1
     9     3     4   ar
    10     4     5   ar
    11     5     6   ar
    12     6     2    1
    13     2     1    1
    14     1    17    1
    15    17    18    1
    16    18    19    1
    17    19    20    1
    18    20    21    1
    19    21    22    1
    20    22    25    1
    21    25    26    1
    22    26    27   ar
    23    27    28   ar
    24    28    29   ar
    25    29    30   ar
    26    22    23    1
    27    23    24    1
    28     6     7   ar
    29     7     8   ar
    30    16    11   am
    31     8     3   ar
    32    24    19    1
    33    30    26   ar
    34    30    31    1
