@<TRIPOS>MOLECULE
*****
 34 37 0 0 0
SMALL
GASTEIGER

@<TRIPOS>ATOM
      1 C           6.3411   -3.0374   25.4036 C.ar    1  UNL1        0.0729
      2 C           6.3213   -2.2196   26.6609 C.ar    1  UNL1        0.1048
      3 N           6.7782   -2.8235   27.9556 N.ar    1  UNL1       -0.2290
      4 C           7.2550   -4.2452   27.9931 C.ar    1  UNL1        0.1331
      5 C           7.2749   -5.0630   26.7359 C.ar    1  UNL1        0.0488
      6 C           6.8180   -4.4591   25.4411 C.ar    1  UNL1        0.0103
      7 N           7.7120   -4.8491   29.2880 N.pl3   1  UNL1       -0.2906
      8 C           9.1025   -4.7878   29.8472 C.3     1  UNL1        0.0948
      9 C           9.1086   -5.5211   31.1558 C.3     1  UNL1        0.0524
     10 C           7.7218   -6.0355   31.4052 C.3     1  UNL1        0.1319
     11 O           7.2763   -6.8264   32.5994 O.3     1  UNL1       -0.3827
     12 C           6.8587   -5.6202   30.2509 C.3     1  UNL1        0.1213
     13 H           8.0281   -6.9596   33.1978 H       1  UNL1        0.2104
     14 C           7.7517   -6.4847   26.7734 C.ar    1  UNL1        0.0781
     15 C           9.1738   -6.9416   26.6358 C.ar    1  UNL1        0.0410
     16 C           9.1911   -8.4384   26.7324 C.ar    1  UNL1        0.1214
     17 N           7.7798   -8.9065   26.9298 N.ar    1  UNL1       -0.1711
     18 N           6.8902   -7.6991   26.9551 N.ar    1  UNL1       -0.2756
     19 H           5.9125   -7.7029   27.0706 H       1  UNL1        0.1889
     20 O           6.6451   -1.2908   23.5043 O.2     1  UNL1       -0.2698
     21 C           5.8842   -2.4335   24.1087 C.2     1  UNL1        0.2510
     22 N           4.6664   -2.9722   23.4184 N.am    1  UNL1       -0.2803
     23 H           4.1670   -3.7222   23.8151 H       1  UNL1        0.1552
     24 C           4.2094   -2.3684   22.1235 C.ar    1  UNL1        0.0507
     25 C           4.7725   -2.8643   20.8247 C.ar    1  UNL1        0.0178
     26 C           4.3155   -2.2604   19.5299 C.ar    1  UNL1        0.0384
     27 C           3.2955   -1.1606   19.5340 C.ar    1  UNL1        0.1453
     28 C           2.7325   -0.6647   20.8328 C.ar    1  UNL1        0.0384
     29 C           3.1894   -1.2686   22.1276 C.ar    1  UNL1        0.0178
     30 O           2.8386   -0.5567   18.2391 O.3     1  UNL1       -0.4184
     31 C           2.4296    0.8855   18.1872 C.3     1  UNL1        0.4893
     32 F           2.0205    2.3278   18.1353 F       1  UNL1       -0.1486
     33 F           0.9865    0.4766   18.1979 F       1  UNL1       -0.1486
     34 CL          3.8727    1.2944   18.1766 Cl      1  UNL1        0.0004
@<TRIPOS>BOND
     1    20    21    2
     2    21    22   am
     3    22    24    1
     4    24    25   ar
     5    25    26   ar
     6    26    27   ar
     7    27    30    1
     8    30    31    1
     9    31    32    1
    10    31    33    1
    11    31    34    1
    12    27    28   ar
    13    28    29   ar
    14    21     1    1
    15     1     2   ar
    16     2     3   ar
    17     3     4   ar
    18     4     7    1
    19     7     8    1
    20     8     9    1
    21     9    10    1
    22    10    11    1
    23    10    12    1
    24     4     5   ar
    25     5    14    1
    26    14    15   ar
    27    15    16   ar
    28    16    17   ar
    29    17    18   ar
    30     5     6   ar
    31    29    24   ar
    32     6     1   ar
    33    12     7    1
    34    18    14   ar
    35    22    23    1
    36    11    13    1
    37    18    19    1
@<TRIPOS>MOLECULE
*****
 34 37 0 0 0
SMALL
GASTEIGER

@<TRIPOS>ATOM
      1 C          -1.3486    2.8752   21.1403 C.ar    1  UNL1        0.0729
      2 C          -1.4750    3.3085   22.5708 C.ar    1  UNL1        0.1048
      3 N          -2.7403    3.9568   23.0490 N.ar    1  UNL1       -0.2290
      4 C          -3.8791    4.1718   22.0968 C.ar    1  UNL1        0.1331
      5 C          -3.7527    3.7385   20.6663 C.ar    1  UNL1        0.0488
      6 C          -2.4875    3.0902   20.1881 C.ar    1  UNL1        0.0103
      7 N          -5.1445    4.8201   22.5750 N.pl3   1  UNL1       -0.2906
      8 C          -5.3783    6.2944   22.7233 C.3     1  UNL1        0.0948
      9 C          -6.7764    6.4935   23.2289 C.3     1  UNL1        0.0524
     10 C          -7.4067    5.1422   23.3931 C.3     1  UNL1        0.1319
     11 O          -8.8008    4.8725   23.8766 O.3     1  UNL1       -0.3827
     12 C          -6.3981    4.1081   22.9890 C.3     1  UNL1        0.1213
     13 H          -9.2438    5.7132   24.0712 H       1  UNL1        0.2104
     14 C          -4.8916    3.9535   19.7141 C.ar    1  UNL1        0.0781
     15 C          -5.1525    5.1979   18.9182 C.ar    1  UNL1        0.0410
     16 C          -6.3917    4.9754   18.1028 C.ar    1  UNL1        0.1214
     17 N          -6.8966    3.5934   18.3947 N.ar    1  UNL1       -0.1711
     18 N          -5.9695    2.9619   19.3905 N.ar    1  UNL1       -0.2756
     19 H          -6.0537    2.0556   19.7658 H       1  UNL1        0.1889
     20 O           1.2082    2.9893   20.6929 O.2     1  UNL1       -0.2698
     21 C          -0.0833    2.2269   20.6621 C.2     1  UNL1        0.2510
     22 N          -0.1094    0.8162   20.1530 N.am    1  UNL1       -0.2803
     23 H          -0.9570    0.3158   20.1328 H       1  UNL1        0.1552
     24 C           1.1560    0.1679   19.6747 C.ar    1  UNL1        0.0507
     25 C           1.8247   -0.8808   20.5132 C.ar    1  UNL1        0.0178
     26 C           3.0899   -1.5291   20.0349 C.ar    1  UNL1        0.0384
     27 C           3.6865   -1.1287   18.7181 C.ar    1  UNL1        0.1453
     28 C           3.0178   -0.0800   17.8797 C.ar    1  UNL1        0.0384
     29 C           1.7525    0.5683   18.3580 C.ar    1  UNL1        0.0178
     30 O           4.9518   -1.7770   18.2398 O.3     1  UNL1       -0.4184
     31 C           5.5653   -2.8962   19.0278 C.3     1  UNL1        0.4893
     32 F           6.1788   -4.0155   19.8158 F       1  UNL1       -0.1486
     33 F           4.6306   -3.8696   18.3730 F       1  UNL1       -0.1486
     34 CL          6.5001   -1.9229   19.6826 Cl      1  UNL1        0.0004
@<TRIPOS>BOND
     1    20    21    2
     2    21    22   am
     3    22    24    1
     4    24    25   ar
     5    25    26   ar
     6    26    27   ar
     7    27    30    1
     8    30    31    1
     9    31    32    1
    10    31    33    1
    11    31    34    1
    12    27    28   ar
    13    28    29   ar
    14    21     1    1
    15     1     2   ar
    16     2     3   ar
    17     3     4   ar
    18     4     7    1
    19     7     8    1
    20     8     9    1
    21     9    10    1
    22    10    11    1
    23    10    12    1
    24     4     5   ar
    25     5    14    1
    26    14    15   ar
    27    15    16   ar
    28    16    17   ar
    29    17    18   ar
    30     5     6   ar
    31    29    24   ar
    32     6     1   ar
    33    12     7    1
    34    18    14   ar
    35    22    23    1
    36    11    13    1
    37    18    19    1
@<TRIPOS>MOLECULE
*****
 34 37 0 0 0
SMALL
GASTEIGER

@<TRIPOS>ATOM
      1 C           5.5937   -2.5001   32.1068 C.ar    1  UNL1        0.0729
      2 C           6.3544   -3.7778   32.3035 C.ar    1  UNL1        0.1048
      3 N           6.9770   -4.4688   31.1267 N.ar    1  UNL1       -0.2290
      4 C           6.8388   -3.8820   29.7531 C.ar    1  UNL1        0.1331
      5 C           6.0781   -2.6044   29.5564 C.ar    1  UNL1        0.0488
      6 C           5.4555   -1.9134   30.7332 C.ar    1  UNL1        0.0103
      7 N           7.4614   -4.5731   28.5763 N.pl3   1  UNL1       -0.2906
      8 C           8.8574   -4.3647   28.0686 C.3     1  UNL1        0.0948
      9 C           9.0561   -5.2566   26.8791 C.3     1  UNL1        0.0524
     10 C           7.7829   -6.0162   26.6516 C.3     1  UNL1        0.1319
     11 O           7.5382   -7.0218   25.5657 O.3     1  UNL1       -0.3827
     12 C           6.7973   -5.5938   27.7005 C.3     1  UNL1        0.1213
     13 H           8.3366   -7.1115   25.0222 H       1  UNL1        0.2104
     14 C           5.9399   -2.0176   28.1828 C.ar    1  UNL1        0.0781
     15 C           6.8879   -1.0508   27.5376 C.ar    1  UNL1        0.0410
     16 C           6.3634   -0.7303   26.1693 C.ar    1  UNL1        0.1214
     17 N           5.0911   -1.4992   25.9689 N.ar    1  UNL1       -0.1711
     18 N           4.8294   -2.2947   27.2133 N.ar    1  UNL1       -0.2756
     19 H           4.0632   -2.8936   27.3668 H       1  UNL1        0.1889
     20 O           3.8333   -2.4552   34.0170 O.2     1  UNL1       -0.2698
     21 C           4.9711   -1.8091   33.2836 C.2     1  UNL1        0.2510
     22 N           5.4863   -0.4720   33.7270 N.am    1  UNL1       -0.2803
     23 H           6.2331   -0.0479   33.2456 H       1  UNL1        0.1552
     24 C           4.8637    0.2191   34.9039 C.ar    1  UNL1        0.0507
     25 C           3.7745    1.2282   34.6911 C.ar    1  UNL1        0.0178
     26 C           3.1520    1.9192   35.8679 C.ar    1  UNL1        0.0384
     27 C           3.6186    1.6010   37.2575 C.ar    1  UNL1        0.1453
     28 C           4.7078    0.5919   37.4703 C.ar    1  UNL1        0.0384
     29 C           5.3303   -0.0991   36.2935 C.ar    1  UNL1        0.0178
     30 O           2.9960    2.2920   38.4344 O.3     1  UNL1       -0.4184
     31 C           1.5332    2.1193   38.7179 C.3     1  UNL1        0.4893
     32 F           0.0704    1.9467   39.0014 F       1  UNL1       -0.1486
     33 F           1.2645    3.4876   38.1650 F       1  UNL1       -0.1486
     34 CL          1.8019    0.7511   39.2707 Cl      1  UNL1        0.0004
@<TRIPOS>BOND
     1    20    21    2
     2    21    22   am
     3    22    24    1
     4    24    25   ar
     5    25    26   ar
     6    26    27   ar
     7    27    30    1
     8    30    31    1
     9    31    32    1
    10    31    33    1
    11    31    34    1
    12    27    28   ar
    13    28    29   ar
    14    21     1    1
    15     1     2   ar
    16     2     3   ar
    17     3     4   ar
    18     4     7    1
    19     7     8    1
    20     8     9    1
    21     9    10    1
    22    10    11    1
    23    10    12    1
    24     4     5   ar
    25     5    14    1
    26    14    15   ar
    27    15    16   ar
    28    16    17   ar
    29    17    18   ar
    30     5     6   ar
    31    29    24   ar
    32     6     1   ar
    33    12     7    1
    34    18    14   ar
    35    22    23    1
    36    11    13    1
    37    18    19    1
@<TRIPOS>MOLECULE
*****
 34 37 0 0 0
SMALL
GASTEIGER

@<TRIPOS>ATOM
      1 C           3.5045   -0.8681   24.7022 C.ar    1  UNL1        0.0729
      2 C           4.5484   -1.9384   24.5815 C.ar    1  UNL1        0.1048
      3 N           4.9628   -2.4326   23.2273 N.ar    1  UNL1       -0.2290
      4 C           4.3332   -1.8565   21.9937 C.ar    1  UNL1        0.1331
      5 C           3.2893   -0.7861   22.1144 C.ar    1  UNL1        0.0488
      6 C           2.8749   -0.2920   23.4686 C.ar    1  UNL1        0.0103
      7 N           4.7476   -2.3507   20.6394 N.pl3   1  UNL1       -0.2906
      8 C           4.1691   -3.5309   19.9165 C.3     1  UNL1        0.0948
      9 C           4.8772   -3.6611   18.6006 C.3     1  UNL1        0.0524
     10 C           5.8934   -2.5614   18.5102 C.3     1  UNL1        0.1319
     11 O           6.8259   -2.3149   17.3614 O.3     1  UNL1       -0.3827
     12 C           5.8133   -1.7516   19.7702 C.3     1  UNL1        0.1213
     13 H           6.6742   -2.9813   16.6731 H       1  UNL1        0.2104
     14 C           2.6597   -0.2100   20.8808 C.ar    1  UNL1        0.0781
     15 C           1.3352   -0.6068   20.2993 C.ar    1  UNL1        0.0410
     16 C           1.1010    0.2220   19.0712 C.ar    1  UNL1        0.1214
     17 N           2.2809    1.1312   18.8937 N.ar    1  UNL1       -0.1711
     18 N           3.2442    0.8641   20.0121 N.ar    1  UNL1       -0.2756
     19 H           4.1083    1.3148   20.1514 H       1  UNL1        0.1889
     20 O           3.7967   -0.8683   27.2838 O.2     1  UNL1       -0.2698
     21 C           3.0901   -0.3739   26.0565 C.2     1  UNL1        0.2510
     22 N           1.9692    0.6147   26.1834 N.am    1  UNL1       -0.2803
     23 H           1.5054    0.9392   25.3779 H       1  UNL1        0.1552
     24 C           1.5548    1.1090   27.5377 C.ar    1  UNL1        0.0507
     25 C           0.3882    0.4806   28.2408 C.ar    1  UNL1        0.0178
     26 C          -0.0261    0.9749   29.5950 C.ar    1  UNL1        0.0384
     27 C           0.7261    2.0975   30.2462 C.ar    1  UNL1        0.1453
     28 C           1.8926    2.7258   29.5431 C.ar    1  UNL1        0.0384
     29 C           2.3069    2.2316   28.1889 C.ar    1  UNL1        0.0178
     30 O           0.3117    2.5917   31.6005 O.3     1  UNL1       -0.4184
     31 C           1.3205    2.6823   32.7068 C.3     1  UNL1        0.4893
     32 F           2.3294    2.7729   33.8132 F       1  UNL1       -0.1486
     33 F           1.7514    1.2726   32.4294 F       1  UNL1       -0.1486
     34 CL          0.8896    4.0920   32.9843 Cl      1  UNL1        0.0004
@<TRIPOS>BOND
     1    20    21    2
     2    21    22   am
     3    22    24    1
     4    24    25   ar
     5    25    26   ar
     6    26    27   ar
     7    27    30    1
     8    30    31    1
     9    31    32    1
    10    31    33    1
    11    31    34    1
    12    27    28   ar
    13    28    29   ar
    14    21     1    1
    15     1     2   ar
    16     2     3   ar
    17     3     4   ar
    18     4     7    1
    19     7     8    1
    20     8     9    1
    21     9    10    1
    22    10    11    1
    23    10    12    1
    24     4     5   ar
    25     5    14    1
    26    14    15   ar
    27    15    16   ar
    28    16    17   ar
    29    17    18   ar
    30     5     6   ar
    31    29    24   ar
    32     6     1   ar
    33    12     7    1
    34    18    14   ar
    35    22    23    1
    36    11    13    1
    37    18    19    1
@<TRIPOS>MOLECULE
*****
 34 37 0 0 0
SMALL
GASTEIGER

@<TRIPOS>ATOM
      1 C           5.5022   -1.7562   26.8976 C.ar    1  UNL1        0.0729
      2 C           4.7872   -0.6292   27.5822 C.ar    1  UNL1        0.1048
      3 N           4.8293   -0.5124   29.0770 N.ar    1  UNL1       -0.2290
      4 C           5.5863   -1.5226   29.8873 C.ar    1  UNL1        0.1331
      5 C           6.3012   -2.6496   29.2027 C.ar    1  UNL1        0.0488
      6 C           6.2592   -2.7664   27.7079 C.ar    1  UNL1        0.0103
      7 N           5.6283   -1.4057   31.3822 N.pl3   1  UNL1       -0.2906
      8 C           4.6322   -1.9884   32.3404 C.3     1  UNL1        0.0948
      9 C           5.0620   -1.6285   33.7317 C.3     1  UNL1        0.0524
     10 C           6.3238   -0.8232   33.6333 C.3     1  UNL1        0.1319
     11 O           7.0994   -0.2554   34.7848 O.3     1  UNL1       -0.3827
     12 C           6.6737   -0.6855   32.1812 C.3     1  UNL1        0.1213
     13 H           6.6593   -0.4883   35.6173 H       1  UNL1        0.2104
     14 C           7.0582   -3.6597   30.0130 C.ar    1  UNL1        0.0781
     15 C           8.4904   -3.5493   30.4449 C.ar    1  UNL1        0.0410
     16 C           8.8333   -4.7790   31.2324 C.ar    1  UNL1        0.1214
     17 N           7.6130   -5.6495   31.2873 N.ar    1  UNL1       -0.1711
     18 N           6.5159   -4.9577   30.5336 N.ar    1  UNL1       -0.2756
     19 H           5.6007   -5.2962   30.4035 H       1  UNL1        0.1889
     20 O           6.7104   -1.6702   24.5992 O.2     1  UNL1       -0.2698
     21 C           5.4602   -1.8731   25.4027 C.2     1  UNL1        0.2510
     22 N           4.1680   -2.1930   24.7115 N.am    1  UNL1       -0.2803
     23 H           3.3474   -2.3262   25.2389 H       1  UNL1        0.1552
     24 C           4.1259   -2.3098   23.2166 C.ar    1  UNL1        0.0507
     25 C           3.5955   -1.1760   22.3903 C.ar    1  UNL1        0.0178
     26 C           3.5535   -1.2929   20.8954 C.ar    1  UNL1        0.0384
     27 C           4.0419   -2.5437   20.2270 C.ar    1  UNL1        0.1453
     28 C           4.5724   -3.6776   21.0533 C.ar    1  UNL1        0.0384
     29 C           4.6144   -3.5607   22.5481 C.ar    1  UNL1        0.0178
     30 O           3.9999   -2.6606   18.7321 O.3     1  UNL1       -0.4184
     31 C           4.7061   -1.6477   17.8804 C.3     1  UNL1        0.4893
     32 F           5.4122   -0.6347   17.0287 F       1  UNL1       -0.1486
     33 F           3.4074   -0.9315   17.6555 F       1  UNL1       -0.1486
     34 CL          6.0047   -2.3639   18.1053 Cl      1  UNL1        0.0004
@<TRIPOS>BOND
     1    20    21    2
     2    21    22   am
     3    22    24    1
     4    24    25   ar
     5    25    26   ar
     6    26    27   ar
     7    27    30    1
     8    30    31    1
     9    31    32    1
    10    31    33    1
    11    31    34    1
    12    27    28   ar
    13    28    29   ar
    14    21     1    1
    15     1     2   ar
    16     2     3   ar
    17     3     4   ar
    18     4     7    1
    19     7     8    1
    20     8     9    1
    21     9    10    1
    22    10    11    1
    23    10    12    1
    24     4     5   ar
    25     5    14    1
    26    14    15   ar
    27    15    16   ar
    28    16    17   ar
    29    17    18   ar
    30     5     6   ar
    31    29    24   ar
    32     6     1   ar
    33    12     7    1
    34    18    14   ar
    35    22    23    1
    36    11    13    1
    37    18    19    1
@<TRIPOS>MOLECULE
*****
 34 37 0 0 0
SMALL
GASTEIGER

@<TRIPOS>ATOM
      1 C           3.6884    0.1920   28.3014 C.ar    1  UNL1        0.0729
      2 C           4.8204   -0.4096   27.5227 C.ar    1  UNL1        0.1048
      3 N           5.8293   -1.2772   28.2150 N.ar    1  UNL1       -0.2290
      4 C           5.7061   -1.5432   29.6861 C.ar    1  UNL1        0.1331
      5 C           4.5740   -0.9416   30.4648 C.ar    1  UNL1        0.0488
      6 C           3.5651   -0.0740   29.7725 C.ar    1  UNL1        0.0103
      7 N           6.7151   -2.4108   30.3785 N.pl3   1  UNL1       -0.2906
      8 C           7.9883   -1.9433   31.0192 C.3     1  UNL1        0.0948
      9 C           8.6881   -3.1418   31.5883 C.3     1  UNL1        0.0524
     10 C           7.8473   -4.3500   31.2994 C.3     1  UNL1        0.1319
     11 O           8.1694   -5.7621   31.6897 O.3     1  UNL1       -0.3827
     12 C           6.6280   -3.8982   30.5517 C.3     1  UNL1        0.1213
     13 H           9.0151   -5.7814   32.1645 H       1  UNL1        0.2104
     14 C           4.4508   -1.2076   31.9359 C.ar    1  UNL1        0.0781
     15 C           4.7663   -0.2387   33.0366 C.ar    1  UNL1        0.0410
     16 C           4.5010   -0.9215   34.3455 C.ar    1  UNL1        0.1214
     17 N           4.0214   -2.3125   34.0538 N.ar    1  UNL1       -0.1711
     18 N           3.9904   -2.4893   32.5646 N.ar    1  UNL1       -0.2756
     19 H           3.7160   -3.3037   32.0842 H       1  UNL1        0.1889
     20 O           3.0566    2.4427   27.1677 O.2     1  UNL1       -0.2698
     21 C           2.6794    1.0596   27.6090 C.2     1  UNL1        0.2510
     22 N           1.2933    0.5441   27.3580 N.am    1  UNL1       -0.2803
     23 H           1.0458   -0.3636   27.6477 H       1  UNL1        0.1552
     24 C           0.2844    1.4118   26.6657 C.ar    1  UNL1        0.0507
     25 C          -0.7339    2.1654   27.4689 C.ar    1  UNL1        0.0178
     26 C          -1.7427    3.0329   26.7766 C.ar    1  UNL1        0.0384
     27 C          -1.7334    3.1469   25.2809 C.ar    1  UNL1        0.1453
     28 C          -0.7152    2.3933   24.4777 C.ar    1  UNL1        0.0384
     29 C           0.2937    1.5258   25.1700 C.ar    1  UNL1        0.0178
     30 O          -2.7424    4.0146   24.5886 O.3     1  UNL1       -0.4184
     31 C          -3.9399    3.3945   23.9318 C.3     1  UNL1        0.4893
     32 F          -5.1375    2.7744   23.2749 F       1  UNL1       -0.1486
     33 F          -4.5736    3.1941   25.2764 F       1  UNL1       -0.1486
     34 CL         -3.3061    3.5950   22.5871 Cl      1  UNL1        0.0004
@<TRIPOS>BOND
     1    20    21    2
     2    21    22   am
     3    22    24    1
     4    24    25   ar
     5    25    26   ar
     6    26    27   ar
     7    27    30    1
     8    30    31    1
     9    31    32    1
    10    31    33    1
    11    31    34    1
    12    27    28   ar
    13    28    29   ar
    14    21     1    1
    15     1     2   ar
    16     2     3   ar
    17     3     4   ar
    18     4     7    1
    19     7     8    1
    20     8     9    1
    21     9    10    1
    22    10    11    1
    23    10    12    1
    24     4     5   ar
    25     5    14    1
    26    14    15   ar
    27    15    16   ar
    28    16    17   ar
    29    17    18   ar
    30     5     6   ar
    31    29    24   ar
    32     6     1   ar
    33    12     7    1
    34    18    14   ar
    35    22    23    1
    36    11    13    1
    37    18    19    1
@<TRIPOS>MOLECULE
*****
 34 37 0 0 0
SMALL
GASTEIGER

@<TRIPOS>ATOM
      1 C          -2.6782    3.6905   21.7218 C.ar    1  UNL1        0.0729
      2 C          -2.7514    3.7640   23.2182 C.ar    1  UNL1        0.1048
      3 N          -3.9313    4.4116   23.8804 N.ar    1  UNL1       -0.2290
      4 C          -5.0378    4.9858   23.0462 C.ar    1  UNL1        0.1331
      5 C          -4.9645    4.9123   21.5498 C.ar    1  UNL1        0.0488
      6 C          -3.7847    4.2646   20.8876 C.ar    1  UNL1        0.0103
      7 N          -6.2177    5.6335   23.7084 N.pl3   1  UNL1       -0.2906
      8 C          -6.3252    7.0768   24.1023 C.3     1  UNL1        0.0948
      9 C          -7.6711    7.2869   24.7303 C.3     1  UNL1        0.0524
     10 C          -8.3954    5.9734   24.7246 C.3     1  UNL1        0.1319
     11 O          -9.7756    5.7252   25.2570 O.3     1  UNL1       -0.3827
     12 C          -7.4971    4.9515   24.0930 C.3     1  UNL1        0.1213
     13 H         -10.1387    6.5518   25.6119 H       1  UNL1        0.2104
     14 C          -6.0711    5.4864   20.7156 C.ar    1  UNL1        0.0781
     15 C          -6.0779    6.8411   20.0715 C.ar    1  UNL1        0.0410
     16 C          -7.3762    6.9986   19.3369 C.ar    1  UNL1        0.1214
     17 N          -8.1717    5.7412   19.5268 N.ar    1  UNL1       -0.1711
     18 N          -7.3652    4.8067   20.3789 N.ar    1  UNL1       -0.2756
     19 H          -7.6374    3.9054   20.6667 H       1  UNL1        0.1889
     20 O          -1.2175    3.3007   19.6088 O.2     1  UNL1       -0.2698
     21 C          -1.4983    3.0428   21.0596 C.2     1  UNL1        0.2510
     22 N          -0.5993    2.1373   21.8481 N.am    1  UNL1       -0.2803
     23 H          -0.7836    1.9680   22.8002 H       1  UNL1        0.1552
     24 C           0.5806    1.4896   21.1858 C.ar    1  UNL1        0.0507
     25 C           1.9052    2.1928   21.1593 C.ar    1  UNL1        0.0178
     26 C           3.0850    1.5451   20.4971 C.ar    1  UNL1        0.0384
     27 C           2.9401    0.1942   19.8614 C.ar    1  UNL1        0.1453
     28 C           1.6155   -0.5090   19.8879 C.ar    1  UNL1        0.0384
     29 C           0.4357    0.1387   20.5501 C.ar    1  UNL1        0.0178
     30 O           4.1200   -0.4534   19.1991 O.3     1  UNL1       -0.4184
     31 C           4.0777   -1.9119   18.8514 C.3     1  UNL1        0.4893
     32 F           4.0354   -3.3705   18.5036 F       1  UNL1       -0.1486
     33 F           3.6093   -1.5686   17.4684 F       1  UNL1       -0.1486
     34 CL          4.5462   -2.2552   20.2343 Cl      1  UNL1        0.0004
@<TRIPOS>BOND
     1    20    21    2
     2    21    22   am
     3    22    24    1
     4    24    25   ar
     5    25    26   ar
     6    26    27   ar
     7    27    30    1
     8    30    31    1
     9    31    32    1
    10    31    33    1
    11    31    34    1
    12    27    28   ar
    13    28    29   ar
    14    21     1    1
    15     1     2   ar
    16     2     3   ar
    17     3     4   ar
    18     4     7    1
    19     7     8    1
    20     8     9    1
    21     9    10    1
    22    10    11    1
    23    10    12    1
    24     4     5   ar
    25     5    14    1
    26    14    15   ar
    27    15    16   ar
    28    16    17   ar
    29    17    18   ar
    30     5     6   ar
    31    29    24   ar
    32     6     1   ar
    33    12     7    1
    34    18    14   ar
    35    22    23    1
    36    11    13    1
    37    18    19    1
@<TRIPOS>MOLECULE
*****
 34 37 0 0 0
SMALL
GASTEIGER

@<TRIPOS>ATOM
      1 C           2.5568    1.7187   25.6633 C.ar    1  UNL1        0.0729
      2 C           1.9051    3.0645   25.7810 C.ar    1  UNL1        0.1048
      3 N           1.6600    3.6633   27.1342 N.ar    1  UNL1       -0.2290
      4 C           2.0668    2.9163   28.3698 C.ar    1  UNL1        0.1331
      5 C           2.7185    1.5705   28.2520 C.ar    1  UNL1        0.0488
      6 C           2.9636    0.9717   26.8988 C.ar    1  UNL1        0.0103
      7 N           1.8217    3.5152   29.7231 N.pl3   1  UNL1       -0.2906
      8 C           2.7727    4.3892   30.4858 C.3     1  UNL1        0.0948
      9 C           2.1215    4.7594   31.7853 C.3     1  UNL1        0.0524
     10 C           0.7679    4.1141   31.8258 C.3     1  UNL1        0.1319
     11 O          -0.2259    4.2194   32.9444 O.3     1  UNL1       -0.3827
     12 C           0.5827    3.3452   30.5512 C.3     1  UNL1        0.1213
     13 H           0.1397    4.7749   33.6505 H       1  UNL1        0.2104
     14 C           3.1253    0.8235   29.4876 C.ar    1  UNL1        0.0781
     15 C           2.3745   -0.3111   30.1192 C.ar    1  UNL1        0.0410
     16 C           3.1394   -0.7560   31.3304 C.ar    1  UNL1        0.1214
     17 N           4.3630    0.1038   31.4474 N.ar    1  UNL1       -0.1711
     18 N           4.3543    1.0799   30.3085 N.ar    1  UNL1       -0.2756
     19 H           5.0355    1.7680   30.1309 H       1  UNL1        0.1889
     20 O           3.1126    2.0080   23.1419 O.2     1  UNL1       -0.2698
     21 C           2.8019    1.1198   24.3100 C.2     1  UNL1        0.2510
     22 N           2.7362   -0.3673   24.1248 N.am    1  UNL1       -0.2803
     23 H           2.5323   -0.9502   24.8915 H       1  UNL1        0.1552
     24 C           2.9813   -0.9661   22.7715 C.ar    1  UNL1        0.0507
     25 C           2.1188   -0.5716   21.6094 C.ar    1  UNL1        0.0178
     26 C           2.3639   -1.1704   20.2562 C.ar    1  UNL1        0.0384
     27 C           3.4714   -2.1639   20.0651 C.ar    1  UNL1        0.1453
     28 C           4.3338   -2.5585   21.2272 C.ar    1  UNL1        0.0384
     29 C           4.0887   -1.9596   22.5804 C.ar    1  UNL1        0.0178
     30 O           3.7165   -2.7628   18.7118 O.3     1  UNL1       -0.4184
     31 C           4.3392   -4.1224   18.5949 C.3     1  UNL1        0.4893
     32 F           4.9620   -5.4820   18.4780 F       1  UNL1       -0.1486
     33 F           5.5961   -3.5009   18.0622 F       1  UNL1       -0.1486
     34 CL          3.0822   -4.7439   19.1276 Cl      1  UNL1        0.0004
@<TRIPOS>BOND
     1    20    21    2
     2    21    22   am
     3    22    24    1
     4    24    25   ar
     5    25    26   ar
     6    26    27   ar
     7    27    30    1
     8    30    31    1
     9    31    32    1
    10    31    33    1
    11    31    34    1
    12    27    28   ar
    13    28    29   ar
    14    21     1    1
    15     1     2   ar
    16     2     3   ar
    17     3     4   ar
    18     4     7    1
    19     7     8    1
    20     8     9    1
    21     9    10    1
    22    10    11    1
    23    10    12    1
    24     4     5   ar
    25     5    14    1
    26    14    15   ar
    27    15    16   ar
    28    16    17   ar
    29    17    18   ar
    30     5     6   ar
    31    29    24   ar
    32     6     1   ar
    33    12     7    1
    34    18    14   ar
    35    22    23    1
    36    11    13    1
    37    18    19    1
@<TRIPOS>MOLECULE
*****
 34 37 0 0 0
SMALL
GASTEIGER

@<TRIPOS>ATOM
      1 C           3.5277   -0.6764   24.7731 C.ar    1  UNL1        0.0729
      2 C           4.5262   -1.7901   24.6601 C.ar    1  UNL1        0.1048
      3 N           4.8876   -2.3394   23.3119 N.ar    1  UNL1       -0.2290
      4 C           4.2505   -1.7751   22.0768 C.ar    1  UNL1        0.1331
      5 C           3.2521   -0.6614   22.1897 C.ar    1  UNL1        0.0488
      6 C           2.8907   -0.1121   23.5379 C.ar    1  UNL1        0.0103
      7 N           4.6119   -2.3245   20.7285 N.pl3   1  UNL1       -0.2906
      8 C           4.0104   -3.5360   20.0800 C.3     1  UNL1        0.0948
      9 C           4.6650   -3.7191   18.7429 C.3     1  UNL1        0.0524
     10 C           5.6711   -2.6208   18.5650 C.3     1  UNL1        0.1319
     11 O           6.5549   -2.4197   17.3698 O.3     1  UNL1       -0.3827
     12 C           5.6383   -1.7589   19.7922 C.3     1  UNL1        0.1213
     13 H           6.3786   -3.1150   16.7167 H       1  UNL1        0.2104
     14 C           2.6150   -0.0971   20.9545 C.ar    1  UNL1        0.0781
     15 C           1.3660   -0.6039   20.2964 C.ar    1  UNL1        0.0410
     16 C           1.0942    0.2531   19.0957 C.ar    1  UNL1        0.1214
     17 N           2.1752    1.2896   19.0118 N.ar    1  UNL1       -0.1711
     18 N           3.1151    1.0731   20.1606 N.ar    1  UNL1       -0.2756
     19 H           3.9191    1.6057   20.3587 H       1  UNL1        0.1889
     20 O           1.9496    0.7362   26.2778 O.2     1  UNL1       -0.2698
     21 C           3.1663   -0.1270   26.1213 C.2     1  UNL1        0.2510
     22 N           4.0215   -0.4409   27.3129 N.am    1  UNL1       -0.2803
     23 H           4.8201   -1.0075   27.2102 H       1  UNL1        0.1552
     24 C           3.6601    0.1085   28.6611 C.ar    1  UNL1        0.0507
     25 C           4.0934    1.4914   29.0482 C.ar    1  UNL1        0.0178
     26 C           3.7319    2.0407   30.3964 C.ar    1  UNL1        0.0384
     27 C           2.9372    1.2072   31.3574 C.ar    1  UNL1        0.1453
     28 C           2.5040   -0.1757   30.9704 C.ar    1  UNL1        0.0384
     29 C           2.8654   -0.7250   29.6222 C.ar    1  UNL1        0.0178
     30 O           2.5758    1.7566   32.7057 O.3     1  UNL1       -0.4184
     31 C           3.6524    2.2381   33.6325 C.3     1  UNL1        0.4893
     32 F           4.7290    2.7195   34.5594 F       1  UNL1       -0.1486
     33 F           4.3419    0.9107   33.5211 F       1  UNL1       -0.1486
     34 CL          2.9628    3.5655   33.7439 Cl      1  UNL1        0.0004
@<TRIPOS>BOND
     1    20    21    2
     2    21    22   am
     3    22    24    1
     4    24    25   ar
     5    25    26   ar
     6    26    27   ar
     7    27    30    1
     8    30    31    1
     9    31    32    1
    10    31    33    1
    11    31    34    1
    12    27    28   ar
    13    28    29   ar
    14    21     1    1
    15     1     2   ar
    16     2     3   ar
    17     3     4   ar
    18     4     7    1
    19     7     8    1
    20     8     9    1
    21     9    10    1
    22    10    11    1
    23    10    12    1
    24     4     5   ar
    25     5    14    1
    26    14    15   ar
    27    15    16   ar
    28    16    17   ar
    29    17    18   ar
    30     5     6   ar
    31    29    24   ar
    32     6     1   ar
    33    12     7    1
    34    18    14   ar
    35    22    23    1
    36    11    13    1
    37    18    19    1
