@<TRIPOS>MOLECULE
*****
 36 40 0 0 0
SMALL
GASTEIGER

@<TRIPOS>ATOM
      1 C           4.1513   -1.2342   26.3363 C.ar    1  UNL1        0.0978
      2 C           5.2179   -1.5491   27.3428 C.ar    1  UNL1        0.1177
      3 N           4.9464   -1.3634   28.8062 N.ar    1  UNL1       -0.2369
      4 C           3.6082   -0.8629   29.2632 C.ar    1  UNL1        0.1458
      5 C           3.0540   -0.5834   30.6288 C.ar    1  UNL1        0.1892
      6 N           1.6448   -0.0959   30.4662 N.ar    1  UNL1       -0.1556
      7 N           1.3281   -0.0740   29.0002 N.ar    1  UNL1       -0.2299
      8 C           2.5416   -0.5481   28.2567 C.ar    1  UNL1        0.1798
      9 N           2.8131   -0.7337   26.7932 N.ar    1  UNL1       -0.2242
     10 C           2.6307   -0.7988   21.3867 C.3     1  UNL1        0.0017
     11 C           3.6625   -1.2022   22.3979 C.3     1  UNL1        0.0194
     12 C           3.3910   -1.0165   23.8615 C.3     1  UNL1        0.0289
     13 C           4.4228   -1.4199   24.8727 C.2     1  UNL1       -0.0071
     14 C           5.7261   -2.0089   24.4205 C.2     1  UNL1       -0.0275
     15 C           5.9976   -2.1946   22.9571 C.3     1  UNL1        0.0417
     16 C           4.9658   -1.7912   21.9457 C.3     1  UNL1        0.0621
     17 N           5.2373   -1.9769   20.4823 N.3     1  UNL1       -0.2727
     18 C           5.9458   -1.0043   19.5866 C.3     1  UNL1        0.0721
     19 C           5.9944   -1.5940   18.2083 C.3     1  UNL1        0.0188
     20 C           5.3159   -2.9312   18.2521 C.3     1  UNL1        0.0199
     21 C           4.8480   -3.1677   19.6575 C.3     1  UNL1        0.0870
     22 C           4.1189   -4.3820   20.1513 C.3     1  UNL1        0.1530
     23 O           4.2375   -5.6811   19.4107 O.3     1  UNL1       -0.3806
     24 H           3.8302   -5.5923   18.5349 H       1  UNL1        0.2105
     25 C           3.7813   -0.7604   31.9287 C.1     1  UNL1        0.1232
     26 N           4.5086   -0.9375   33.2285 N.1     1  UNL1       -0.1891
     27 C           0.0265    0.3478   28.3855 C.3     1  UNL1        0.1299
     28 C          -1.2410   -0.3677   28.7482 C.3     1  UNL1        0.0313
     29 C          -0.0077    1.4852   27.4082 C.ar    1  UNL1        0.0106
     30 C          -0.2810    1.2195   25.9574 C.ar    1  UNL1       -0.0007
     31 C          -0.3152    2.3569   24.9801 C.ar    1  UNL1        0.0112
     32 C          -0.0760    3.7600   25.4535 C.ar    1  UNL1        0.0585
     33 CL         -0.1102    4.8974   24.4762 Cl      1  UNL1       -0.0822
     34 C           0.1973    4.0257   26.9042 C.ar    1  UNL1        0.0225
     35 C           0.2315    2.8883   27.8816 C.ar    1  UNL1        0.0563
     36 CL          0.5048    3.1540   29.3323 Cl      1  UNL1       -0.0825
@<TRIPOS>BOND
     1    11    10    1
     2    11    12    1
     3    12    13    1
     4    13     1    1
     5     1     2   ar
     6     2     3   ar
     7     3     4   ar
     8     4     5   ar
     9     5    25    1
    10    25    26    3
    11     5     6   ar
    12     6     7   ar
    13     7    27    1
    14    27    28    1
    15    27    29    1
    16    29    30   ar
    17    30    31   ar
    18    31    32   ar
    19    32    33    1
    20    32    34   ar
    21    34    35   ar
    22    35    36    1
    23     7     8   ar
    24     8     9   ar
    25    13    14    2
    26    14    15    1
    27    15    16    1
    28    16    17    1
    29    17    18    1
    30    18    19    1
    31    19    20    1
    32    20    21    1
    33    21    22    1
    34    22    23    1
    35    16    11    1
    36    21    17    1
    37     9     1   ar
    38     8     4   ar
    39    35    29   ar
    40    23    24    1
@<TRIPOS>MOLECULE
*****
 36 40 0 0 0
SMALL
GASTEIGER

@<TRIPOS>ATOM
      1 C           6.5586   -3.6416   31.3117 C.ar    1  UNL1        0.0978
      2 C           6.6818   -5.0978   31.6499 C.ar    1  UNL1        0.1177
      3 N           7.1377   -6.0740   30.6064 N.ar    1  UNL1       -0.2369
      4 C           7.4704   -5.5942   29.2247 C.ar    1  UNL1        0.1458
      5 C           7.9415   -6.3169   27.9975 C.ar    1  UNL1        0.1892
      6 N           8.1095   -5.3073   26.9009 N.ar    1  UNL1       -0.1556
      7 N           7.7422   -3.9607   27.4504 N.ar    1  UNL1       -0.2299
      8 C           7.3472   -4.1380   28.8865 C.ar    1  UNL1        0.1798
      9 N           6.8913   -3.1618   29.9300 N.ar    1  UNL1       -0.2242
     10 C           7.4771    0.5128   34.2947 C.3     1  UNL1        0.0017
     11 C           6.5619   -0.5880   33.8467 C.3     1  UNL1        0.0194
     12 C           7.0179   -1.5644   32.8032 C.3     1  UNL1        0.0289
     13 C           6.1027   -2.6652   32.3553 C.2     1  UNL1       -0.0071
     14 C           4.7316   -2.7897   32.9508 C.2     1  UNL1       -0.0275
     15 C           4.2757   -1.8134   33.9943 C.3     1  UNL1        0.0417
     16 C           5.1909   -0.7125   34.4423 C.3     1  UNL1        0.0621
     17 N           4.7349    0.2638   35.4858 N.3     1  UNL1       -0.2727
     18 C           5.1431    0.2663   36.9292 C.3     1  UNL1        0.0721
     19 C           4.4512    1.4131   37.6046 C.3     1  UNL1        0.0188
     20 C           3.6154    2.1193   36.5785 C.3     1  UNL1        0.0199
     21 C           3.7907    1.4090   35.2691 C.3     1  UNL1        0.0870
     22 C           3.1367    1.7790   33.9709 C.3     1  UNL1        0.1530
     23 O           1.6407    1.7932   33.8619 O.3     1  UNL1       -0.3806
     24 H           1.3006    0.8905   33.9634 H       1  UNL1        0.2105
     25 C           8.1994   -7.7903   27.8865 C.1     1  UNL1        0.1232
     26 N           8.4574   -9.2638   27.7755 N.1     1  UNL1       -0.1891
     27 C           7.7657   -2.6644   26.6961 C.3     1  UNL1        0.1299
     28 C           9.0511   -1.9055   26.5488 C.3     1  UNL1        0.0313
     29 C           6.5037   -2.1269   26.0891 C.ar    1  UNL1        0.0106
     30 C           5.7330   -1.0492   26.7923 C.ar    1  UNL1       -0.0007
     31 C           4.4710   -0.5116   26.1852 C.ar    1  UNL1        0.0112
     32 C           3.9798   -1.0518   24.8749 C.ar    1  UNL1        0.0585
     33 CL          2.7178   -0.5143   24.2678 Cl      1  UNL1       -0.0822
     34 C           4.7505   -2.1295   24.1717 C.ar    1  UNL1        0.0225
     35 C           6.0125   -2.6670   24.7788 C.ar    1  UNL1        0.0563
     36 CL          6.7832   -3.7447   24.0755 Cl      1  UNL1       -0.0825
@<TRIPOS>BOND
     1    11    10    1
     2    11    12    1
     3    12    13    1
     4    13     1    1
     5     1     2   ar
     6     2     3   ar
     7     3     4   ar
     8     4     5   ar
     9     5    25    1
    10    25    26    3
    11     5     6   ar
    12     6     7   ar
    13     7    27    1
    14    27    28    1
    15    27    29    1
    16    29    30   ar
    17    30    31   ar
    18    31    32   ar
    19    32    33    1
    20    32    34   ar
    21    34    35   ar
    22    35    36    1
    23     7     8   ar
    24     8     9   ar
    25    13    14    2
    26    14    15    1
    27    15    16    1
    28    16    17    1
    29    17    18    1
    30    18    19    1
    31    19    20    1
    32    20    21    1
    33    21    22    1
    34    22    23    1
    35    16    11    1
    36    21    17    1
    37     9     1   ar
    38     8     4   ar
    39    35    29   ar
    40    23    24    1
@<TRIPOS>MOLECULE
*****
 36 40 0 0 0
SMALL
GASTEIGER

@<TRIPOS>ATOM
      1 C           3.6509   -0.7392   23.4997 C.ar    1  UNL1        0.0978
      2 C           2.4909    0.0406   24.0439 C.ar    1  UNL1        0.1177
      3 N           1.5028    0.6678   23.1058 N.ar    1  UNL1       -0.2369
      4 C           1.6747    0.5153   21.6235 C.ar    1  UNL1        0.1458
      5 C           0.8679    1.0170   20.4626 C.ar    1  UNL1        0.1892
      6 N           1.5294    0.5472   19.2010 N.ar    1  UNL1       -0.1556
      7 N           2.7450   -0.2448   19.5822 N.ar    1  UNL1       -0.2299
      8 C           2.8347   -0.2645   21.0793 C.ar    1  UNL1        0.1798
      9 N           3.8229   -0.8917   22.0174 N.ar    1  UNL1       -0.2242
     10 C           5.2084   -1.8071   28.3406 C.3     1  UNL1        0.0017
     11 C           5.4179   -1.9004   26.8583 C.3     1  UNL1        0.0194
     12 C           4.4297   -1.2731   25.9202 C.3     1  UNL1        0.0289
     13 C           4.6392   -1.3665   24.4379 C.2     1  UNL1       -0.0071
     14 C           5.8368   -2.0871   23.8936 C.2     1  UNL1       -0.0275
     15 C           6.8250   -2.7144   24.8316 C.3     1  UNL1        0.0417
     16 C           6.6156   -2.6211   26.3140 C.3     1  UNL1        0.0621
     17 N           7.6037   -3.2484   27.2521 N.3     1  UNL1       -0.2727
     18 C           8.7312   -2.5430   27.9459 C.3     1  UNL1        0.0721
     19 C           9.4623   -3.5499   28.7836 C.3     1  UNL1        0.0188
     20 C           8.7866   -4.8775   28.6075 C.3     1  UNL1        0.0199
     21 C           7.6380   -4.6911   27.6610 C.3     1  UNL1        0.0870
     22 C           6.6901   -5.7599   27.2037 C.3     1  UNL1        0.1530
     23 O           5.3456   -5.8986   27.8543 O.3     1  UNL1       -0.3806
     24 H           5.4602   -6.1682   28.7790 H       1  UNL1        0.2105
     25 C          -0.3810    1.8433   20.5484 C.1     1  UNL1        0.1232
     26 N          -1.6299    2.6697   20.6340 N.1     1  UNL1       -0.1891
     27 C           3.7027   -0.9017   18.6328 C.3     1  UNL1        0.1299
     28 C           3.5339   -0.7221   17.1532 C.3     1  UNL1        0.0313
     29 C           4.8291   -1.7383   19.1631 C.ar    1  UNL1        0.0106
     30 C           6.1726   -1.1182   19.4091 C.ar    1  UNL1       -0.0007
     31 C           7.2990   -1.9548   19.9393 C.ar    1  UNL1        0.0112
     32 C           7.0821   -3.4116   20.2235 C.ar    1  UNL1        0.0585
     33 CL          8.2085   -4.2483   20.7538 Cl      1  UNL1       -0.0822
     34 C           5.7386   -4.0317   19.9775 C.ar    1  UNL1        0.0225
     35 C           4.6121   -3.1951   19.4473 C.ar    1  UNL1        0.0563
     36 CL          3.2687   -3.8152   19.2012 Cl      1  UNL1       -0.0825
@<TRIPOS>BOND
     1    11    10    1
     2    11    12    1
     3    12    13    1
     4    13     1    1
     5     1     2   ar
     6     2     3   ar
     7     3     4   ar
     8     4     5   ar
     9     5    25    1
    10    25    26    3
    11     5     6   ar
    12     6     7   ar
    13     7    27    1
    14    27    28    1
    15    27    29    1
    16    29    30   ar
    17    30    31   ar
    18    31    32   ar
    19    32    33    1
    20    32    34   ar
    21    34    35   ar
    22    35    36    1
    23     7     8   ar
    24     8     9   ar
    25    13    14    2
    26    14    15    1
    27    15    16    1
    28    16    17    1
    29    17    18    1
    30    18    19    1
    31    19    20    1
    32    20    21    1
    33    21    22    1
    34    22    23    1
    35    16    11    1
    36    21    17    1
    37     9     1   ar
    38     8     4   ar
    39    35    29   ar
    40    23    24    1
@<TRIPOS>MOLECULE
*****
 36 40 0 0 0
SMALL
GASTEIGER

@<TRIPOS>ATOM
      1 C           0.7445    1.2714   23.4958 C.ar    1  UNL1        0.0978
      2 C           0.1776    2.5574   22.9717 C.ar    1  UNL1        0.1177
      3 N          -0.6030    3.4589   23.8817 N.ar    1  UNL1       -0.2369
      4 C          -0.8167    3.0743   25.3157 C.ar    1  UNL1        0.1458
      5 C          -1.5379    3.7556   26.4408 C.ar    1  UNL1        0.1892
      6 N          -1.4167    2.8906   27.6602 N.ar    1  UNL1       -0.1556
      7 N          -0.6207    1.6747   27.2887 N.ar    1  UNL1       -0.2299
      8 C          -0.2498    1.7882   25.8398 C.ar    1  UNL1        0.1798
      9 N           0.5307    0.8868   24.9298 N.ar    1  UNL1       -0.2242
     10 C           4.6674   -2.0497   22.7332 C.3     1  UNL1        0.0017
     11 C           3.4866   -1.2907   22.2046 C.3     1  UNL1        0.0194
     12 C           2.7059   -0.3891   23.1145 C.3     1  UNL1        0.0289
     13 C           1.5251    0.3698   22.5859 C.2     1  UNL1       -0.0071
     14 C           1.1248    0.2274   21.1473 C.2     1  UNL1       -0.0275
     15 C           1.9054   -0.6741   20.2374 C.3     1  UNL1        0.0417
     16 C           3.0863   -1.4332   20.7660 C.3     1  UNL1        0.0621
     17 N           3.8669   -2.3346   19.8561 N.3     1  UNL1       -0.2727
     18 C           3.6084   -3.7944   19.6270 C.3     1  UNL1        0.0721
     19 C           4.6247   -4.2966   18.6448 C.3     1  UNL1        0.0188
     20 C           5.5114   -3.1472   18.2668 C.3     1  UNL1        0.0199
     21 C           5.0430   -1.9347   19.0154 C.3     1  UNL1        0.0870
     22 C           5.6450   -0.5631   18.9370 C.3     1  UNL1        0.1530
     23 O           6.2456    0.0635   20.1605 O.3     1  UNL1       -0.3806
     24 H           5.5484    0.2295   20.8142 H       1  UNL1        0.2105
     25 C          -2.2544    5.0709   26.3605 C.1     1  UNL1        0.1232
     26 N          -2.9709    6.3863   26.2803 N.1     1  UNL1       -0.1891
     27 C          -0.2589    0.5438   28.2053 C.3     1  UNL1        0.1299
     28 C          -1.2874   -0.4862   28.5679 C.3     1  UNL1        0.0313
     29 C           1.1313    0.4428   28.7595 C.ar    1  UNL1        0.0106
     30 C           2.1553   -0.4059   28.0659 C.ar    1  UNL1       -0.0007
     31 C           3.5456   -0.5069   28.6200 C.ar    1  UNL1        0.0112
     32 C           3.9118    0.2408   29.8677 C.ar    1  UNL1        0.0585
     33 CL          5.3020    0.1399   30.4220 Cl      1  UNL1       -0.0822
     34 C           2.8877    1.0895   30.5613 C.ar    1  UNL1        0.0225
     35 C           1.4975    1.1905   30.0072 C.ar    1  UNL1        0.0563
     36 CL          0.4735    2.0392   30.7008 Cl      1  UNL1       -0.0825
@<TRIPOS>BOND
     1    11    10    1
     2    11    12    1
     3    12    13    1
     4    13     1    1
     5     1     2   ar
     6     2     3   ar
     7     3     4   ar
     8     4     5   ar
     9     5    25    1
    10    25    26    3
    11     5     6   ar
    12     6     7   ar
    13     7    27    1
    14    27    28    1
    15    27    29    1
    16    29    30   ar
    17    30    31   ar
    18    31    32   ar
    19    32    33    1
    20    32    34   ar
    21    34    35   ar
    22    35    36    1
    23     7     8   ar
    24     8     9   ar
    25    13    14    2
    26    14    15    1
    27    15    16    1
    28    16    17    1
    29    17    18    1
    30    18    19    1
    31    19    20    1
    32    20    21    1
    33    21    22    1
    34    22    23    1
    35    16    11    1
    36    21    17    1
    37     9     1   ar
    38     8     4   ar
    39    35    29   ar
    40    23    24    1
@<TRIPOS>MOLECULE
*****
 36 40 0 0 0
SMALL
GASTEIGER

@<TRIPOS>ATOM
      1 C           3.5766   -0.4105   26.5972 C.ar    1  UNL1        0.0978
      2 C           4.5605   -1.3883   27.1680 C.ar    1  UNL1        0.1177
      3 N           4.6334   -1.5996   28.6512 N.ar    1  UNL1       -0.2369
      4 C           3.7224   -0.8331   29.5636 C.ar    1  UNL1        0.1458
      5 C           3.5662   -0.8304   31.0555 C.ar    1  UNL1        0.1892
      6 N           2.4858    0.1490   31.4067 N.ar    1  UNL1       -0.1556
      7 N           1.9742    0.7516   30.1319 N.ar    1  UNL1       -0.2299
      8 C           2.7384    0.1447   28.9928 C.ar    1  UNL1        0.1798
      9 N           2.6655    0.3559   27.5096 N.ar    1  UNL1       -0.2242
     10 C           2.0822    2.4545   22.5279 C.3     1  UNL1        0.0017
     11 C           2.7564    1.2333   23.0792 C.3     1  UNL1        0.0194
     12 C           2.8294    1.0220   24.5625 C.3     1  UNL1        0.0289
     13 C           3.5036   -0.1992   25.1139 C.2     1  UNL1       -0.0071
     14 C           4.1050   -1.2092   24.1820 C.2     1  UNL1       -0.0275
     15 C           4.0321   -0.9979   22.6988 C.3     1  UNL1        0.0417
     16 C           3.3578    0.2233   22.1473 C.3     1  UNL1        0.0621
     17 N           3.2849    0.4346   20.6641 N.3     1  UNL1       -0.2727
     18 C           4.3228    1.1102   19.8177 C.3     1  UNL1        0.0721
     19 C           3.8407    1.1005   18.3973 C.3     1  UNL1        0.0188
     20 C           2.5047    0.4189   18.3659 C.3     1  UNL1        0.0199
     21 C           2.1613    0.0074   19.7669 C.3     1  UNL1        0.0870
     22 C           0.9134   -0.7061   20.1954 C.3     1  UNL1        0.1530
     23 O          -0.3038    0.0796   20.5845 O.3     1  UNL1       -0.3806
     24 H          -0.1190    0.5829   21.3928 H       1  UNL1        0.2105
     25 C           4.3525   -1.6613   32.0258 C.1     1  UNL1        0.1232
     26 N           5.1388   -2.4922   32.9960 N.1     1  UNL1       -0.1891
     27 C           0.8889    1.7806   30.0164 C.3     1  UNL1        0.1299
     28 C           0.2353    2.3233   31.2526 C.3     1  UNL1        0.0313
     29 C           0.4572    2.2669   28.6647 C.ar    1  UNL1        0.0106
     30 C           1.0966    3.4848   28.0664 C.ar    1  UNL1       -0.0007
     31 C           0.6649    3.9711   26.7147 C.ar    1  UNL1        0.0112
     32 C          -0.4062    3.2396   25.9613 C.ar    1  UNL1        0.0585
     33 CL         -0.8379    3.7258   24.6095 Cl      1  UNL1       -0.0822
     34 C          -1.0456    2.0217   26.5596 C.ar    1  UNL1        0.0225
     35 C          -0.6139    1.5354   27.9113 C.ar    1  UNL1        0.0563
     36 CL         -1.2533    0.3176   28.5096 Cl      1  UNL1       -0.0825
@<TRIPOS>BOND
     1    11    10    1
     2    11    12    1
     3    12    13    1
     4    13     1    1
     5     1     2   ar
     6     2     3   ar
     7     3     4   ar
     8     4     5   ar
     9     5    25    1
    10    25    26    3
    11     5     6   ar
    12     6     7   ar
    13     7    27    1
    14    27    28    1
    15    27    29    1
    16    29    30   ar
    17    30    31   ar
    18    31    32   ar
    19    32    33    1
    20    32    34   ar
    21    34    35   ar
    22    35    36    1
    23     7     8   ar
    24     8     9   ar
    25    13    14    2
    26    14    15    1
    27    15    16    1
    28    16    17    1
    29    17    18    1
    30    18    19    1
    31    19    20    1
    32    20    21    1
    33    21    22    1
    34    22    23    1
    35    16    11    1
    36    21    17    1
    37     9     1   ar
    38     8     4   ar
    39    35    29   ar
    40    23    24    1
@<TRIPOS>MOLECULE
*****
 36 40 0 0 0
SMALL
GASTEIGER

@<TRIPOS>ATOM
      1 C           5.7971   -2.7630   25.0850 C.ar    1  UNL1        0.0978
      2 C           6.4376   -4.0975   25.3277 C.ar    1  UNL1        0.1177
      3 N           6.7847   -4.5198   26.7245 N.ar    1  UNL1       -0.2369
      4 C           6.4912   -3.6077   27.8786 C.ar    1  UNL1        0.1458
      5 C           6.7186   -3.7512   29.3544 C.ar    1  UNL1        0.1892
      6 N           6.2185   -2.5054   30.0237 N.ar    1  UNL1       -0.1556
      7 N           5.6821   -1.5920   28.9616 N.ar    1  UNL1       -0.2299
      8 C           5.8506   -2.2733   27.6359 C.ar    1  UNL1        0.1798
      9 N           5.5036   -1.8509   26.2391 N.ar    1  UNL1       -0.2242
     10 C           4.1490   -3.9517   20.3026 C.3     1  UNL1        0.0017
     11 C           4.6259   -2.9350   21.2969 C.3     1  UNL1        0.0194
     12 C           4.9730   -3.3574   22.6938 C.3     1  UNL1        0.0289
     13 C           5.4500   -2.3406   23.6881 C.2     1  UNL1       -0.0071
     14 C           5.5799   -0.9015   23.2856 C.2     1  UNL1       -0.0275
     15 C           5.2328   -0.4791   21.8889 C.3     1  UNL1        0.0417
     16 C           4.7558   -1.4958   20.8944 C.3     1  UNL1        0.0621
     17 N           4.4088   -1.0734   19.4977 N.3     1  UNL1       -0.2727
     18 C           5.3694   -0.9355   18.3538 C.3     1  UNL1        0.0721
     19 C           4.5945   -0.4916   17.1487 C.3     1  UNL1        0.0188
     20 C           3.1549   -0.3551   17.5477 C.3     1  UNL1        0.0199
     21 C           3.0402   -0.7147   18.9994 C.3     1  UNL1        0.0870
     22 C           1.7784   -0.7154   19.8105 C.3     1  UNL1        0.1530
     23 O           0.5734    0.0336   19.3236 O.3     1  UNL1       -0.3806
     24 H           0.7635    0.9848   19.3202 H       1  UNL1        0.2105
     25 C           7.3373   -4.9330   30.0403 C.1     1  UNL1        0.1232
     26 N           7.9562   -6.1147   30.7262 N.1     1  UNL1       -0.1891
     27 C           5.0825   -0.2355   29.1858 C.3     1  UNL1        0.1299
     28 C           5.9149    0.8645   29.7749 C.3     1  UNL1        0.0313
     29 C           3.6503    0.0210   28.8210 C.ar    1  UNL1        0.0106
     30 C           3.3126    0.6351   27.4948 C.ar    1  UNL1       -0.0007
     31 C           1.8804    0.8916   27.1300 C.ar    1  UNL1        0.0112
     32 C           0.7859    0.5341   28.0915 C.ar    1  UNL1        0.0585
     33 CL         -0.6463    0.7906   27.7267 Cl      1  UNL1       -0.0822
     34 C           1.1237   -0.0800   29.4177 C.ar    1  UNL1        0.0225
     35 C           2.5558   -0.3365   29.7825 C.ar    1  UNL1        0.0563
     36 CL          2.8936   -0.9506   31.1087 Cl      1  UNL1       -0.0825
@<TRIPOS>BOND
     1    11    10    1
     2    11    12    1
     3    12    13    1
     4    13     1    1
     5     1     2   ar
     6     2     3   ar
     7     3     4   ar
     8     4     5   ar
     9     5    25    1
    10    25    26    3
    11     5     6   ar
    12     6     7   ar
    13     7    27    1
    14    27    28    1
    15    27    29    1
    16    29    30   ar
    17    30    31   ar
    18    31    32   ar
    19    32    33    1
    20    32    34   ar
    21    34    35   ar
    22    35    36    1
    23     7     8   ar
    24     8     9   ar
    25    13    14    2
    26    14    15    1
    27    15    16    1
    28    16    17    1
    29    17    18    1
    30    18    19    1
    31    19    20    1
    32    20    21    1
    33    21    22    1
    34    22    23    1
    35    16    11    1
    36    21    17    1
    37     9     1   ar
    38     8     4   ar
    39    35    29   ar
    40    23    24    1
@<TRIPOS>MOLECULE
*****
 36 40 0 0 0
SMALL
GASTEIGER

@<TRIPOS>ATOM
      1 C           0.8873    2.4409   23.4402 C.ar    1  UNL1        0.0978
      2 C          -0.3144    3.0901   22.8203 C.ar    1  UNL1        0.1177
      3 N          -0.4287    3.1861   21.3277 N.ar    1  UNL1       -0.2369
      4 C           0.6587    2.6329   20.4551 C.ar    1  UNL1        0.1458
      5 C           0.8216    2.5825   18.9648 C.ar    1  UNL1        0.1892
      6 N           2.1241    1.9021   18.6637 N.ar    1  UNL1       -0.1556
      7 N           2.7661    1.5320   19.9679 N.ar    1  UNL1       -0.2299
      8 C           1.8604    1.9837   21.0750 C.ar    1  UNL1        0.1798
      9 N           1.9747    1.8877   22.5676 N.ar    1  UNL1       -0.2242
     10 C          -1.0819    0.9727   28.0192 C.3     1  UNL1        0.0017
     11 C           0.0170    1.6108   27.2223 C.3     1  UNL1        0.0194
     12 C          -0.0973    1.7068   25.7297 C.3     1  UNL1        0.0289
     13 C           1.0016    2.3449   24.9328 C.2     1  UNL1       -0.0071
     14 C           2.2150    2.8870   25.6284 C.2     1  UNL1       -0.0275
     15 C           2.3294    2.7911   27.1209 C.3     1  UNL1        0.0417
     16 C           1.2304    2.1529   27.9179 C.3     1  UNL1        0.0621
     17 N           1.3448    2.0569   29.4104 N.3     1  UNL1       -0.2727
     18 C           0.8557    3.0732   30.3994 C.3     1  UNL1        0.0721
     19 C           1.1770    2.5722   31.7762 C.3     1  UNL1        0.0188
     20 C           1.8646    1.2462   31.6382 C.3     1  UNL1        0.0199
     21 C           1.9683    0.9278   30.1761 C.3     1  UNL1        0.0870
     22 C           2.5869   -0.3036   29.5836 C.3     1  UNL1        0.1530
     23 O           1.8284   -1.1123   28.5733 O.3     1  UNL1       -0.3806
     24 H           1.0499   -1.5086   28.9949 H       1  UNL1        0.2105
     25 C          -0.1477    3.1183   17.9533 C.1     1  UNL1        0.1232
     26 N          -1.1171    3.6541   16.9417 N.1     1  UNL1       -0.1891
     27 C           4.0826    0.8330   20.1355 C.3     1  UNL1        0.1299
     28 C           5.2647    1.5800   20.6783 C.3     1  UNL1        0.0313
     29 C           4.2171   -0.6131   19.7604 C.ar    1  UNL1        0.0106
     30 C           4.7831   -0.9917   18.4239 C.ar    1  UNL1       -0.0007
     31 C           4.9176   -2.4378   18.0487 C.ar    1  UNL1        0.0112
     32 C           4.4861   -3.5053   19.0101 C.ar    1  UNL1        0.0585
     33 CL          4.6205   -4.9514   18.6350 Cl      1  UNL1       -0.0822
     34 C           3.9200   -3.1267   20.3466 C.ar    1  UNL1        0.0225
     35 C           3.7855   -1.6806   20.7217 C.ar    1  UNL1        0.0563
     36 CL          3.2195   -1.3020   22.0582 Cl      1  UNL1       -0.0825
@<TRIPOS>BOND
     1    11    10    1
     2    11    12    1
     3    12    13    1
     4    13     1    1
     5     1     2   ar
     6     2     3   ar
     7     3     4   ar
     8     4     5   ar
     9     5    25    1
    10    25    26    3
    11     5     6   ar
    12     6     7   ar
    13     7    27    1
    14    27    28    1
    15    27    29    1
    16    29    30   ar
    17    30    31   ar
    18    31    32   ar
    19    32    33    1
    20    32    34   ar
    21    34    35   ar
    22    35    36    1
    23     7     8   ar
    24     8     9   ar
    25    13    14    2
    26    14    15    1
    27    15    16    1
    28    16    17    1
    29    17    18    1
    30    18    19    1
    31    19    20    1
    32    20    21    1
    33    21    22    1
    34    22    23    1
    35    16    11    1
    36    21    17    1
    37     9     1   ar
    38     8     4   ar
    39    35    29   ar
    40    23    24    1
@<TRIPOS>MOLECULE
*****
 36 40 0 0 0
SMALL
GASTEIGER

@<TRIPOS>ATOM
      1 C           6.4396   -3.5934   31.2195 C.ar    1  UNL1        0.0978
      2 C           6.9174   -4.9656   31.5921 C.ar    1  UNL1        0.1177
      3 N           7.3404   -5.9285   30.5226 N.ar    1  UNL1       -0.2369
      4 C           7.2857   -5.5192   29.0806 C.ar    1  UNL1        0.1458
      5 C           7.6355   -6.2474   27.8166 C.ar    1  UNL1        0.1892
      6 N           7.3740   -5.3252   26.6629 N.ar    1  UNL1       -0.1556
      7 N           6.8624   -4.0271   27.2138 N.ar    1  UNL1       -0.2299
      8 C           6.8079   -4.1471   28.7080 C.ar    1  UNL1        0.1798
      9 N           6.3849   -3.1842   29.7774 N.ar    1  UNL1       -0.2242
     10 C           7.4273    0.5591   34.1829 C.3     1  UNL1        0.0017
     11 C           6.5104   -0.5542   33.7707 C.3     1  UNL1        0.0194
     12 C           6.9335   -1.5172   32.7012 C.3     1  UNL1        0.0289
     13 C           6.0166   -2.6304   32.2890 C.2     1  UNL1       -0.0071
     14 C           4.6767   -2.7807   32.9462 C.2     1  UNL1       -0.0275
     15 C           4.2536   -1.8178   34.0157 C.3     1  UNL1        0.0417
     16 C           5.1705   -0.7045   34.4279 C.3     1  UNL1        0.0621
     17 N           4.7474    0.2584   35.4974 N.3     1  UNL1       -0.2727
     18 C           5.1860    0.2317   36.9316 C.3     1  UNL1        0.0721
     19 C           4.5211    1.3739   37.6410 C.3     1  UNL1        0.0188
     20 C           3.6717    2.1066   36.6452 C.3     1  UNL1        0.0199
     21 C           3.8115    1.4172   35.3204 C.3     1  UNL1        0.0870
     22 C           3.1344    1.8165   34.0429 C.3     1  UNL1        0.1530
     23 O           1.6397    1.9315   33.9904 O.3     1  UNL1       -0.3806
     24 H           1.2433    1.0553   34.1172 H       1  UNL1        0.2105
     25 C           8.1556   -7.6512   27.7229 C.1     1  UNL1        0.1232
     26 N           8.6758   -9.0550   27.6293 N.1     1  UNL1       -0.1891
     27 C           6.4737   -2.8209   26.4114 C.3     1  UNL1        0.1299
     28 C           6.0841   -2.9720   24.9708 C.3     1  UNL1        0.0313
     29 C           6.4746   -1.4634   27.0496 C.ar    1  UNL1        0.0106
     30 C           7.7640   -0.7166   27.2221 C.ar    1  UNL1       -0.0007
     31 C           7.7649    0.6408   27.8603 C.ar    1  UNL1        0.0112
     32 C           6.4764    1.2515   28.3259 C.ar    1  UNL1        0.0585
     33 CL          6.4772    2.6090   28.9641 Cl      1  UNL1       -0.0822
     34 C           5.1870    0.5048   28.1533 C.ar    1  UNL1        0.0225
     35 C           5.1861   -0.8527   27.5152 C.ar    1  UNL1        0.0563
     36 CL          3.8967   -1.5995   27.3426 Cl      1  UNL1       -0.0825
@<TRIPOS>BOND
     1    11    10    1
     2    11    12    1
     3    12    13    1
     4    13     1    1
     5     1     2   ar
     6     2     3   ar
     7     3     4   ar
     8     4     5   ar
     9     5    25    1
    10    25    26    3
    11     5     6   ar
    12     6     7   ar
    13     7    27    1
    14    27    28    1
    15    27    29    1
    16    29    30   ar
    17    30    31   ar
    18    31    32   ar
    19    32    33    1
    20    32    34   ar
    21    34    35   ar
    22    35    36    1
    23     7     8   ar
    24     8     9   ar
    25    13    14    2
    26    14    15    1
    27    15    16    1
    28    16    17    1
    29    17    18    1
    30    18    19    1
    31    19    20    1
    32    20    21    1
    33    21    22    1
    34    22    23    1
    35    16    11    1
    36    21    17    1
    37     9     1   ar
    38     8     4   ar
    39    35    29   ar
    40    23    24    1
@<TRIPOS>MOLECULE
*****
 36 40 0 0 0
SMALL
GASTEIGER

@<TRIPOS>ATOM
      1 C           2.8675   -0.0355   25.7592 C.ar    1  UNL1        0.0978
      2 C           3.3661   -0.5742   27.0673 C.ar    1  UNL1        0.1177
      3 N           2.9525    0.0777   28.3534 N.ar    1  UNL1       -0.2369
      4 C           2.0403    1.2683   28.3313 C.ar    1  UNL1        0.1458
      5 C           1.4665    2.1136   29.4296 C.ar    1  UNL1        0.1892
      6 N           0.6132    3.1746   28.8003 N.ar    1  UNL1       -0.1556
      7 N           0.6598    2.9851   27.3130 N.ar    1  UNL1       -0.2299
      8 C           1.5418    1.8070   27.0232 C.ar    1  UNL1        0.1798
      9 N           1.9553    1.1551   25.7371 N.ar    1  UNL1       -0.2242
     10 C           2.3297   -0.5950   20.6213 C.3     1  UNL1        0.0017
     11 C           3.0122   -0.9672   21.9041 C.3     1  UNL1        0.0194
     12 C           2.5986   -0.3152   23.1903 C.3     1  UNL1        0.0289
     13 C           3.2810   -0.6874   24.4731 C.2     1  UNL1       -0.0071
     14 C           4.3770   -1.7116   24.4699 C.2     1  UNL1       -0.0275
     15 C           4.7906   -2.3635   23.1839 C.3     1  UNL1        0.0417
     16 C           4.1081   -1.9913   21.9009 C.3     1  UNL1        0.0621
     17 N           4.5217   -2.6432   20.6149 N.3     1  UNL1       -0.2727
     18 C           3.9822   -3.9306   20.0656 C.3     1  UNL1        0.0721
     19 C           4.6745   -4.2052   18.7636 C.3     1  UNL1        0.0188
     20 C           5.6418   -3.0876   18.5081 C.3     1  UNL1        0.0199
     21 C           5.5473   -2.1222   19.6523 C.3     1  UNL1        0.0870
     22 C           6.3395   -0.8579   19.8067 C.3     1  UNL1        0.1530
     23 O           5.6354    0.4650   19.8737 O.3     1  UNL1       -0.3806
     24 H           5.2054    0.6458   19.0232 H       1  UNL1        0.2105
     25 C           1.7042    1.9300   30.8993 C.1     1  UNL1        0.1232
     26 N           1.9418    1.7463   32.3688 N.1     1  UNL1       -0.1891
     27 C          -0.0509    3.8261   26.2944 C.3     1  UNL1        0.1299
     28 C           0.6489    4.2214   25.0279 C.3     1  UNL1        0.0313
     29 C          -1.4616    4.2720   26.5422 C.ar    1  UNL1        0.0106
     30 C          -2.6086    3.4325   26.0630 C.ar    1  UNL1       -0.0007
     31 C          -4.0192    3.8783   26.3109 C.ar    1  UNL1        0.0112
     32 C          -4.2828    5.1636   27.0379 C.ar    1  UNL1        0.0585
     33 CL         -5.6934    5.6095   27.2858 Cl      1  UNL1       -0.0822
     34 C          -3.1358    6.0030   27.5171 C.ar    1  UNL1        0.0225
     35 C          -1.7252    5.5572   27.2693 C.ar    1  UNL1        0.0563
     36 CL         -0.5781    6.3966   27.7485 Cl      1  UNL1       -0.0825
@<TRIPOS>BOND
     1    11    10    1
     2    11    12    1
     3    12    13    1
     4    13     1    1
     5     1     2   ar
     6     2     3   ar
     7     3     4   ar
     8     4     5   ar
     9     5    25    1
    10    25    26    3
    11     5     6   ar
    12     6     7   ar
    13     7    27    1
    14    27    28    1
    15    27    29    1
    16    29    30   ar
    17    30    31   ar
    18    31    32   ar
    19    32    33    1
    20    32    34   ar
    21    34    35   ar
    22    35    36    1
    23     7     8   ar
    24     8     9   ar
    25    13    14    2
    26    14    15    1
    27    15    16    1
    28    16    17    1
    29    17    18    1
    30    18    19    1
    31    19    20    1
    32    20    21    1
    33    21    22    1
    34    22    23    1
    35    16    11    1
    36    21    17    1
    37     9     1   ar
    38     8     4   ar
    39    35    29   ar
    40    23    24    1
