@<TRIPOS>MOLECULE
*****
 23 27 0 0 0
SMALL
GASTEIGER

@<TRIPOS>ATOM
      1 O          -9.2518  -16.3562   23.6830 O.2     1  UNL1       -0.2699
      2 C          -8.4465  -17.3417   22.8890 C.2     1  UNL1        0.2503
      3 C          -6.9577  -17.2345   23.0362 C.2     1  UNL1        0.0679
      4 C          -6.5349  -16.1391   23.9696 C.2     1  UNL1        0.0016
      5 C          -5.0778  -15.8959   24.2294 C.2     1  UNL1       -0.0198
      6 C          -4.0434  -16.7481   23.5559 C.3     1  UNL1        0.0705
      7 C          -4.4661  -17.8436   22.6225 C.2     1  UNL1        0.0708
      8 N          -3.6800  -18.8379   21.8204 N.am    1  UNL1       -0.1647
      9 C          -4.6514  -19.6957   21.0649 C.2     1  UNL1        0.3311
     10 O          -4.2982  -20.8202   20.1371 O.2     1  UNL1       -0.2501
     11 N          -6.0378  -19.2315   21.4000 N.am    1  UNL1       -0.2388
     12 C          -5.9233  -18.0868   22.3627 C.2     1  UNL1        0.0713
     13 C          -7.3152  -19.7975   20.8768 C.3     1  UNL1        0.1213
     14 C          -8.7333  -19.3971   21.1573 C.3     1  UNL1        0.1156
     15 N          -9.2369  -18.3042   22.0528 N.am    1  UNL1       -0.2745
     16 C         -11.7785  -17.6143   22.5322 C.3     1  UNL1        0.0917
     17 C         -12.1854  -18.2722   23.6463 C.3     1  UNL1        0.0921
     18 N         -12.4775  -18.6493   24.3175 N.3     1  UNL1       -0.2713
     19 C         -13.4228  -17.7305   23.6017 C.3     1  UNL1        0.0722
     20 C         -12.9726  -17.0030   22.3696 C.3     1  UNL1        0.0191
     21 C         -11.5774  -17.1942   21.8533 C.3     1  UNL1        0.0224
     22 C         -10.6321  -18.1130   22.5691 C.3     1  UNL1        0.0191
     23 C         -11.0822  -18.8405   23.8012 C.3     1  UNL1        0.0722
@<TRIPOS>BOND
     1     1     2    2
     2     2     3    1
     3     3     4    1
     4     4     5    2
     5     5     6    1
     6     6     7    1
     7     7     8    2
     8     8     9    1
     9     9    10    2
    10     9    11   am
    11    11    12    1
    12    11    13    1
    13    13    14    1
    14    14    15    1
    15    16    15    1
    16    16    17    1
    17    17    18    1
    18    18    19    1
    19    19    20    1
    20    20    21    1
    21    21    22    1
    22    22    23    1
    23    15     2   am
    24    21    16    1
    25    12     3    2
    26    23    18    1
    27    12     7    1
@<TRIPOS>MOLECULE
*****
 23 27 0 0 0
SMALL
GASTEIGER

@<TRIPOS>ATOM
      1 O          -4.7098  -17.3068   23.0252 O.2     1  UNL1       -0.2699
      2 C          -6.0482  -17.7798   22.5404 C.2     1  UNL1        0.2503
      3 C          -7.2380  -17.0844   23.1326 C.2     1  UNL1        0.0679
      4 C          -6.8665  -16.0203   24.1224 C.2     1  UNL1        0.0016
      5 C          -7.9389  -15.2272   24.8087 C.2     1  UNL1       -0.0198
      6 C          -9.3826  -15.4982   24.5052 C.3     1  UNL1        0.0705
      7 C          -9.7541  -16.5622   23.5154 C.2     1  UNL1        0.0708
      8 N         -11.0821  -17.0502   23.0173 N.am    1  UNL1       -0.1647
      9 C         -10.8305  -18.1450   22.0231 C.2     1  UNL1        0.3311
     10 O         -11.8786  -18.9158   21.2764 O.2     1  UNL1       -0.2501
     11 N          -9.3470  -18.3336   21.9068 N.am    1  UNL1       -0.2388
     12 C          -8.6817  -17.3553   22.8291 C.2     1  UNL1        0.0713
     13 C          -8.6419  -19.3160   21.0329 C.3     1  UNL1        0.1213
     14 C          -7.1741  -19.5694   20.8565 C.3     1  UNL1        0.1156
     15 N          -6.0197  -18.8858   21.5274 N.am    1  UNL1       -0.2745
     16 C          -3.4073  -19.3627   21.1898 C.3     1  UNL1        0.0917
     17 C          -3.0649  -18.9437   19.9461 C.3     1  UNL1        0.0921
     18 N          -2.8098  -18.7043   19.2007 N.3     1  UNL1       -0.2713
     19 C          -1.7729  -19.3086   20.1006 C.3     1  UNL1        0.0722
     20 C          -2.1516  -19.7719   21.4760 C.3     1  UNL1        0.0191
     21 C          -3.5672  -19.6310   21.9516 C.3     1  UNL1        0.0224
     22 C          -4.6041  -19.0267   21.0518 C.3     1  UNL1        0.0191
     23 C          -4.2253  -18.5633   19.6763 C.3     1  UNL1        0.0722
@<TRIPOS>BOND
     1     1     2    2
     2     2     3    1
     3     3     4    1
     4     4     5    2
     5     5     6    1
     6     6     7    1
     7     7     8    2
     8     8     9    1
     9     9    10    2
    10     9    11   am
    11    11    12    1
    12    11    13    1
    13    13    14    1
    14    14    15    1
    15    16    15    1
    16    16    17    1
    17    17    18    1
    18    18    19    1
    19    19    20    1
    20    20    21    1
    21    21    22    1
    22    22    23    1
    23    15     2   am
    24    21    16    1
    25    12     3    2
    26    23    18    1
    27    12     7    1
@<TRIPOS>MOLECULE
*****
 23 27 0 0 0
SMALL
GASTEIGER

@<TRIPOS>ATOM
      1 O          -9.5573  -19.1174   21.1067 O.2     1  UNL1       -0.2699
      2 C          -8.3074  -18.5720   21.7318 C.2     1  UNL1        0.2503
      3 C          -7.0278  -19.2315   21.3104 C.2     1  UNL1        0.0679
      4 C          -7.2337  -20.3393   20.3203 C.2     1  UNL1        0.0016
      5 C          -6.0553  -21.1042   19.7949 C.2     1  UNL1       -0.0198
      6 C          -4.6709  -20.7614   20.2596 C.3     1  UNL1        0.0705
      7 C          -4.4650  -19.6536   21.2497 C.2     1  UNL1        0.0708
      8 N          -3.2276  -19.0934   21.8862 N.am    1  UNL1       -0.1647
      9 C          -3.6414  -17.9822   22.8050 C.2     1  UNL1        0.3311
     10 O          -2.7232  -17.1446   23.6449 O.2     1  UNL1       -0.2501
     11 N          -5.1344  -17.8556   22.7363 N.am    1  UNL1       -0.2388
     12 C          -5.6434  -18.8887   21.7751 C.2     1  UNL1        0.0713
     13 C          -5.9790  -16.8801   23.4854 C.3     1  UNL1        0.1213
     14 C          -7.4663  -16.6863   23.4760 C.3     1  UNL1        0.1156
     15 N          -8.5027  -17.4393   22.6955 N.am    1  UNL1       -0.2745
     16 C         -11.1537  -17.0680   22.7015 C.3     1  UNL1        0.0917
     17 C         -11.6954  -17.9481   23.5797 C.3     1  UNL1        0.0921
     18 N         -12.0698  -18.4636   24.1015 N.3     1  UNL1       -0.2713
     19 C         -12.9545  -17.5156   23.3475 C.3     1  UNL1        0.0722
     20 C         -12.3553  -16.5422   22.3762 C.3     1  UNL1        0.0191
     21 C         -10.8714  -16.5167   22.1589 C.3     1  UNL1        0.0224
     22 C          -9.9866  -17.4648   22.9129 C.3     1  UNL1        0.0191
     23 C         -10.5858  -18.4382   23.8842 C.3     1  UNL1        0.0722
@<TRIPOS>BOND
     1     1     2    2
     2     2     3    1
     3     3     4    1
     4     4     5    2
     5     5     6    1
     6     6     7    1
     7     7     8    2
     8     8     9    1
     9     9    10    2
    10     9    11   am
    11    11    12    1
    12    11    13    1
    13    13    14    1
    14    14    15    1
    15    16    15    1
    16    16    17    1
    17    17    18    1
    18    18    19    1
    19    19    20    1
    20    20    21    1
    21    21    22    1
    22    22    23    1
    23    15     2   am
    24    21    16    1
    25    12     3    2
    26    23    18    1
    27    12     7    1
@<TRIPOS>MOLECULE
*****
 23 27 0 0 0
SMALL
GASTEIGER

@<TRIPOS>ATOM
      1 O          -8.1117  -18.4661   19.9036 O.2     1  UNL1       -0.2699
      2 C          -8.9436  -18.7015   21.1294 C.2     1  UNL1        0.2503
      3 C         -10.2740  -18.0091   21.1560 C.2     1  UNL1        0.0679
      4 C         -10.5370  -17.1902   19.9271 C.2     1  UNL1        0.0016
      5 C         -11.8242  -16.4318   19.7926 C.2     1  UNL1       -0.0198
      6 C         -12.8483  -16.4924   20.8869 C.3     1  UNL1        0.0705
      7 C         -12.5852  -17.3113   22.1158 C.2     1  UNL1        0.0708
      8 N         -13.4008  -17.5598   23.3499 N.am    1  UNL1       -0.1647
      9 C         -12.6178  -18.4719   24.2471 C.2     1  UNL1        0.3311
     10 O         -13.0572  -18.9796   25.5885 O.2     1  UNL1       -0.2501
     11 N         -11.3182  -18.7870   23.5676 N.am    1  UNL1       -0.2388
     12 C         -11.2981  -18.0696   22.2503 C.2     1  UNL1        0.0713
     13 C         -10.2278  -19.6580   24.0952 C.3     1  UNL1        0.1213
     14 C          -8.9066  -20.0238   23.4865 C.3     1  UNL1        0.1156
     15 N          -8.3350  -19.5981   22.1666 N.am    1  UNL1       -0.2745
     16 C          -5.9699  -20.2700   21.1079 C.3     1  UNL1        0.0917
     17 C          -5.0615  -19.3400   21.4945 C.3     1  UNL1        0.0921
     18 N          -4.4750  -18.8010   21.7031 N.3     1  UNL1       -0.2713
     19 C          -4.0521  -19.9451   20.8301 C.3     1  UNL1        0.0722
     20 C          -5.0569  -20.9736   20.4027 C.3     1  UNL1        0.0191
     21 C          -6.4845  -20.8579   20.8481 C.3     1  UNL1        0.0224
     22 C          -6.9074  -19.7138   21.7211 C.3     1  UNL1        0.0191
     23 C          -5.9026  -18.6853   22.1486 C.3     1  UNL1        0.0722
@<TRIPOS>BOND
     1     1     2    2
     2     2     3    1
     3     3     4    1
     4     4     5    2
     5     5     6    1
     6     6     7    1
     7     7     8    2
     8     8     9    1
     9     9    10    2
    10     9    11   am
    11    11    12    1
    12    11    13    1
    13    13    14    1
    14    14    15    1
    15    16    15    1
    16    16    17    1
    17    17    18    1
    18    18    19    1
    19    19    20    1
    20    20    21    1
    21    21    22    1
    22    22    23    1
    23    15     2   am
    24    21    16    1
    25    12     3    2
    26    23    18    1
    27    12     7    1
@<TRIPOS>MOLECULE
*****
 23 27 0 0 0
SMALL
GASTEIGER

@<TRIPOS>ATOM
      1 O          -9.5183  -18.8805   21.8739 O.2     1  UNL1       -0.2699
      2 C          -8.7773  -17.8855   22.7172 C.2     1  UNL1        0.2503
      3 C          -7.2813  -17.9894   22.6831 C.2     1  UNL1        0.0679
      4 C          -6.7870  -19.0917   21.7941 C.2     1  UNL1        0.0016
      5 C          -5.3139  -19.3327   21.6466 C.2     1  UNL1       -0.0198
      6 C          -4.3351  -18.4713   22.3882 C.3     1  UNL1        0.0705
      7 C          -4.8294  -17.3690   23.2772 C.2     1  UNL1        0.0708
      8 N          -4.1082  -16.3652   24.1270 N.am    1  UNL1       -0.1647
      9 C          -5.1355  -15.5038   24.7997 C.2     1  UNL1        0.3311
     10 O          -4.8558  -14.3700   25.7412 O.2     1  UNL1       -0.2501
     11 N          -6.4918  -15.9752   24.3657 N.am    1  UNL1       -0.2388
     12 C          -6.3025  -17.1280   23.4247 C.2     1  UNL1        0.0713
     13 C          -7.8063  -15.4085   24.7863 C.3     1  UNL1        0.1213
     14 C          -9.1983  -15.8157   24.4038 C.3     1  UNL1        0.1156
     15 N          -9.6305  -16.9181   23.4829 N.am    1  UNL1       -0.2745
     16 C         -12.1273  -17.6200   22.8203 C.3     1  UNL1        0.0917
     17 C         -12.3968  -17.0961   21.5987 C.3     1  UNL1        0.0921
     18 N         -12.6063  -16.7988   20.8599 N.3     1  UNL1       -0.2713
     19 C         -13.6472  -17.6083   21.5750 C.3     1  UNL1        0.0722
     20 C         -13.3491  -18.1877   22.9261 C.3     1  UNL1        0.0191
     21 C         -12.0102  -17.9576   23.5621 C.3     1  UNL1        0.0224
     22 C         -10.9694  -17.1482   22.8470 C.3     1  UNL1        0.0191
     23 C         -11.2675  -16.5688   21.4959 C.3     1  UNL1        0.0722
@<TRIPOS>BOND
     1     1     2    2
     2     2     3    1
     3     3     4    1
     4     4     5    2
     5     5     6    1
     6     6     7    1
     7     7     8    2
     8     8     9    1
     9     9    10    2
    10     9    11   am
    11    11    12    1
    12    11    13    1
    13    13    14    1
    14    14    15    1
    15    16    15    1
    16    16    17    1
    17    17    18    1
    18    18    19    1
    19    19    20    1
    20    20    21    1
    21    21    22    1
    22    22    23    1
    23    15     2   am
    24    21    16    1
    25    12     3    2
    26    23    18    1
    27    12     7    1
@<TRIPOS>MOLECULE
*****
 23 27 0 0 0
SMALL
GASTEIGER

@<TRIPOS>ATOM
      1 O         -12.6035   -4.3809   19.6992 O.2     1  UNL1       -0.2699
      2 C         -12.3103   -3.1610   18.8769 C.2     1  UNL1        0.2503
      3 C         -13.3164   -2.0528   18.9749 C.2     1  UNL1        0.0679
      4 C         -14.4566   -2.3714   19.8960 C.2     1  UNL1        0.0016
      5 C         -15.5522   -1.3691   20.1078 C.2     1  UNL1       -0.0198
      6 C         -15.5075   -0.0480   19.3986 C.3     1  UNL1        0.0705
      7 C         -14.3673    0.2706   18.4776 C.2     1  UNL1        0.0708
      8 N         -14.0553    1.4806   17.6479 N.am    1  UNL1       -0.1647
      9 C         -12.7668    1.2261   16.9233 C.2     1  UNL1        0.3311
     10 O         -12.0827    2.1728   15.9820 O.2     1  UNL1       -0.2501
     11 N         -12.2825   -0.1412   17.3051 N.am    1  UNL1       -0.2388
     12 C         -13.2718   -0.7318   18.2657 C.2     1  UNL1        0.0713
     13 C         -11.0389   -0.8102   16.8234 C.3     1  UNL1        0.1213
     14 C         -10.4839   -2.1644   17.1515 C.3     1  UNL1        0.1156
     15 N         -11.0497   -3.2108   18.0655 N.am    1  UNL1       -0.2745
     16 C         -10.0325   -5.6216   18.6302 C.3     1  UNL1        0.0917
     17 C         -10.5746   -6.5151   17.7658 C.3     1  UNL1        0.0921
     18 N         -10.8764   -7.0936   17.2635 N.3     1  UNL1       -0.2713
     19 C          -9.8905   -7.5527   18.2966 C.3     1  UNL1        0.0722
     20 C          -9.2911   -6.5645   19.2526 C.3     1  UNL1        0.0191
     21 C          -9.6775   -5.1172   19.1756 C.3     1  UNL1        0.0224
     22 C         -10.6633   -4.6581   18.1425 C.3     1  UNL1        0.0191
     23 C         -11.2628   -5.6463   17.1864 C.3     1  UNL1        0.0722
@<TRIPOS>BOND
     1     1     2    2
     2     2     3    1
     3     3     4    1
     4     4     5    2
     5     5     6    1
     6     6     7    1
     7     7     8    2
     8     8     9    1
     9     9    10    2
    10     9    11   am
    11    11    12    1
    12    11    13    1
    13    13    14    1
    14    14    15    1
    15    16    15    1
    16    16    17    1
    17    17    18    1
    18    18    19    1
    19    19    20    1
    20    20    21    1
    21    21    22    1
    22    22    23    1
    23    15     2   am
    24    21    16    1
    25    12     3    2
    26    23    18    1
    27    12     7    1
@<TRIPOS>MOLECULE
*****
 23 27 0 0 0
SMALL
GASTEIGER

@<TRIPOS>ATOM
      1 O         -16.5490   -6.5617   19.6958 O.2     1  UNL1       -0.2699
      2 C         -15.1444   -6.5983   19.1706 C.2     1  UNL1        0.2503
      3 C         -14.3211   -5.3710   19.4277 C.2     1  UNL1        0.0679
      4 C         -15.0665   -4.3078   20.1786 C.2     1  UNL1        0.0016
      5 C         -14.3880   -3.0140   20.5183 C.2     1  UNL1       -0.0198
      6 C         -12.9640   -2.7833   20.1070 C.3     1  UNL1        0.0705
      7 C         -12.2186   -3.8465   19.3561 C.2     1  UNL1        0.0708
      8 N         -10.8178   -3.9039   18.8229 N.am    1  UNL1       -0.1647
      9 C         -10.6306   -5.2332   18.1537 C.2     1  UNL1        0.3311
     10 O          -9.3780   -5.7139   17.4826 O.2     1  UNL1       -0.2501
     11 N         -11.9157   -5.9974   18.2733 N.am    1  UNL1       -0.2388
     12 C         -12.8972   -5.1404   19.0164 C.2     1  UNL1        0.0713
     13 C         -12.1862   -7.3686   17.7509 C.3     1  UNL1        0.1213
     14 C         -13.4322   -8.2002   17.8258 C.3     1  UNL1        0.1156
     15 N         -14.7489   -7.8574   18.4577 N.am    1  UNL1       -0.2745
     16 C         -16.9566   -9.3666   18.5743 C.3     1  UNL1        0.0917
     17 C         -17.7301   -9.0564   17.5042 C.3     1  UNL1        0.0921
     18 N         -18.2332   -8.9021   16.8709 N.3     1  UNL1       -0.2713
     19 C         -18.6923   -9.9390   17.8528 C.3     1  UNL1        0.0722
     20 C         -17.8369  -10.2820   19.0363 C.3     1  UNL1        0.0191
     21 C         -16.5224   -9.5882   19.2379 C.3     1  UNL1        0.0224
     22 C         -16.0633   -8.5513   18.2560 C.3     1  UNL1        0.0191
     23 C         -16.9187   -8.2082   17.0726 C.3     1  UNL1        0.0722
@<TRIPOS>BOND
     1     1     2    2
     2     2     3    1
     3     3     4    1
     4     4     5    2
     5     5     6    1
     6     6     7    1
     7     7     8    2
     8     8     9    1
     9     9    10    2
    10     9    11   am
    11    11    12    1
    12    11    13    1
    13    13    14    1
    14    14    15    1
    15    16    15    1
    16    16    17    1
    17    17    18    1
    18    18    19    1
    19    19    20    1
    20    20    21    1
    21    21    22    1
    22    22    23    1
    23    15     2   am
    24    21    16    1
    25    12     3    2
    26    23    18    1
    27    12     7    1
@<TRIPOS>MOLECULE
*****
 23 27 0 0 0
SMALL
GASTEIGER

@<TRIPOS>ATOM
      1 O         -13.7574   -8.4518   18.7522 O.2     1  UNL1       -0.2699
      2 C         -13.7477   -6.9538   18.8307 C.2     1  UNL1        0.2503
      3 C         -12.4057   -6.3025   18.6733 C.2     1  UNL1        0.0679
      4 C         -11.2938   -7.2868   18.4618 C.2     1  UNL1        0.0016
      5 C          -9.8856   -6.8011   18.2862 C.2     1  UNL1       -0.0198
      6 C          -9.5892   -5.3312   18.3221 C.3     1  UNL1        0.0705
      7 C         -10.7011   -4.3468   18.5336 C.2     1  UNL1        0.0708
      8 N         -10.7137   -2.8491   18.6152 N.am    1  UNL1       -0.1647
      9 C         -12.1298   -2.4091   18.8413 C.2     1  UNL1        0.3311
     10 O         -12.6007   -0.9921   18.9842 O.2     1  UNL1       -0.2501
     11 N         -12.9924   -3.6349   18.8994 N.am    1  UNL1       -0.2388
     12 C         -12.1093   -4.8325   18.7093 C.2     1  UNL1        0.0713
     13 C         -14.4691   -3.6733   19.1087 C.3     1  UNL1        0.1213
     14 C         -15.4025   -4.8454   19.1798 C.3     1  UNL1        0.1156
     15 N         -15.0814   -6.3054   19.0561 N.am    1  UNL1       -0.2745
     16 C         -16.7733   -8.3756   19.1878 C.3     1  UNL1        0.0917
     17 C         -17.2443   -8.6087   17.9375 C.3     1  UNL1        0.0921
     18 N         -17.5576   -8.7881   17.1974 N.3     1  UNL1       -0.2713
     19 C         -18.0144   -9.6428   18.3423 C.3     1  UNL1        0.0722
     20 C         -17.4934   -9.3850   19.7252 C.3     1  UNL1        0.0191
     21 C         -16.5158   -8.2726   19.9631 C.3     1  UNL1        0.0224
     22 C         -16.0590   -7.4179   18.8181 C.3     1  UNL1        0.0191
     23 C         -16.5800   -7.6757   17.4353 C.3     1  UNL1        0.0722
@<TRIPOS>BOND
     1     1     2    2
     2     2     3    1
     3     3     4    1
     4     4     5    2
     5     5     6    1
     6     6     7    1
     7     7     8    2
     8     8     9    1
     9     9    10    2
    10     9    11   am
    11    11    12    1
    12    11    13    1
    13    13    14    1
    14    14    15    1
    15    16    15    1
    16    16    17    1
    17    17    18    1
    18    18    19    1
    19    19    20    1
    20    20    21    1
    21    21    22    1
    22    22    23    1
    23    15     2   am
    24    21    16    1
    25    12     3    2
    26    23    18    1
    27    12     7    1
@<TRIPOS>MOLECULE
*****
 23 27 0 0 0
SMALL
GASTEIGER

@<TRIPOS>ATOM
      1 O         -13.6357   -4.0707   17.9851 O.2     1  UNL1       -0.2699
      2 C         -14.0968   -5.4791   18.2178 C.2     1  UNL1        0.2503
      3 C         -15.4938   -5.6282   18.7431 C.2     1  UNL1        0.0679
      4 C         -16.1910   -4.3156   18.9448 C.2     1  UNL1        0.0016
      5 C         -17.5973   -4.2857   19.4658 C.2     1  UNL1       -0.0198
      6 C         -18.3063   -5.5684   19.7851 C.3     1  UNL1        0.0705
      7 C         -17.6091   -6.8810   19.5834 C.2     1  UNL1        0.0708
      8 N         -18.0500   -8.2969   19.8089 N.am    1  UNL1       -0.1647
      9 C         -16.9163   -9.2019   19.4273 C.2     1  UNL1        0.3311
     10 O         -16.9231  -10.7004   19.4952 O.2     1  UNL1       -0.2501
     11 N         -15.7746   -8.3454   18.9659 N.am    1  UNL1       -0.2388
     12 C         -16.2028   -6.9110   19.0624 C.2     1  UNL1        0.0713
     13 C         -14.4421   -8.8205   18.4918 C.3     1  UNL1        0.1213
     14 C         -13.2534   -8.0392   18.0162 C.3     1  UNL1        0.1156
     15 N         -13.0996   -6.5520   17.8942 N.am    1  UNL1       -0.2745
     16 C         -10.9611   -5.1869   17.0405 C.3     1  UNL1        0.0917
     17 C         -10.1740   -4.9314   18.1150 C.3     1  UNL1        0.0921
     18 N          -9.6641   -4.7526   18.7364 N.3     1  UNL1       -0.2713
     19 C          -9.2521   -4.2767   17.3748 C.3     1  UNL1        0.0722
     20 C         -10.1227   -4.5593   16.1864 C.3     1  UNL1        0.0191
     21 C         -11.4052   -5.3177   16.3596 C.3     1  UNL1        0.0224
     22 C         -11.8171   -5.7936   17.7211 C.3     1  UNL1        0.0191
     23 C         -10.9466   -5.5110   18.9095 C.3     1  UNL1        0.0722
@<TRIPOS>BOND
     1     1     2    2
     2     2     3    1
     3     3     4    1
     4     4     5    2
     5     5     6    1
     6     6     7    1
     7     7     8    2
     8     8     9    1
     9     9    10    2
    10     9    11   am
    11    11    12    1
    12    11    13    1
    13    13    14    1
    14    14    15    1
    15    16    15    1
    16    16    17    1
    17    17    18    1
    18    18    19    1
    19    19    20    1
    20    20    21    1
    21    21    22    1
    22    22    23    1
    23    15     2   am
    24    21    16    1
    25    12     3    2
    26    23    18    1
    27    12     7    1
