@<TRIPOS>MOLECULE
*****
 33 36 0 0 0
SMALL
GASTEIGER

@<TRIPOS>ATOM
      1 C         -14.2885    1.2873   17.5792 C.2     1  UNL1        0.2301
      2 O         -14.0151    2.3092   16.5158 O.2     1  UNL1       -0.2745
      3 N         -13.2586    0.2454   17.9008 N.am    1  UNL1       -0.2792
      4 C         -11.9551    0.2252   17.1589 C.3     1  UNL1        0.0951
      5 C         -10.9251   -0.8168   17.4804 C.3     1  UNL1        0.0410
      6 C         -11.1986   -1.8386   18.5439 C.3     1  UNL1        0.0724
      7 C         -12.5021   -1.8185   19.2859 C.3     1  UNL1        0.0410
      8 C         -13.5321   -0.7765   18.9643 C.3     1  UNL1        0.0951
      9 N         -10.1686   -2.8806   18.8655 N.pl3   1  UNL1       -0.3339
     10 H          -9.3545   -2.6318   19.3601 H       1  UNL1        0.1468
     11 C         -10.3789   -4.3015   18.4334 C.ar    1  UNL1        0.0469
     12 C         -11.3662   -4.6174   17.3492 C.ar    1  UNL1        0.0144
     13 C         -11.5765   -6.0383   16.9171 C.ar    1  UNL1        0.0036
     14 C         -10.7996   -7.1434   17.5693 C.ar    1  UNL1        0.0297
     15 C          -9.8123   -6.8274   18.6535 C.ar    1  UNL1        0.1414
     16 F          -9.0353   -7.9325   19.3056 F       1  UNL1       -0.2041
     17 C          -9.6020   -5.4065   19.0855 C.ar    1  UNL1        0.0439
     18 C         -15.5921    1.3075   18.3212 C.3     1  UNL1        0.1116
     19 C         -16.2699    4.3170   21.5974 C.ar    1  UNL1       -0.0062
     20 C         -15.5135    4.7097   20.3630 C.ar    1  UNL1       -0.0032
     21 C         -15.2876    3.7065   19.2709 C.ar    1  UNL1       -0.0041
     22 C         -15.8180    2.3106   19.4133 C.ar    1  UNL1       -0.0131
     23 C         -16.5743    1.9180   20.6477 C.ar    1  UNL1       -0.0041
     24 C         -16.8003    2.9212   21.7397 C.ar    1  UNL1       -0.0032
     25 C         -16.4958    5.3202   22.6895 C.3     1  UNL1        0.0992
     26 C         -11.8496    4.3838   24.8194 C.3     1  UNL1        0.0186
     27 C         -13.2577    4.8861   24.9425 C.3     1  UNL1        0.0703
     28 C         -14.1727    4.8520   23.7545 C.3     1  UNL1        0.0882
     29 N         -15.5808    5.3543   23.8776 N.3     1  UNL1       -0.2666
     30 C         -16.0737    5.8907   25.1888 C.3     1  UNL1        0.0897
     31 C         -15.1587    5.9248   26.3768 C.3     1  UNL1        0.0861
     32 N         -13.7507    5.4225   26.2537 N.3     1  UNL1       -0.2963
     33 H         -13.6447    4.6728   26.9371 H       1  UNL1        0.1233
@<TRIPOS>BOND
     1    27    26    1
     2    27    28    1
     3    28    29    1
     4    29    25    1
     5    25    19    1
     6    19    20   ar
     7    20    21   ar
     8    21    22   ar
     9    22    18    1
    10    18     1    1
    11     1     2    2
    12     1     3   am
    13     3     4    1
    14     4     5    1
    15     5     6    1
    16     6     9    1
    17     9    11    1
    18    11    12   ar
    19    12    13   ar
    20    13    14   ar
    21    14    15   ar
    22    15    16    1
    23    15    17   ar
    24     6     7    1
    25     7     8    1
    26    22    23   ar
    27    23    24   ar
    28    29    30    1
    29    30    31    1
    30    31    32    1
    31    32    27    1
    32    24    19   ar
    33     8     3    1
    34    17    11   ar
    35     9    10    1
    36    32    33    1
@<TRIPOS>MOLECULE
*****
 33 36 0 0 0
SMALL
GASTEIGER

@<TRIPOS>ATOM
      1 C          -1.6218    4.1946   18.9096 C.2     1  UNL1        0.2301
      2 O          -2.1945    4.2508   17.5244 O.2     1  UNL1       -0.2745
      3 N          -2.5072    3.8640   20.0744 N.am    1  UNL1       -0.2792
      4 C          -3.9653    3.5895   19.8540 C.3     1  UNL1        0.0951
      5 C          -4.8507    3.2589   21.0188 C.3     1  UNL1        0.0410
      6 C          -4.2780    3.2027   22.4040 C.3     1  UNL1        0.0724
      7 C          -2.8199    3.4772   22.6244 C.3     1  UNL1        0.0410
      8 C          -1.9345    3.8078   21.4596 C.3     1  UNL1        0.0951
      9 N          -5.1634    2.8721   23.5688 N.pl3   1  UNL1       -0.3339
     10 H          -5.6266    2.0041   23.6042 H       1  UNL1        0.1468
     11 C          -5.3430    3.8639   24.6796 C.ar    1  UNL1        0.0469
     12 C          -4.4418    3.8193   25.8778 C.ar    1  UNL1        0.0144
     13 C          -4.6214    4.8112   26.9888 C.ar    1  UNL1        0.0036
     14 C          -5.7022    5.8476   26.9014 C.ar    1  UNL1        0.0297
     15 C          -6.6035    5.8922   25.7030 C.ar    1  UNL1        0.1414
     16 F          -7.6843    6.9286   25.6156 F       1  UNL1       -0.2041
     17 C          -6.4239    4.9003   24.5922 C.ar    1  UNL1        0.0439
     18 C          -0.1637    4.4690   19.1300 C.3     1  UNL1        0.1116
     19 C           2.8787    1.2541   18.3185 C.ar    1  UNL1       -0.0062
     20 C           3.3238    2.6696   18.5388 C.ar    1  UNL1       -0.0032
     21 C           2.3097    3.7412   18.8093 C.ar    1  UNL1       -0.0041
     22 C           0.8504    3.3974   18.8595 C.ar    1  UNL1       -0.0131
     23 C           0.4054    1.9820   18.6391 C.ar    1  UNL1       -0.0041
     24 C           1.4195    0.9104   18.3686 C.ar    1  UNL1       -0.0032
     25 C           3.8928    0.1825   18.0479 C.3     1  UNL1        0.0992
     26 C           4.5096   -4.9126   18.8599 C.3     1  UNL1        0.0186
     27 C           4.3389   -3.5228   19.3977 C.3     1  UNL1        0.0703
     28 C           4.2012   -2.3651   18.4540 C.3     1  UNL1        0.0882
     29 N           4.0305   -0.9752   18.9918 N.3     1  UNL1       -0.2666
     30 C           3.9974   -0.7431   20.4733 C.3     1  UNL1        0.0897
     31 C           4.1351   -1.9008   21.4170 C.3     1  UNL1        0.0861
     32 N           4.3059   -3.2907   20.8792 N.3     1  UNL1       -0.2963
     33 H           3.5332   -3.8457   21.2471 H       1  UNL1        0.1233
@<TRIPOS>BOND
     1    27    26    1
     2    27    28    1
     3    28    29    1
     4    29    25    1
     5    25    19    1
     6    19    20   ar
     7    20    21   ar
     8    21    22   ar
     9    22    18    1
    10    18     1    1
    11     1     2    2
    12     1     3   am
    13     3     4    1
    14     4     5    1
    15     5     6    1
    16     6     9    1
    17     9    11    1
    18    11    12   ar
    19    12    13   ar
    20    13    14   ar
    21    14    15   ar
    22    15    16    1
    23    15    17   ar
    24     6     7    1
    25     7     8    1
    26    22    23   ar
    27    23    24   ar
    28    29    30    1
    29    30    31    1
    30    31    32    1
    31    32    27    1
    32    24    19   ar
    33     8     3    1
    34    17    11   ar
    35     9    10    1
    36    32    33    1
@<TRIPOS>MOLECULE
*****
 33 36 0 0 0
SMALL
GASTEIGER

@<TRIPOS>ATOM
      1 C         -15.1749   -0.0902   18.1340 C.2     1  UNL1        0.2301
      2 O         -15.2509    0.7050   16.8645 O.2     1  UNL1       -0.2745
      3 N         -14.0124   -1.0066   18.3766 N.am    1  UNL1       -0.2792
      4 C         -12.9258   -1.1277   17.3496 C.3     1  UNL1        0.0951
      5 C         -11.7633   -2.0441   17.5922 C.3     1  UNL1        0.0410
      6 C         -11.6873   -2.8393   18.8617 C.3     1  UNL1        0.0724
      7 C         -12.7739   -2.7182   19.8888 C.3     1  UNL1        0.0410
      8 C         -13.9364   -1.8019   19.6462 C.3     1  UNL1        0.0951
      9 N         -10.5248   -3.7557   19.1043 N.pl3   1  UNL1       -0.3339
     10 H          -9.7388   -3.4327   19.6014 H       1  UNL1        0.1468
     11 C         -10.5599   -5.1641   18.5895 C.ar    1  UNL1        0.0469
     12 C          -9.5939   -6.1811   19.1210 C.ar    1  UNL1        0.0144
     13 C          -9.6289   -7.5896   18.6062 C.ar    1  UNL1        0.0036
     14 C         -10.6299   -7.9810   17.5599 C.ar    1  UNL1        0.0297
     15 C         -11.5960   -6.9639   17.0284 C.ar    1  UNL1        0.1414
     16 F         -12.5970   -7.3554   15.9822 F       1  UNL1       -0.2041
     17 C         -11.5609   -5.5555   17.5432 C.ar    1  UNL1        0.0439
     18 C         -16.2615    0.0309   19.1611 C.3     1  UNL1        0.1116
     19 C         -16.4772    3.6774   21.7891 C.ar    1  UNL1       -0.0062
     20 C         -15.6334    3.6955   20.5490 C.ar    1  UNL1       -0.0032
     21 C         -15.5615    2.4800   19.6730 C.ar    1  UNL1       -0.0041
     22 C         -16.3334    1.2464   20.0371 C.ar    1  UNL1       -0.0131
     23 C         -17.1771    1.2283   21.2772 C.ar    1  UNL1       -0.0041
     24 C         -17.2490    2.4438   22.1532 C.ar    1  UNL1       -0.0032
     25 C         -16.5491    4.8929   22.6651 C.3     1  UNL1        0.0992
     26 C         -15.8312    5.4552   27.7806 C.3     1  UNL1        0.0186
     27 C         -15.2678    5.3070   26.3983 C.3     1  UNL1        0.0703
     28 C         -16.1901    5.1740   25.2229 C.3     1  UNL1        0.0882
     29 N         -15.6267    5.0258   23.8406 N.3     1  UNL1       -0.2666
     30 C         -14.1412    5.0105   23.6338 C.3     1  UNL1        0.0897
     31 C         -13.2189    5.1434   24.8092 C.3     1  UNL1        0.0861
     32 N         -13.7823    5.2917   26.1915 N.3     1  UNL1       -0.2963
     33 H         -13.4243    6.1717   26.5626 H       1  UNL1        0.1233
@<TRIPOS>BOND
     1    27    26    1
     2    27    28    1
     3    28    29    1
     4    29    25    1
     5    25    19    1
     6    19    20   ar
     7    20    21   ar
     8    21    22   ar
     9    22    18    1
    10    18     1    1
    11     1     2    2
    12     1     3   am
    13     3     4    1
    14     4     5    1
    15     5     6    1
    16     6     9    1
    17     9    11    1
    18    11    12   ar
    19    12    13   ar
    20    13    14   ar
    21    14    15   ar
    22    15    16    1
    23    15    17   ar
    24     6     7    1
    25     7     8    1
    26    22    23   ar
    27    23    24   ar
    28    29    30    1
    29    30    31    1
    30    31    32    1
    31    32    27    1
    32    24    19   ar
    33     8     3    1
    34    17    11   ar
    35     9    10    1
    36    32    33    1
@<TRIPOS>MOLECULE
*****
 33 36 0 0 0
SMALL
GASTEIGER

@<TRIPOS>ATOM
      1 C           6.0583   -2.6149   18.6145 C.2     1  UNL1        0.2301
      2 O           6.8654   -2.0344   17.4914 O.2     1  UNL1       -0.2745
      3 N           6.7247   -2.9738   19.9096 N.am    1  UNL1       -0.2792
      4 C           8.1982   -2.7521   20.0815 C.3     1  UNL1        0.0951
      5 C           8.8645   -3.1109   21.3765 C.3     1  UNL1        0.0410
      6 C           8.0574   -3.6915   22.4997 C.3     1  UNL1        0.0724
      7 C           6.5838   -3.9132   22.3278 C.3     1  UNL1        0.0410
      8 C           5.9175   -3.5543   21.0327 C.3     1  UNL1        0.0951
      9 N           8.7238   -4.0503   23.7947 N.pl3   1  UNL1       -0.3339
     10 H           9.5075   -3.5403   24.1030 H       1  UNL1        0.1468
     11 C           8.1962   -5.1862   24.6202 C.ar    1  UNL1        0.0469
     12 C           8.5766   -6.5976   24.2839 C.ar    1  UNL1        0.0144
     13 C           8.0490   -7.7336   25.1094 C.ar    1  UNL1        0.0036
     14 C           7.1409   -7.4580   26.2711 C.ar    1  UNL1        0.0297
     15 C           6.7605   -6.0465   26.6073 C.ar    1  UNL1        0.1414
     16 F           5.8524   -5.7709   27.7690 F       1  UNL1       -0.2041
     17 C           7.2881   -4.9106   25.7818 C.ar    1  UNL1        0.0439
     18 C           4.5847   -2.8366   18.4426 C.3     1  UNL1        0.1116
     19 C           1.6848    0.4661   19.4081 C.ar    1  UNL1       -0.0062
     20 C           2.5450    0.5578   18.1826 C.ar    1  UNL1       -0.0032
     21 C           3.5116   -0.5431   17.8608 C.ar    1  UNL1       -0.0041
     22 C           3.6181   -1.7357   18.7644 C.ar    1  UNL1       -0.0131
     23 C           2.7579   -1.8273   19.9899 C.ar    1  UNL1       -0.0041
     24 C           1.7913   -0.7264   20.3117 C.ar    1  UNL1       -0.0032
     25 C           0.7182    1.5671   19.7300 C.3     1  UNL1        0.0992
     26 C          -1.2259    4.5977   15.9836 C.3     1  UNL1        0.0186
     27 C          -0.2224    4.3610   17.0730 C.3     1  UNL1        0.0703
     28 C          -0.2539    3.0824   17.8568 C.3     1  UNL1        0.0882
     29 N           0.7496    2.8457   18.9462 N.3     1  UNL1       -0.2666
     30 C           1.7846    3.8875   19.2519 C.3     1  UNL1        0.0897
     31 C           1.8160    5.1660   18.4682 C.3     1  UNL1        0.0861
     32 N           0.8125    5.4028   17.3787 N.3     1  UNL1       -0.2963
     33 H           1.3409    5.5539   16.5195 H       1  UNL1        0.1233
@<TRIPOS>BOND
     1    27    26    1
     2    27    28    1
     3    28    29    1
     4    29    25    1
     5    25    19    1
     6    19    20   ar
     7    20    21   ar
     8    21    22   ar
     9    22    18    1
    10    18     1    1
    11     1     2    2
    12     1     3   am
    13     3     4    1
    14     4     5    1
    15     5     6    1
    16     6     9    1
    17     9    11    1
    18    11    12   ar
    19    12    13   ar
    20    13    14   ar
    21    14    15   ar
    22    15    16    1
    23    15    17   ar
    24     6     7    1
    25     7     8    1
    26    22    23   ar
    27    23    24   ar
    28    29    30    1
    29    30    31    1
    30    31    32    1
    31    32    27    1
    32    24    19   ar
    33     8     3    1
    34    17    11   ar
    35     9    10    1
    36    32    33    1
@<TRIPOS>MOLECULE
*****
 33 36 0 0 0
SMALL
GASTEIGER

@<TRIPOS>ATOM
      1 C           6.1704   -2.6478   18.5473 C.2     1  UNL1        0.2301
      2 O           7.0004   -2.0619   17.4438 O.2     1  UNL1       -0.2745
      3 N           6.8034   -2.9819   19.8655 N.am    1  UNL1       -0.2792
      4 C           8.2664   -2.7302   20.0802 C.3     1  UNL1        0.0951
      5 C           8.8993   -3.0644   21.3984 C.3     1  UNL1        0.0410
      6 C           8.0693   -3.6503   22.5019 C.3     1  UNL1        0.0724
      7 C           6.6062   -3.9020   22.2872 C.3     1  UNL1        0.0410
      8 C           5.9732   -3.5678   20.9690 C.3     1  UNL1        0.0951
      9 N           8.7023   -3.9844   23.8201 N.pl3   1  UNL1       -0.3339
     10 H           9.4570   -3.4475   24.1540 H       1  UNL1        0.1468
     11 C           8.1854   -5.1366   24.6297 C.ar    1  UNL1        0.0469
     12 C           8.5867   -6.5388   24.2796 C.ar    1  UNL1        0.0144
     13 C           8.0698   -7.6911   25.0892 C.ar    1  UNL1        0.0036
     14 C           7.1518   -7.4409   26.2488 C.ar    1  UNL1        0.0297
     15 C           6.7505   -6.0386   26.5988 C.ar    1  UNL1        0.1414
     16 F           5.8325   -5.7884   27.7583 F       1  UNL1       -0.2041
     17 C           7.2674   -4.8864   25.7892 C.ar    1  UNL1        0.0439
     18 C           4.7073   -2.8995   18.3326 C.3     1  UNL1        0.1116
     19 C           1.7107    0.3311   19.2456 C.ar    1  UNL1       -0.0062
     20 C           1.8206   -0.8653   20.1436 C.ar    1  UNL1       -0.0032
     21 C           2.8195   -1.9422   19.8393 C.ar    1  UNL1       -0.0041
     22 C           3.7084   -1.8226   18.6369 C.ar    1  UNL1       -0.0131
     23 C           3.5984   -0.6262   17.7390 C.ar    1  UNL1       -0.0041
     24 C           2.5996    0.4507   18.0433 C.ar    1  UNL1       -0.0032
     25 C           0.7119    1.4080   19.5499 C.3     1  UNL1        0.0992
     26 C          -1.5780    3.5843   23.6755 C.3     1  UNL1        0.0186
     27 C          -0.3366    3.2679   22.8953 C.3     1  UNL1        0.0703
     28 C          -0.4331    2.4962   21.6127 C.3     1  UNL1        0.0882
     29 N           0.8084    2.1798   20.8326 N.3     1  UNL1       -0.2666
     30 C           2.1464    2.6351   21.3350 C.3     1  UNL1        0.0897
     31 C           2.2429    3.4068   22.6176 C.3     1  UNL1        0.0861
     32 N           1.0014    3.7232   23.3977 N.3     1  UNL1       -0.2963
     33 H           0.9554    4.7390   23.4788 H       1  UNL1        0.1233
@<TRIPOS>BOND
     1    27    26    1
     2    27    28    1
     3    28    29    1
     4    29    25    1
     5    25    19    1
     6    19    20   ar
     7    20    21   ar
     8    21    22   ar
     9    22    18    1
    10    18     1    1
    11     1     2    2
    12     1     3   am
    13     3     4    1
    14     4     5    1
    15     5     6    1
    16     6     9    1
    17     9    11    1
    18    11    12   ar
    19    12    13   ar
    20    13    14   ar
    21    14    15   ar
    22    15    16    1
    23    15    17   ar
    24     6     7    1
    25     7     8    1
    26    22    23   ar
    27    23    24   ar
    28    29    30    1
    29    30    31    1
    30    31    32    1
    31    32    27    1
    32    24    19   ar
    33     8     3    1
    34    17    11   ar
    35     9    10    1
    36    32    33    1
@<TRIPOS>MOLECULE
*****
 33 36 0 0 0
SMALL
GASTEIGER

@<TRIPOS>ATOM
      1 C           3.8091   -1.8980   18.6092 C.2     1  UNL1        0.2301
      2 O           4.6410   -1.8100   17.3642 O.2     1  UNL1       -0.2745
      3 N           3.0223   -0.7073   19.0712 N.am    1  UNL1       -0.2792
      4 C           3.0675    0.5712   18.2881 C.3     1  UNL1        0.0951
      5 C           2.2808    1.7619   18.7501 C.3     1  UNL1        0.0410
      6 C           1.4488    1.6740   19.9950 C.3     1  UNL1        0.0724
      7 C           1.4036    0.3954   20.7782 C.3     1  UNL1        0.0410
      8 C           2.1903   -0.7953   20.3162 C.3     1  UNL1        0.0951
      9 N           0.6621    2.8646   20.4570 N.pl3   1  UNL1       -0.3339
     10 H           0.9800    3.3985   21.2206 H       1  UNL1        0.1468
     11 C          -0.6090    3.2417   19.7555 C.ar    1  UNL1        0.0469
     12 C          -0.5655    3.7432   18.3425 C.ar    1  UNL1        0.0144
     13 C          -1.8366    4.1203   17.6410 C.ar    1  UNL1        0.0036
     14 C          -3.1512    3.9960   18.3525 C.ar    1  UNL1        0.0297
     15 C          -3.1947    3.4945   19.7656 C.ar    1  UNL1        0.1414
     16 F          -4.5094    3.3702   20.4771 F       1  UNL1       -0.2041
     17 C          -1.9237    3.1174   20.4671 C.ar    1  UNL1        0.0439
     18 C           3.7638   -3.1766   19.3923 C.3     1  UNL1        0.1116
     19 C           6.8962   -4.0162   22.5122 C.ar    1  UNL1       -0.0062
     20 C           7.2681   -4.0084   21.0590 C.ar    1  UNL1       -0.0032
     21 C           6.2240   -3.7285   20.0191 C.ar    1  UNL1       -0.0041
     22 C           4.8079   -3.4564   20.4323 C.ar    1  UNL1       -0.0131
     23 C           4.4360   -3.4642   21.8854 C.ar    1  UNL1       -0.0041
     24 C           5.4801   -3.7440   22.9253 C.ar    1  UNL1       -0.0032
     25 C           7.9403   -4.2960   23.5522 C.3     1  UNL1        0.0992
     26 C           6.1926   -5.2921   28.3432 C.3     1  UNL1        0.0186
     27 C           6.7838   -5.7709   27.0504 C.3     1  UNL1        0.0703
     28 C           7.0665   -4.7941   25.9477 C.3     1  UNL1        0.0882
     29 N           7.6576   -5.2729   24.6549 N.3     1  UNL1       -0.2666
     30 C           7.9660   -6.7284   24.4647 C.3     1  UNL1        0.0897
     31 C           7.6833   -7.7052   25.5674 C.3     1  UNL1        0.0861
     32 N           7.0922   -7.2264   26.8602 N.3     1  UNL1       -0.2963
     33 H           7.7466   -7.4875   27.5978 H       1  UNL1        0.1233
@<TRIPOS>BOND
     1    27    26    1
     2    27    28    1
     3    28    29    1
     4    29    25    1
     5    25    19    1
     6    19    20   ar
     7    20    21   ar
     8    21    22   ar
     9    22    18    1
    10    18     1    1
    11     1     2    2
    12     1     3   am
    13     3     4    1
    14     4     5    1
    15     5     6    1
    16     6     9    1
    17     9    11    1
    18    11    12   ar
    19    12    13   ar
    20    13    14   ar
    21    14    15   ar
    22    15    16    1
    23    15    17   ar
    24     6     7    1
    25     7     8    1
    26    22    23   ar
    27    23    24   ar
    28    29    30    1
    29    30    31    1
    30    31    32    1
    31    32    27    1
    32    24    19   ar
    33     8     3    1
    34    17    11   ar
    35     9    10    1
    36    32    33    1
@<TRIPOS>MOLECULE
*****
 33 36 0 0 0
SMALL
GASTEIGER

@<TRIPOS>ATOM
      1 C           5.0145   -2.6182   18.8386 C.2     1  UNL1        0.2301
      2 O           5.6839   -2.4176   17.5113 O.2     1  UNL1       -0.2745
      3 N           5.8344   -2.9541   20.0489 N.am    1  UNL1       -0.2792
      4 C           7.3237   -3.0895   19.9320 C.3     1  UNL1        0.0951
      5 C           8.1436   -3.4255   21.1423 C.3     1  UNL1        0.0410
      6 C           7.4742   -3.6261   22.4696 C.3     1  UNL1        0.0724
      7 C           5.9849   -3.4907   22.5866 C.3     1  UNL1        0.0410
      8 C           5.1650   -3.1547   21.3762 C.3     1  UNL1        0.0951
      9 N           8.2941   -3.9621   23.6799 N.pl3   1  UNL1       -0.3339
     10 H           9.0918   -3.4279   23.8978 H       1  UNL1        0.1468
     11 C           7.8987   -5.1120   24.5581 C.ar    1  UNL1        0.0469
     12 C           8.3182   -6.5072   24.2011 C.ar    1  UNL1        0.0144
     13 C           7.9227   -7.6572   25.0793 C.ar    1  UNL1        0.0036
     14 C           7.1077   -7.4119   26.3145 C.ar    1  UNL1        0.0297
     15 C           6.6882   -6.0166   26.6714 C.ar    1  UNL1        0.1414
     16 F           5.8732   -5.7714   27.9066 F       1  UNL1       -0.2041
     17 C           7.0837   -4.8667   25.7932 C.ar    1  UNL1        0.0439
     18 C           3.5252   -2.4828   18.9556 C.3     1  UNL1        0.1116
     19 C           1.6963    1.5219   19.8871 C.ar    1  UNL1       -0.0062
     20 C           1.4762    0.3631   20.8139 C.ar    1  UNL1       -0.0032
     21 C           2.0858   -0.9718   20.5034 C.ar    1  UNL1       -0.0041
     22 C           2.9155   -1.1479   19.2661 C.ar    1  UNL1       -0.0131
     23 C           3.1356    0.0109   18.3395 C.ar    1  UNL1       -0.0041
     24 C           2.5259    1.3458   18.6500 C.ar    1  UNL1       -0.0032
     25 C           1.0866    2.8568   20.1976 C.3     1  UNL1        0.0992
     26 C          -4.0428    3.2599   20.9234 C.3     1  UNL1        0.0186
     27 C          -2.8413    3.4004   20.0365 C.3     1  UNL1        0.0703
     28 C          -1.4781    3.0583   20.5605 C.3     1  UNL1        0.0882
     29 N          -0.2766    3.1989   19.6735 N.3     1  UNL1       -0.2666
     30 C          -0.4383    3.6815   18.2626 C.3     1  UNL1        0.0897
     31 C          -1.8015    4.0235   17.7385 C.3     1  UNL1        0.0861
     32 N          -3.0030    3.8830   18.6255 N.3     1  UNL1       -0.2963
     33 H          -3.6364    3.2314   18.1622 H       1  UNL1        0.1233
@<TRIPOS>BOND
     1    27    26    1
     2    27    28    1
     3    28    29    1
     4    29    25    1
     5    25    19    1
     6    19    20   ar
     7    20    21   ar
     8    21    22   ar
     9    22    18    1
    10    18     1    1
    11     1     2    2
    12     1     3   am
    13     3     4    1
    14     4     5    1
    15     5     6    1
    16     6     9    1
    17     9    11    1
    18    11    12   ar
    19    12    13   ar
    20    13    14   ar
    21    14    15   ar
    22    15    16    1
    23    15    17   ar
    24     6     7    1
    25     7     8    1
    26    22    23   ar
    27    23    24   ar
    28    29    30    1
    29    30    31    1
    30    31    32    1
    31    32    27    1
    32    24    19   ar
    33     8     3    1
    34    17    11   ar
    35     9    10    1
    36    32    33    1
@<TRIPOS>MOLECULE
*****
 33 36 0 0 0
SMALL
GASTEIGER

@<TRIPOS>ATOM
      1 C           7.7666   -4.9937   25.3699 C.2     1  UNL1        0.2301
      2 O           8.1598   -6.2860   24.7179 O.2     1  UNL1       -0.2745
      3 N           7.4809   -4.9529   26.8419 N.am    1  UNL1       -0.2792
      4 C           7.5883   -6.2044   27.6618 C.3     1  UNL1        0.0951
      5 C           7.3025   -6.1635   29.1337 C.3     1  UNL1        0.0410
      6 C           6.9093   -4.8712   29.7858 C.3     1  UNL1        0.0724
      7 C           6.8019   -3.6196   28.9660 C.3     1  UNL1        0.0410
      8 C           7.0877   -3.6605   27.4940 C.3     1  UNL1        0.0951
      9 N           6.6236   -4.8303   31.2578 N.pl3   1  UNL1       -0.3339
     10 H           6.4026   -5.6600   31.7395 H       1  UNL1        0.1468
     11 C           6.6744   -3.5255   31.9957 C.ar    1  UNL1        0.0469
     12 C           7.9924   -2.8512   32.2370 C.ar    1  UNL1        0.0144
     13 C           8.0434   -1.5462   32.9749 C.ar    1  UNL1        0.0036
     14 C           6.7763   -0.9156   33.4717 C.ar    1  UNL1        0.0297
     15 C           5.4582   -1.5899   33.2305 C.ar    1  UNL1        0.1414
     16 F           4.1911   -0.9593   33.7272 F       1  UNL1       -0.2041
     17 C           5.4073   -2.8948   32.4925 C.ar    1  UNL1        0.0439
     18 C           7.6592   -3.7422   24.5501 C.3     1  UNL1        0.1116
     19 C           4.9980   -3.6503   20.9224 C.ar    1  UNL1       -0.0062
     20 C           6.4714   -3.8848   20.7661 C.ar    1  UNL1       -0.0032
     21 C           7.3584   -3.9155   21.9753 C.ar    1  UNL1       -0.0041
     22 C           6.7721   -3.7115   23.3409 C.ar    1  UNL1       -0.0131
     23 C           5.2989   -3.4770   23.4972 C.ar    1  UNL1       -0.0041
     24 C           4.4118   -3.4464   22.2880 C.ar    1  UNL1       -0.0032
     25 C           4.1110   -3.6197   19.7132 C.3     1  UNL1        0.0992
     26 C           0.7130    0.2913   20.1105 C.3     1  UNL1        0.0186
     27 C           1.8707   -0.3577   19.4117 C.3     1  UNL1        0.0703
     28 C           2.4120   -1.6642   19.9118 C.3     1  UNL1        0.0882
     29 N           3.5697   -2.3132   19.2130 N.3     1  UNL1       -0.2666
     30 C           4.1862   -1.6558   18.0140 C.3     1  UNL1        0.0897
     31 C           3.6450   -0.3493   17.5138 C.3     1  UNL1        0.0861
     32 N           2.4873    0.2997   18.2127 N.3     1  UNL1       -0.2963
     33 H           1.7458    0.4034   17.5199 H       1  UNL1        0.1233
@<TRIPOS>BOND
     1    27    26    1
     2    27    28    1
     3    28    29    1
     4    29    25    1
     5    25    19    1
     6    19    20   ar
     7    20    21   ar
     8    21    22   ar
     9    22    18    1
    10    18     1    1
    11     1     2    2
    12     1     3   am
    13     3     4    1
    14     4     5    1
    15     5     6    1
    16     6     9    1
    17     9    11    1
    18    11    12   ar
    19    12    13   ar
    20    13    14   ar
    21    14    15   ar
    22    15    16    1
    23    15    17   ar
    24     6     7    1
    25     7     8    1
    26    22    23   ar
    27    23    24   ar
    28    29    30    1
    29    30    31    1
    30    31    32    1
    31    32    27    1
    32    24    19   ar
    33     8     3    1
    34    17    11   ar
    35     9    10    1
    36    32    33    1
@<TRIPOS>MOLECULE
*****
 33 36 0 0 0
SMALL
GASTEIGER

@<TRIPOS>ATOM
      1 C           4.8244   -2.5984   18.5335 C.2     1  UNL1        0.2301
      2 O           5.8577   -2.3596   17.4728 O.2     1  UNL1       -0.2745
      3 N           3.7372   -1.5904   18.7618 N.am    1  UNL1       -0.2792
      4 C           3.6834   -0.3437   17.9295 C.3     1  UNL1        0.0951
      5 C           2.5963    0.6642   18.1579 C.3     1  UNL1        0.0410
      6 C           1.5629    0.4254   19.2186 C.3     1  UNL1        0.0724
      7 C           1.6166   -0.8213   20.0510 C.3     1  UNL1        0.0410
      8 C           2.7038   -1.8293   19.8226 C.3     1  UNL1        0.0951
      9 N           0.4757    1.4334   19.4470 N.pl3   1  UNL1       -0.3339
     10 H          -0.3329    1.1802   19.9483 H       1  UNL1        0.1468
     11 C           0.6205    2.8270   18.9116 C.ar    1  UNL1        0.0469
     12 C           1.5748    3.7847   19.5613 C.ar    1  UNL1        0.0144
     13 C           1.7196    5.1784   19.0259 C.ar    1  UNL1        0.0036
     14 C           0.9102    5.6144   17.8407 C.ar    1  UNL1        0.0297
     15 C          -0.0441    4.6566   17.1909 C.ar    1  UNL1        0.1414
     16 F          -0.8535    5.0926   16.0057 F       1  UNL1       -0.2041
     17 C          -0.1889    3.2630   17.7263 C.ar    1  UNL1        0.0439
     18 C           4.8781   -3.8451   19.3658 C.3     1  UNL1        0.1116
     19 C           7.0867   -3.8394   23.2865 C.ar    1  UNL1       -0.0062
     20 C           5.5898   -3.7437   23.2688 C.ar    1  UNL1       -0.0032
     21 C           4.8536   -3.7456   21.9619 C.ar    1  UNL1       -0.0041
     22 C           5.6143   -3.8432   20.6727 C.ar    1  UNL1       -0.0131
     23 C           7.1111   -3.9389   20.6905 C.ar    1  UNL1       -0.0041
     24 C           7.8473   -3.9370   21.9974 C.ar    1  UNL1       -0.0032
     25 C           7.8229   -3.8374   24.5934 C.3     1  UNL1        0.0992
     26 C           6.7775   -5.5100   29.4007 C.3     1  UNL1        0.0186
     27 C           7.1091   -5.8017   27.9672 C.3     1  UNL1        0.0703
     28 C           7.3002   -4.6738   26.9971 C.3     1  UNL1        0.0882
     29 N           7.6318   -4.9655   25.5636 N.3     1  UNL1       -0.2666
     30 C           7.7723   -6.3851   25.1002 C.3     1  UNL1        0.0897
     31 C           7.5812   -7.5131   26.0703 C.3     1  UNL1        0.0861
     32 N           7.2496   -7.2214   27.5038 N.3     1  UNL1       -0.2963
     33 H           7.9866   -7.6438   28.0684 H       1  UNL1        0.1233
@<TRIPOS>BOND
     1    27    26    1
     2    27    28    1
     3    28    29    1
     4    29    25    1
     5    25    19    1
     6    19    20   ar
     7    20    21   ar
     8    21    22   ar
     9    22    18    1
    10    18     1    1
    11     1     2    2
    12     1     3   am
    13     3     4    1
    14     4     5    1
    15     5     6    1
    16     6     9    1
    17     9    11    1
    18    11    12   ar
    19    12    13   ar
    20    13    14   ar
    21    14    15   ar
    22    15    16    1
    23    15    17   ar
    24     6     7    1
    25     7     8    1
    26    22    23   ar
    27    23    24   ar
    28    29    30    1
    29    30    31    1
    30    31    32    1
    31    32    27    1
    32    24    19   ar
    33     8     3    1
    34    17    11   ar
    35     9    10    1
    36    32    33    1
