@<TRIPOS>MOLECULE
*****
 37 40 0 0 0
SMALL
GASTEIGER

@<TRIPOS>ATOM
      1 N           6.0845   -2.8699   26.3867 N.ar    1  UNL1       -0.2706
      2 C           5.4504   -2.1706   27.5526 C.ar    1  UNL1        0.3343
      3 O           5.9549   -2.4220   28.9427 O.2     1  UNL1       -0.2462
      4 N           4.3120   -1.2201   27.3283 N.ar    1  UNL1       -0.2455
      5 C           3.6780   -0.5209   28.4941 C.3     1  UNL1        0.1383
      6 C           3.8076   -0.9687   25.9382 C.ar    1  UNL1        0.2816
      7 O           2.6691   -0.0181   25.7140 O.2     1  UNL1       -0.2652
      8 C           4.4416   -1.6679   24.7724 C.ar    1  UNL1        0.1342
      9 C           5.5801   -2.6185   24.9967 C.ar    1  UNL1        0.0876
     10 C           6.0030   -3.1582   23.6626 C.ar    1  UNL1        0.0515
     11 C           5.1260   -2.5411   22.6138 C.ar    1  UNL1        0.1142
     12 N           4.1609   -1.6201   23.2997 N.ar    1  UNL1       -0.3068
     13 N           5.2007   -2.7997   21.1381 N.pl3   1  UNL1       -0.2932
     14 C           4.3168   -3.8377   20.5128 C.3     1  UNL1        0.0922
     15 C           4.3917   -4.0962   19.0371 C.3     1  UNL1        0.0228
     16 C           5.3504   -3.3167   18.1868 C.3     1  UNL1        0.0177
     17 C           6.2344   -2.2786   18.8121 C.3     1  UNL1        0.0575
     18 C           7.2691   -1.2003   18.9404 C.3     1  UNL1        0.0173
     19 N           6.6685   -2.1626   17.3810 N.3     1  UNL1       -0.3219
     20 C           6.1595   -2.0201   20.2878 C.3     1  UNL1        0.1062
     21 H           6.1424   -2.8252   16.8113 H       1  UNL1        0.1188
     22 H           7.6648   -2.3694   17.3101 H       1  UNL1        0.1188
     23 C           7.2230   -3.8205   26.6111 C.3     1  UNL1        0.1956
     24 C           7.1602   -7.7729   26.2582 C.3     1  UNL1        0.1150
     25 N           7.4363   -6.3280   25.9652 N.am    1  UNL1       -0.2744
     26 C           8.2018   -5.9454   24.7333 C.3     1  UNL1        0.1150
     27 C           6.9469   -5.2654   26.9041 C.2     1  UNL1        0.2490
     28 O           6.1813   -5.6479   28.1360 O.2     1  UNL1       -0.2728
     29 C           3.1013   -0.7960   22.6304 C.3     1  UNL1        0.1350
     30 C           3.4199   -0.0425   21.3731 C.ar    1  UNL1        0.0132
     31 C           2.8257   -0.4784   20.0665 C.ar    1  UNL1        0.0281
     32 C           3.1443    0.2750   18.8092 C.ar    1  UNL1        0.1399
     33 F           2.5501   -0.1609   17.5027 F       1  UNL1       -0.2042
     34 C           4.0570    1.4644   18.8584 C.ar    1  UNL1        0.0305
     35 C           4.6511    1.9003   20.1648 C.ar    1  UNL1        0.0134
     36 C           4.3326    1.1469   21.4222 C.ar    1  UNL1        0.0557
     37 CL          4.9267    1.5828   22.7287 Cl      1  UNL1       -0.0825
@<TRIPOS>BOND
     1    24    25    1
     2    25    26    1
     3    25    27   am
     4    27    28    2
     5    27    23    1
     6    23     1    1
     7     1     2   ar
     8     2     3    2
     9     2     4   ar
    10     4     5    1
    11     4     6   ar
    12     6     7    2
    13     6     8   ar
    14     8     9   ar
    15     9    10   ar
    16    10    11   ar
    17    11    13    1
    18    13    14    1
    19    14    15    1
    20    15    16    1
    21    16    17    1
    22    17    18    1
    23    17    19    1
    24    17    20    1
    25    11    12   ar
    26    12    29    1
    27    29    30    1
    28    30    31   ar
    29    31    32   ar
    30    32    33    1
    31    32    34   ar
    32    34    35   ar
    33    35    36   ar
    34    36    37    1
    35     9     1   ar
    36    20    13    1
    37    36    30   ar
    38    12     8   ar
    39    19    21    1
    40    19    22    1
@<TRIPOS>MOLECULE
*****
 37 40 0 0 0
SMALL
GASTEIGER

@<TRIPOS>ATOM
      1 N           5.9994   -2.6826   26.3883 N.ar    1  UNL1       -0.2706
      2 C           5.3624   -1.9678   27.5431 C.ar    1  UNL1        0.3343
      3 O           5.8521   -2.2134   28.9396 O.2     1  UNL1       -0.2462
      4 N           4.2357   -1.0076   27.3015 N.ar    1  UNL1       -0.2455
      5 C           3.5987   -0.2928   28.4562 C.3     1  UNL1        0.1383
      6 C           3.7460   -0.7620   25.9051 C.ar    1  UNL1        0.2816
      7 O           2.6193    0.1983   25.6635 O.2     1  UNL1       -0.2652
      8 C           4.3830   -1.4767   24.7504 C.ar    1  UNL1        0.1342
      9 C           5.5097   -2.4370   24.9920 C.ar    1  UNL1        0.0876
     10 C           5.9387   -2.9914   23.6659 C.ar    1  UNL1        0.0515
     11 C           5.0772   -2.3737   22.6047 C.ar    1  UNL1        0.1142
     12 N           4.1157   -1.4375   23.2749 N.ar    1  UNL1       -0.3068
     13 N           5.1622   -2.6445   21.1318 N.pl3   1  UNL1       -0.2932
     14 C           4.2541   -3.6588   20.5021 C.3     1  UNL1        0.0922
     15 C           4.3392   -3.9296   19.0291 C.3     1  UNL1        0.0228
     16 C           5.3323   -3.1861   18.1859 C.3     1  UNL1        0.0177
     17 C           6.2404   -2.1718   18.8156 C.3     1  UNL1        0.0575
     18 C           7.3066   -1.1254   18.9500 C.3     1  UNL1        0.0173
     19 N           6.6957   -2.0792   17.3894 N.3     1  UNL1       -0.3219
     20 C           6.1553   -1.9010   20.2886 C.3     1  UNL1        0.1062
     21 H           6.1563   -2.7290   16.8174 H       1  UNL1        0.1188
     22 H           7.6858   -2.3174   17.3325 H       1  UNL1        0.1188
     23 C           7.1261   -3.6429   26.6301 C.3     1  UNL1        0.1956
     24 C           7.0812   -7.5945   26.2647 C.3     1  UNL1        0.1150
     25 N           7.3736   -6.1490   25.9908 N.am    1  UNL1       -0.2744
     26 C           8.2058   -5.7639   24.8038 C.3     1  UNL1        0.1150
     27 C           6.8337   -5.0884   26.9040 C.2     1  UNL1        0.2490
     28 O           6.0014   -5.4734   28.0910 O.2     1  UNL1       -0.2728
     29 C           3.0704   -0.6079   22.5899 C.3     1  UNL1        0.1350
     30 C           3.4096    0.1381   21.3336 C.ar    1  UNL1        0.0132
     31 C           4.4975    1.1709   21.3452 C.ar    1  UNL1        0.0281
     32 C           4.8367    1.9170   20.0889 C.ar    1  UNL1        0.1399
     33 F           5.9245    2.9497   20.1004 F       1  UNL1       -0.2042
     34 C           4.0880    1.6304   18.8210 C.ar    1  UNL1        0.0305
     35 C           3.0003    0.5977   18.8095 C.ar    1  UNL1        0.0134
     36 C           2.6610   -0.1485   20.0657 C.ar    1  UNL1        0.0557
     37 CL          1.5732   -1.1811   20.0542 Cl      1  UNL1       -0.0825
@<TRIPOS>BOND
     1    24    25    1
     2    25    26    1
     3    25    27   am
     4    27    28    2
     5    27    23    1
     6    23     1    1
     7     1     2   ar
     8     2     3    2
     9     2     4   ar
    10     4     5    1
    11     4     6   ar
    12     6     7    2
    13     6     8   ar
    14     8     9   ar
    15     9    10   ar
    16    10    11   ar
    17    11    13    1
    18    13    14    1
    19    14    15    1
    20    15    16    1
    21    16    17    1
    22    17    18    1
    23    17    19    1
    24    17    20    1
    25    11    12   ar
    26    12    29    1
    27    29    30    1
    28    30    31   ar
    29    31    32   ar
    30    32    33    1
    31    32    34   ar
    32    34    35   ar
    33    35    36   ar
    34    36    37    1
    35     9     1   ar
    36    20    13    1
    37    36    30   ar
    38    12     8   ar
    39    19    21    1
    40    19    22    1
@<TRIPOS>MOLECULE
*****
 37 40 0 0 0
SMALL
GASTEIGER

@<TRIPOS>ATOM
      1 N           1.4629    0.4307   21.1746 N.ar    1  UNL1       -0.2706
      2 C           1.0179    1.0014   19.8607 C.ar    1  UNL1        0.3343
      3 O           1.3857    0.3117   18.5803 O.2     1  UNL1       -0.2462
      4 N           0.2051    2.2615   19.8271 N.ar    1  UNL1       -0.2455
      5 C          -0.2399    2.8322   18.5131 C.3     1  UNL1        0.1383
      6 C          -0.1628    2.9512   21.1073 C.ar    1  UNL1        0.2816
      7 O          -0.9756    4.2114   21.0736 O.2     1  UNL1       -0.2652
      8 C           0.2822    2.3805   22.4212 C.ar    1  UNL1        0.1342
      9 C           1.0950    1.1203   22.4549 C.ar    1  UNL1        0.0876
     10 C           1.3886    0.7962   23.8897 C.ar    1  UNL1        0.0515
     11 C           0.7571    1.8561   24.7428 C.ar    1  UNL1        0.1142
     12 N           0.0734    2.8353   23.8353 N.ar    1  UNL1       -0.3068
     13 N           0.8016    1.9248   26.2406 N.pl3   1  UNL1       -0.2932
     14 C           1.7620    2.8551   26.9205 C.3     1  UNL1        0.0922
     15 C           1.8065    2.9237   28.4183 C.3     1  UNL1        0.0228
     16 C           0.8906    2.0622   29.2362 C.3     1  UNL1        0.0177
     17 C          -0.0698    1.1319   28.5563 C.3     1  UNL1        0.0575
     18 C          -1.1443    0.1012   28.3746 C.3     1  UNL1        0.0173
     19 N          -0.3985    0.8427   29.9909 N.3     1  UNL1       -0.3219
     20 C          -0.1142    1.0633   27.0585 C.3     1  UNL1        0.1062
     21 H           0.1894    1.4154   30.5966 H       1  UNL1        0.1188
     22 H          -0.2286   -0.1439   30.1864 H       1  UNL1        0.1188
     23 C           2.2757   -0.8296   21.2082 C.3     1  UNL1        0.1956
     24 C           5.8668   -1.7249   19.7755 C.3     1  UNL1        0.1150
     25 N           4.3901   -1.7778   20.0333 N.am    1  UNL1       -0.2744
     26 C           3.5509   -2.8320   19.3742 C.3     1  UNL1        0.1150
     27 C           3.7524   -0.7766   20.9503 C.2     1  UNL1        0.2490
     28 O           4.5915    0.2776   21.6095 O.2     1  UNL1       -0.2728
     29 C          -0.6859    4.0551   24.2662 C.3     1  UNL1        0.1350
     30 C          -2.1283    3.9399   24.6613 C.ar    1  UNL1        0.0132
     31 C          -3.1664    3.6214   23.6264 C.ar    1  UNL1        0.0281
     32 C          -4.6088    3.5062   24.0215 C.ar    1  UNL1        0.1399
     33 F          -5.6468    3.1878   22.9865 F       1  UNL1       -0.2042
     34 C          -5.0132    3.7095   25.4516 C.ar    1  UNL1        0.0305
     35 C          -3.9752    4.0279   26.4865 C.ar    1  UNL1        0.0134
     36 C          -2.5328    4.1431   26.0915 C.ar    1  UNL1        0.0557
     37 CL         -1.4948    4.4615   27.1263 Cl      1  UNL1       -0.0825
@<TRIPOS>BOND
     1    24    25    1
     2    25    26    1
     3    25    27   am
     4    27    28    2
     5    27    23    1
     6    23     1    1
     7     1     2   ar
     8     2     3    2
     9     2     4   ar
    10     4     5    1
    11     4     6   ar
    12     6     7    2
    13     6     8   ar
    14     8     9   ar
    15     9    10   ar
    16    10    11   ar
    17    11    13    1
    18    13    14    1
    19    14    15    1
    20    15    16    1
    21    16    17    1
    22    17    18    1
    23    17    19    1
    24    17    20    1
    25    11    12   ar
    26    12    29    1
    27    29    30    1
    28    30    31   ar
    29    31    32   ar
    30    32    33    1
    31    32    34   ar
    32    34    35   ar
    33    35    36   ar
    34    36    37    1
    35     9     1   ar
    36    20    13    1
    37    36    30   ar
    38    12     8   ar
    39    19    21    1
    40    19    22    1
@<TRIPOS>MOLECULE
*****
 37 40 0 0 0
SMALL
GASTEIGER

@<TRIPOS>ATOM
      1 N           7.0111   -4.9047   26.3523 N.ar    1  UNL1       -0.2706
      2 C           7.7532   -6.2077   26.3124 C.ar    1  UNL1        0.3343
      3 O           7.9518   -6.9965   27.5728 O.2     1  UNL1       -0.2462
      4 N           8.2967   -6.7217   25.0124 N.ar    1  UNL1       -0.2455
      5 C           9.0389   -8.0247   24.9725 C.3     1  UNL1        0.1383
      6 C           8.0982   -5.9329   23.7521 C.ar    1  UNL1        0.2816
      7 O           8.6417   -6.4470   22.4520 O.2     1  UNL1       -0.2652
      8 C           7.3560   -4.6300   23.7919 C.ar    1  UNL1        0.1342
      9 C           6.8125   -4.1159   25.0920 C.ar    1  UNL1        0.0876
     10 C           6.1280   -2.8084   24.8237 C.ar    1  UNL1        0.0515
     11 C           6.2485   -2.5145   23.3577 C.ar    1  UNL1        0.1142
     12 N           7.0074   -3.6403   22.7200 N.ar    1  UNL1       -0.3068
     13 N           5.7053   -1.3068   22.6531 N.pl3   1  UNL1       -0.2932
     14 C           6.5422   -0.0676   22.5354 C.3     1  UNL1        0.0922
     15 C           5.9990    1.1401   21.8307 C.3     1  UNL1        0.0228
     16 C           4.6190    1.1085   21.2437 C.3     1  UNL1        0.0177
     17 C           3.7821   -0.1307   21.3614 C.3     1  UNL1        0.0575
     18 C           2.6159   -1.0630   21.2170 C.3     1  UNL1        0.0173
     19 N           2.8339    0.7532   20.6066 N.3     1  UNL1       -0.3219
     20 C           4.3253   -1.3384   22.0661 C.3     1  UNL1        0.1062
     21 H           3.2710    1.6604   20.4442 H       1  UNL1        0.1188
     22 H           1.9806    0.8795   21.1509 H       1  UNL1        0.1188
     23 C           6.4675   -4.3906   27.6525 C.3     1  UNL1        0.1956
     24 C           8.4812   -3.4603   30.9434 C.3     1  UNL1        0.1150
     25 N           7.5817   -4.1911   29.9910 N.am    1  UNL1       -0.2744
     26 C           6.8968   -5.4531   30.4249 C.3     1  UNL1        0.1150
     27 C           7.3670   -3.6599   28.6048 C.2     1  UNL1        0.2490
     28 O           8.0519   -2.3979   28.1708 O.2     1  UNL1       -0.2728
     29 C           7.3565   -3.7560   21.2658 C.3     1  UNL1        0.1350
     30 C           6.3533   -3.3676   20.2205 C.ar    1  UNL1        0.0132
     31 C           5.0818   -4.1498   20.0740 C.ar    1  UNL1        0.0281
     32 C           4.0785   -3.7615   19.0287 C.ar    1  UNL1        0.1399
     33 F           2.8070   -4.5437   18.8822 F       1  UNL1       -0.2042
     34 C           4.3468   -2.5909   18.1299 C.ar    1  UNL1        0.0305
     35 C           5.6182   -1.8087   18.2764 C.ar    1  UNL1        0.0134
     36 C           6.6215   -2.1970   19.3217 C.ar    1  UNL1        0.0557
     37 CL          7.8929   -1.4148   19.4682 Cl      1  UNL1       -0.0825
@<TRIPOS>BOND
     1    24    25    1
     2    25    26    1
     3    25    27   am
     4    27    28    2
     5    27    23    1
     6    23     1    1
     7     1     2   ar
     8     2     3    2
     9     2     4   ar
    10     4     5    1
    11     4     6   ar
    12     6     7    2
    13     6     8   ar
    14     8     9   ar
    15     9    10   ar
    16    10    11   ar
    17    11    13    1
    18    13    14    1
    19    14    15    1
    20    15    16    1
    21    16    17    1
    22    17    18    1
    23    17    19    1
    24    17    20    1
    25    11    12   ar
    26    12    29    1
    27    29    30    1
    28    30    31   ar
    29    31    32   ar
    30    32    33    1
    31    32    34   ar
    32    34    35   ar
    33    35    36   ar
    34    36    37    1
    35     9     1   ar
    36    20    13    1
    37    36    30   ar
    38    12     8   ar
    39    19    21    1
    40    19    22    1
@<TRIPOS>MOLECULE
*****
 37 40 0 0 0
SMALL
GASTEIGER

@<TRIPOS>ATOM
      1 N           0.5094    1.6059   23.2924 N.ar    1  UNL1       -0.2706
      2 C          -0.3594    2.7778   22.9428 C.ar    1  UNL1        0.3343
      3 O          -1.2253    3.4091   23.9925 O.2     1  UNL1       -0.2462
      4 N          -0.3622    3.3183   21.5436 N.ar    1  UNL1       -0.2455
      5 C          -1.2309    4.4901   21.1939 C.3     1  UNL1        0.1383
      6 C           0.5037    2.6870   20.4940 C.ar    1  UNL1        0.2816
      7 O           0.5008    3.2276   19.0948 O.2     1  UNL1       -0.2652
      8 C           1.3724    1.5152   20.8436 C.ar    1  UNL1        0.1342
      9 C           1.3752    0.9747   22.2428 C.ar    1  UNL1        0.0876
     10 C           2.3286   -0.1824   22.2908 C.ar    1  UNL1        0.0515
     11 C           2.9149   -0.3570   20.9213 C.ar    1  UNL1        0.1142
     12 N           2.3240    0.6922   20.0268 N.ar    1  UNL1       -0.3068
     13 N           3.9164   -1.3980   20.5171 N.pl3   1  UNL1       -0.2932
     14 C           5.3833   -1.1313   20.6816 C.3     1  UNL1        0.0922
     15 C           6.3847   -2.1724   20.2773 C.3     1  UNL1        0.0228
     16 C           5.9193   -3.4800   19.7087 C.3     1  UNL1        0.0177
     17 C           4.4524   -3.7467   19.5442 C.3     1  UNL1        0.0575
     18 C           3.1798   -4.4610   19.1975 C.3     1  UNL1        0.0173
     19 N           5.0119   -5.0358   19.0196 N.3     1  UNL1       -0.3219
     20 C           3.4510   -2.7056   19.9484 C.3     1  UNL1        0.1062
     21 H           6.0304   -5.0087   19.0671 H       1  UNL1        0.1188
     22 H           4.7199   -5.1638   18.0507 H       1  UNL1        0.1188
     23 C           0.5121    1.0655   24.6917 C.3     1  UNL1        0.1956
     24 C           1.5410    2.6463   28.1835 C.3     1  UNL1        0.1150
     25 N           0.7324    1.9665   27.1186 N.am    1  UNL1       -0.2744
     26 C          -0.6645    1.5079   27.4155 C.3     1  UNL1        0.1150
     27 C           1.3207    1.7452   25.7566 C.2     1  UNL1        0.2490
     28 O           2.7177    2.2038   25.4595 O.2     1  UNL1       -0.2728
     29 C           2.6308    0.8846   18.5712 C.3     1  UNL1        0.1350
     30 C           4.0423    1.1331   18.1287 C.ar    1  UNL1        0.0132
     31 C           4.7557    2.3794   18.5622 C.ar    1  UNL1        0.0281
     32 C           6.1673    2.6280   18.1198 C.ar    1  UNL1        0.1399
     33 F           6.8807    3.8742   18.5533 F       1  UNL1       -0.2042
     34 C           6.8654    1.6303   17.2438 C.ar    1  UNL1        0.0305
     35 C           6.1520    0.3841   16.8103 C.ar    1  UNL1        0.0134
     36 C           4.7405    0.1355   17.2527 C.ar    1  UNL1        0.0557
     37 CL          4.0271   -1.1107   16.8192 Cl      1  UNL1       -0.0825
@<TRIPOS>BOND
     1    24    25    1
     2    25    26    1
     3    25    27   am
     4    27    28    2
     5    27    23    1
     6    23     1    1
     7     1     2   ar
     8     2     3    2
     9     2     4   ar
    10     4     5    1
    11     4     6   ar
    12     6     7    2
    13     6     8   ar
    14     8     9   ar
    15     9    10   ar
    16    10    11   ar
    17    11    13    1
    18    13    14    1
    19    14    15    1
    20    15    16    1
    21    16    17    1
    22    17    18    1
    23    17    19    1
    24    17    20    1
    25    11    12   ar
    26    12    29    1
    27    29    30    1
    28    30    31   ar
    29    31    32   ar
    30    32    33    1
    31    32    34   ar
    32    34    35   ar
    33    35    36   ar
    34    36    37    1
    35     9     1   ar
    36    20    13    1
    37    36    30   ar
    38    12     8   ar
    39    19    21    1
    40    19    22    1
@<TRIPOS>MOLECULE
*****
 37 40 0 0 0
SMALL
GASTEIGER

@<TRIPOS>ATOM
      1 N           4.2625   -0.1254   25.7789 N.ar    1  UNL1       -0.2706
      2 C           3.2252    0.7222   25.1038 C.ar    1  UNL1        0.3343
      3 O           2.7094    1.9575   25.7806 O.2     1  UNL1       -0.2462
      4 N           2.7038    0.3345   23.7519 N.ar    1  UNL1       -0.2455
      5 C           1.6665    1.1820   23.0767 C.3     1  UNL1        0.1383
      6 C           3.2195   -0.9008   23.0751 C.ar    1  UNL1        0.2816
      7 O           2.6980   -1.2885   21.7231 O.2     1  UNL1       -0.2652
      8 C           4.2567   -1.7483   23.7502 C.ar    1  UNL1        0.1342
      9 C           4.7782   -1.3606   25.1021 C.ar    1  UNL1        0.0876
     10 C           5.7921   -2.3844   25.5190 C.ar    1  UNL1        0.0515
     11 C           5.8973   -3.4049   24.4247 C.ar    1  UNL1        0.1142
     12 N           4.9484   -3.0118   23.3315 N.ar    1  UNL1       -0.3068
     13 N           6.7939   -4.6074   24.4237 N.pl3   1  UNL1       -0.2932
     14 C           6.8447   -5.5061   25.6236 C.3     1  UNL1        0.0922
     15 C           7.7414   -6.7086   25.6225 C.3     1  UNL1        0.0228
     16 C           8.5872   -7.0125   24.4216 C.3     1  UNL1        0.0177
     17 C           8.5364   -6.1138   23.2217 C.3     1  UNL1        0.0575
     18 C           8.8328   -5.5668   21.8568 C.3     1  UNL1        0.0173
     19 N           9.5360   -7.1263   22.7466 N.3     1  UNL1       -0.3219
     20 C           7.6398   -4.9113   23.2228 C.3     1  UNL1        0.1062
     21 H           9.6826   -7.8264   23.4738 H       1  UNL1        0.1188
     22 H          10.4196   -6.6607   22.5398 H       1  UNL1        0.1188
     23 C           4.7839    0.2624   27.1309 C.3     1  UNL1        0.1956
     24 C           3.9559   -0.3844   30.9579 C.3     1  UNL1        0.1150
     25 N           4.5868    0.1814   29.7202 N.am    1  UNL1       -0.2744
     26 C           5.6513    1.2319   29.8341 C.3     1  UNL1        0.1150
     27 C           4.1530   -0.3034   28.3686 C.2     1  UNL1        0.2490
     28 O           3.0885   -1.3539   28.2546 O.2     1  UNL1       -0.2728
     29 C           4.7295   -3.7522   22.0454 C.3     1  UNL1        0.1350
     30 C           5.3494   -3.2490   20.7756 C.ar    1  UNL1        0.0132
     31 C           6.5566   -2.3605   20.8310 C.ar    1  UNL1        0.0281
     32 C           7.1765   -1.8573   19.5611 C.ar    1  UNL1        0.1399
     33 F           8.3838   -0.9688   19.6166 F       1  UNL1       -0.2042
     34 C           6.5891   -2.2427   18.2357 C.ar    1  UNL1        0.0305
     35 C           5.3819   -3.1312   18.1803 C.ar    1  UNL1        0.0134
     36 C           4.7620   -3.6344   19.4502 C.ar    1  UNL1        0.0557
     37 CL          3.5548   -4.5229   19.3947 Cl      1  UNL1       -0.0825
@<TRIPOS>BOND
     1    24    25    1
     2    25    26    1
     3    25    27   am
     4    27    28    2
     5    27    23    1
     6    23     1    1
     7     1     2   ar
     8     2     3    2
     9     2     4   ar
    10     4     5    1
    11     4     6   ar
    12     6     7    2
    13     6     8   ar
    14     8     9   ar
    15     9    10   ar
    16    10    11   ar
    17    11    13    1
    18    13    14    1
    19    14    15    1
    20    15    16    1
    21    16    17    1
    22    17    18    1
    23    17    19    1
    24    17    20    1
    25    11    12   ar
    26    12    29    1
    27    29    30    1
    28    30    31   ar
    29    31    32   ar
    30    32    33    1
    31    32    34   ar
    32    34    35   ar
    33    35    36   ar
    34    36    37    1
    35     9     1   ar
    36    20    13    1
    37    36    30   ar
    38    12     8   ar
    39    19    21    1
    40    19    22    1
@<TRIPOS>MOLECULE
*****
 37 40 0 0 0
SMALL
GASTEIGER

@<TRIPOS>ATOM
      1 N           4.0347   -1.1450   26.5267 N.ar    1  UNL1       -0.2706
      2 C           3.1069   -0.2249   27.2635 C.ar    1  UNL1        0.3343
      3 O           3.1740   -0.1322   28.7592 O.2     1  UNL1       -0.2462
      4 N           2.1122    0.6024   26.5047 N.ar    1  UNL1       -0.2455
      5 C           1.1844    1.5225   27.2415 C.3     1  UNL1        0.1383
      6 C           2.0451    0.5098   25.0091 C.ar    1  UNL1        0.2816
      7 O           1.0503    1.3372   24.2503 O.2     1  UNL1       -0.2652
      8 C           2.9728   -0.4102   24.2723 C.ar    1  UNL1        0.1342
      9 C           3.9677   -1.2376   25.0311 C.ar    1  UNL1        0.0876
     10 C           4.7477   -2.0493   24.0398 C.ar    1  UNL1        0.0515
     11 C           4.2349   -1.7236   22.6683 C.ar    1  UNL1        0.1142
     12 N           3.1380   -0.7106   22.8120 N.ar    1  UNL1       -0.3068
     13 N           4.7318   -2.3083   21.3794 N.pl3   1  UNL1       -0.2932
     14 C           5.8939   -1.6795   20.6693 C.3     1  UNL1        0.0922
     15 C           6.3907   -2.2642   19.3804 C.3     1  UNL1        0.0228
     16 C           5.7256   -3.4776   18.8016 C.3     1  UNL1        0.0177
     17 C           4.5635   -4.1064   19.5116 C.3     1  UNL1        0.0575
     18 C           3.4383   -5.0523   19.8101 C.3     1  UNL1        0.0173
     19 N           4.6696   -5.0196   18.3264 N.3     1  UNL1       -0.3219
     20 C           4.0666   -3.5217   20.8006 C.3     1  UNL1        0.1062
     21 H           5.4381   -4.7140   17.7294 H       1  UNL1        0.1188
     22 H           3.7975   -4.9935   17.7979 H       1  UNL1        0.1188
     23 C           5.0295   -1.9723   27.2856 C.3     1  UNL1        0.1956
     24 C           8.2247   -0.7889   29.3204 C.3     1  UNL1        0.1150
     25 N           6.8659   -1.3449   29.0131 N.am    1  UNL1       -0.2744
     26 C           5.9846   -1.8296   30.1259 C.3     1  UNL1        0.1150
     27 C           6.3884   -1.4163   27.5929 C.2     1  UNL1        0.2490
     28 O           7.2696   -0.9316   26.4800 O.2     1  UNL1       -0.2728
     29 C           2.3455   -0.1044   21.6920 C.3     1  UNL1        0.1350
     30 C           3.0349    0.3189   20.4288 C.ar    1  UNL1        0.0132
     31 C           2.8052   -0.4432   19.1574 C.ar    1  UNL1        0.0281
     32 C           3.4946   -0.0199   17.8943 C.ar    1  UNL1        0.1399
     33 F           3.2648   -0.7820   16.6229 F       1  UNL1       -0.2042
     34 C           4.4138    1.1655   17.9025 C.ar    1  UNL1        0.0305
     35 C           4.6435    1.9275   19.1739 C.ar    1  UNL1        0.0134
     36 C           3.9541    1.5043   20.4371 C.ar    1  UNL1        0.0557
     37 CL          4.1838    2.2663   21.7084 Cl      1  UNL1       -0.0825
@<TRIPOS>BOND
     1    24    25    1
     2    25    26    1
     3    25    27   am
     4    27    28    2
     5    27    23    1
     6    23     1    1
     7     1     2   ar
     8     2     3    2
     9     2     4   ar
    10     4     5    1
    11     4     6   ar
    12     6     7    2
    13     6     8   ar
    14     8     9   ar
    15     9    10   ar
    16    10    11   ar
    17    11    13    1
    18    13    14    1
    19    14    15    1
    20    15    16    1
    21    16    17    1
    22    17    18    1
    23    17    19    1
    24    17    20    1
    25    11    12   ar
    26    12    29    1
    27    29    30    1
    28    30    31   ar
    29    31    32   ar
    30    32    33    1
    31    32    34   ar
    32    34    35   ar
    33    35    36   ar
    34    36    37    1
    35     9     1   ar
    36    20    13    1
    37    36    30   ar
    38    12     8   ar
    39    19    21    1
    40    19    22    1
@<TRIPOS>MOLECULE
*****
 37 40 0 0 0
SMALL
GASTEIGER

@<TRIPOS>ATOM
      1 N           3.3698   -0.6166   26.8429 N.ar    1  UNL1       -0.2706
      2 C           4.3360   -1.3156   27.7529 C.ar    1  UNL1        0.3343
      3 O           4.1323   -1.2728   29.2384 O.2     1  UNL1       -0.2462
      4 N           5.5059   -2.0571   27.1774 N.ar    1  UNL1       -0.2455
      5 C           6.4722   -2.7561   28.0873 C.3     1  UNL1        0.1383
      6 C           5.7097   -2.0999   25.6919 C.ar    1  UNL1        0.2816
      7 O           6.8796   -2.8415   25.1164 O.2     1  UNL1       -0.2652
      8 C           4.7435   -1.4009   24.7819 C.ar    1  UNL1        0.1342
      9 C           3.5735   -0.6593   25.3575 C.ar    1  UNL1        0.0876
     10 C           2.7933   -0.0698   24.2200 C.ar    1  UNL1        0.0515
     11 C           3.4811   -0.4471   22.9415 C.ar    1  UNL1        0.1142
     12 N           4.6863   -1.2698   23.2888 N.ar    1  UNL1       -0.3068
     13 N           3.0409   -0.0683   21.5585 N.pl3   1  UNL1       -0.2932
     14 C           2.0372   -0.9144   20.8327 C.3     1  UNL1        0.0922
     15 C           1.5971   -0.5354   19.4497 C.3     1  UNL1        0.0228
     16 C           2.1606    0.6895   18.7925 C.3     1  UNL1        0.0177
     17 C           3.1642    1.5356   19.5182 C.3     1  UNL1        0.0575
     18 C           4.1317    2.6473   19.7974 C.3     1  UNL1        0.0173
     19 N           3.0601    2.3006   18.2322 N.3     1  UNL1       -0.3219
     20 C           3.6044    1.1567   20.9013 C.3     1  UNL1        0.1062
     21 H           2.3949    1.8367   17.6136 H       1  UNL1        0.1188
     22 H           3.9750    2.3359   17.7825 H       1  UNL1        0.1188
     23 C           2.1998    0.1250   27.4186 C.3     1  UNL1        0.1956
     24 C           1.0937    3.8885   26.8165 C.3     1  UNL1        0.1150
     25 N           1.0911    2.3888   26.7892 N.am    1  UNL1       -0.2744
     26 C          -0.0228    1.6530   26.1052 C.3     1  UNL1        0.1150
     27 C           2.2024    1.6248   27.4459 C.2     1  UNL1        0.2490
     28 O           3.3163    2.3605   28.1298 O.2     1  UNL1       -0.2728
     29 C           5.6630   -1.8580   22.3140 C.3     1  UNL1        0.1350
     30 C           5.1656   -2.6199   21.1215 C.ar    1  UNL1        0.0132
     31 C           4.4090   -3.9010   21.3121 C.ar    1  UNL1        0.0281
     32 C           3.9117   -4.6629   20.1195 C.ar    1  UNL1        0.1399
     33 F           3.1550   -5.9439   20.3101 F       1  UNL1       -0.2042
     34 C           4.1710   -4.1436   18.7362 C.ar    1  UNL1        0.0305
     35 C           4.9276   -2.8626   18.5457 C.ar    1  UNL1        0.0134
     36 C           5.4250   -2.1007   19.7382 C.ar    1  UNL1        0.0557
     37 CL          6.1816   -0.8197   19.5476 Cl      1  UNL1       -0.0825
@<TRIPOS>BOND
     1    24    25    1
     2    25    26    1
     3    25    27   am
     4    27    28    2
     5    27    23    1
     6    23     1    1
     7     1     2   ar
     8     2     3    2
     9     2     4   ar
    10     4     5    1
    11     4     6   ar
    12     6     7    2
    13     6     8   ar
    14     8     9   ar
    15     9    10   ar
    16    10    11   ar
    17    11    13    1
    18    13    14    1
    19    14    15    1
    20    15    16    1
    21    16    17    1
    22    17    18    1
    23    17    19    1
    24    17    20    1
    25    11    12   ar
    26    12    29    1
    27    29    30    1
    28    30    31   ar
    29    31    32   ar
    30    32    33    1
    31    32    34   ar
    32    34    35   ar
    33    35    36   ar
    34    36    37    1
    35     9     1   ar
    36    20    13    1
    37    36    30   ar
    38    12     8   ar
    39    19    21    1
    40    19    22    1
@<TRIPOS>MOLECULE
*****
 37 40 0 0 0
SMALL
GASTEIGER

@<TRIPOS>ATOM
      1 N          -6.4291  -20.4227   20.3423 N.ar    1  UNL1       -0.2706
      2 C          -7.3277  -20.8856   19.2339 C.ar    1  UNL1        0.3343
      3 O          -6.9208  -22.0447   18.3731 O.2     1  UNL1       -0.2462
      4 N          -8.6330  -20.1894   18.9864 N.ar    1  UNL1       -0.2455
      5 C          -9.5316  -20.6523   17.8780 C.3     1  UNL1        0.1383
      6 C          -9.0399  -19.0303   19.8472 C.ar    1  UNL1        0.2816
      7 O         -10.3453  -18.3342   19.5996 O.2     1  UNL1       -0.2652
      8 C          -8.1415  -18.5674   20.9555 C.ar    1  UNL1        0.1342
      9 C          -6.8361  -19.2636   21.2031 C.ar    1  UNL1        0.0876
     10 C          -6.1627  -18.5882   22.3608 C.ar    1  UNL1        0.0515
     11 C          -7.0520  -17.4745   22.8288 C.ar    1  UNL1        0.1142
     12 N          -8.2749  -17.4617   21.9603 N.ar    1  UNL1       -0.3068
     13 N          -6.7682  -16.5381   23.9657 N.pl3   1  UNL1       -0.2932
     14 C          -5.4987  -15.7393   23.9803 C.3     1  UNL1        0.0922
     15 C          -5.2150  -14.8028   25.1173 C.3     1  UNL1        0.0228
     16 C          -6.2007  -14.6652   26.2395 C.3     1  UNL1        0.0177
     17 C          -7.4702  -15.4640   26.2249 C.3     1  UNL1        0.0575
     18 C          -8.8017  -16.0025   26.6571 C.3     1  UNL1        0.0173
     19 N          -7.6489  -14.7146   27.5119 N.3     1  UNL1       -0.3219
     20 C          -7.7539  -16.4004   25.0879 C.3     1  UNL1        0.1062
     21 H          -6.8427  -14.1094   27.6677 H       1  UNL1        0.1188
     22 H          -7.7304  -15.3775   28.2828 H       1  UNL1        0.1188
     23 C          -5.1237  -21.1189   20.5898 C.3     1  UNL1        0.1956
     24 C          -1.6932  -19.1250   20.6681 C.3     1  UNL1        0.1150
     25 N          -2.9769  -19.7553   21.1207 N.am    1  UNL1       -0.2744
     26 C          -3.3976  -19.6523   22.5568 C.3     1  UNL1        0.1150
     27 C          -3.8400  -20.4887   20.1372 C.2     1  UNL1        0.2490
     28 O          -3.4194  -20.5918   18.7011 O.2     1  UNL1       -0.2728
     29 C          -9.4287  -16.5102   22.0762 C.3     1  UNL1        0.1350
     30 C         -10.7670  -17.0069   22.5368 C.ar    1  UNL1        0.0132
     31 C         -10.8695  -17.8482   23.7744 C.ar    1  UNL1        0.0281
     32 C         -12.2078  -18.3449   24.2350 C.ar    1  UNL1        0.1399
     33 F         -12.3103  -19.1862   25.4726 F       1  UNL1       -0.2042
     34 C         -13.4438  -18.0003   23.4579 C.ar    1  UNL1        0.0305
     35 C         -13.3413  -17.1590   22.2203 C.ar    1  UNL1        0.0134
     36 C         -12.0030  -16.6623   21.7597 C.ar    1  UNL1        0.0557
     37 CL        -11.9005  -15.8210   20.5221 Cl      1  UNL1       -0.0825
@<TRIPOS>BOND
     1    24    25    1
     2    25    26    1
     3    25    27   am
     4    27    28    2
     5    27    23    1
     6    23     1    1
     7     1     2   ar
     8     2     3    2
     9     2     4   ar
    10     4     5    1
    11     4     6   ar
    12     6     7    2
    13     6     8   ar
    14     8     9   ar
    15     9    10   ar
    16    10    11   ar
    17    11    13    1
    18    13    14    1
    19    14    15    1
    20    15    16    1
    21    16    17    1
    22    17    18    1
    23    17    19    1
    24    17    20    1
    25    11    12   ar
    26    12    29    1
    27    29    30    1
    28    30    31   ar
    29    31    32   ar
    30    32    33    1
    31    32    34   ar
    32    34    35   ar
    33    35    36   ar
    34    36    37    1
    35     9     1   ar
    36    20    13    1
    37    36    30   ar
    38    12     8   ar
    39    19    21    1
    40    19    22    1
