@<TRIPOS>MOLECULE
*****
 27 29 0 0 0
SMALL
GASTEIGER

@<TRIPOS>ATOM
      1 N          -8.3712  -17.0563   22.7621 N.pl3   1  UNL1       -0.3037
      2 C          -9.7880  -17.3876   23.1267 C.ar    1  UNL1        0.0490
      3 C         -10.0727  -18.4850   24.1088 C.ar    1  UNL1        0.0153
      4 C         -11.4895  -18.8163   24.4734 C.ar    1  UNL1        0.0124
      5 C         -12.6216  -18.0501   23.8560 C.ar    1  UNL1        0.0791
      6 C         -12.3369  -16.9527   22.8738 C.ar    1  UNL1        0.0685
      7 CL        -13.4690  -16.1865   22.2563 Cl      1  UNL1       -0.0815
      8 C         -10.9201  -16.6214   22.5092 C.ar    1  UNL1        0.0266
      9 C         -14.0384  -18.3814   24.2206 C.1     1  UNL1        0.1013
     10 N         -15.4551  -18.7127   24.5852 N.1     1  UNL1       -0.1908
     11 N          -5.6801  -19.2405   21.0148 N.3     1  UNL1       -0.1576
     12 C          -6.9373  -19.7875   20.4062 C.3     1  UNL1        0.0972
     13 C          -8.0984  -19.0358   20.9867 C.3     1  UNL1        0.0403
     14 C          -7.5587  -18.0244   21.9540 C.3     1  UNL1        0.0922
     15 C          -6.0642  -18.1508   21.9714 C.3     1  UNL1        0.1151
     16 C          -2.8878  -20.1638   20.4228 C.3     1  UNL1        0.1960
     17 S          -4.2840  -19.7021   20.7188 S.O2    1  UNL1        0.0457
     18 O          -4.8294  -20.9559   20.1019 O.2     1  UNL1       -0.1572
     19 O          -3.7385  -18.4483   21.3357 O.2     1  UNL1       -0.1572
     20 C          -7.7668  -15.7571   23.2055 C.3     1  UNL1        0.1185
     21 C          -7.4077  -15.5503   24.6471 C.ar    1  UNL1        0.0082
     22 C          -8.4855  -15.5037   25.6893 C.ar    1  UNL1       -0.0018
     23 C          -8.1264  -15.2968   27.1309 C.ar    1  UNL1       -0.0002
     24 C          -6.6895  -15.1366   27.5304 C.ar    1  UNL1        0.0008
     25 C          -5.6116  -15.1832   26.4882 C.ar    1  UNL1        0.0111
     26 C          -5.9707  -15.3900   25.0466 C.ar    1  UNL1        0.0553
     27 CL         -4.8929  -15.4366   24.0044 Cl      1  UNL1       -0.0825
@<TRIPOS>BOND
     1    16    17    1
     2    17    18    2
     3    17    19    2
     4    17    11    1
     5    11    12    1
     6    12    13    1
     7    13    14    1
     8    14     1    1
     9     1    20    1
    10    20    21    1
    11    21    22   ar
    12    22    23   ar
    13    23    24   ar
    14    24    25   ar
    15    25    26   ar
    16    26    27    1
    17     1     2    1
    18     2     3   ar
    19     3     4   ar
    20     4     5   ar
    21     5     9    1
    22     9    10    3
    23     5     6   ar
    24     6     7    1
    25     6     8   ar
    26    14    15    1
    27    15    11    1
    28    26    21   ar
    29     8     2   ar
@<TRIPOS>MOLECULE
*****
 27 29 0 0 0
SMALL
GASTEIGER

@<TRIPOS>ATOM
      1 N          -7.8283  -18.8192   21.3861 N.pl3   1  UNL1       -0.3037
      2 C          -7.9888  -18.0308   22.6521 C.ar    1  UNL1        0.0490
      3 C          -9.0186  -18.4381   23.6638 C.ar    1  UNL1        0.0153
      4 C          -9.1791  -17.6498   24.9298 C.ar    1  UNL1        0.0124
      5 C          -8.3098  -16.4541   25.1840 C.ar    1  UNL1        0.0791
      6 C          -7.2799  -16.0467   24.1723 C.ar    1  UNL1        0.0685
      7 CL         -6.4107  -14.8511   24.4266 Cl      1  UNL1       -0.0815
      8 C          -7.1194  -16.8351   22.9063 C.ar    1  UNL1        0.0266
      9 C          -8.4703  -15.6657   26.4500 C.1     1  UNL1        0.1013
     10 N          -8.6308  -14.8774   27.7160 N.1     1  UNL1       -0.1908
     11 N          -4.0922  -19.4032   20.5106 N.3     1  UNL1       -0.1576
     12 C          -4.6793  -20.7447   20.1850 C.3     1  UNL1        0.0972
     13 C          -6.1504  -20.6891   20.4734 C.3     1  UNL1        0.0403
     14 C          -6.4723  -19.3134   20.9771 C.3     1  UNL1        0.0922
     15 C          -5.2004  -18.5187   21.0002 C.3     1  UNL1        0.1151
     16 C          -1.2082  -18.6260   20.2317 C.3     1  UNL1        0.1960
     17 S          -2.6503  -19.0146   20.3711 S.O2    1  UNL1        0.0457
     18 O          -3.0499  -17.8286   19.5442 O.2     1  UNL1       -0.1572
     19 O          -2.2505  -20.2006   21.1981 O.2     1  UNL1       -0.1572
     20 C          -9.0237  -19.1134   20.5291 C.3     1  UNL1        0.1185
     21 C         -10.2771  -18.3048   20.6872 C.ar    1  UNL1        0.0082
     22 C         -10.3568  -16.9236   20.1077 C.ar    1  UNL1       -0.0018
     23 C         -11.6103  -16.1151   20.2659 C.ar    1  UNL1       -0.0002
     24 C         -12.7841  -16.6877   21.0035 C.ar    1  UNL1        0.0008
     25 C         -12.7045  -18.0690   21.5831 C.ar    1  UNL1        0.0111
     26 C         -11.4510  -18.8776   21.4249 C.ar    1  UNL1        0.0553
     27 CL        -11.3713  -20.2588   22.0044 Cl      1  UNL1       -0.0825
@<TRIPOS>BOND
     1    16    17    1
     2    17    18    2
     3    17    19    2
     4    17    11    1
     5    11    12    1
     6    12    13    1
     7    13    14    1
     8    14     1    1
     9     1    20    1
    10    20    21    1
    11    21    22   ar
    12    22    23   ar
    13    23    24   ar
    14    24    25   ar
    15    25    26   ar
    16    26    27    1
    17     1     2    1
    18     2     3   ar
    19     3     4   ar
    20     4     5   ar
    21     5     9    1
    22     9    10    3
    23     5     6   ar
    24     6     7    1
    25     6     8   ar
    26    14    15    1
    27    15    11    1
    28    26    21   ar
    29     8     2   ar
@<TRIPOS>MOLECULE
*****
 27 29 0 0 0
SMALL
GASTEIGER

@<TRIPOS>ATOM
      1 N          -7.9303  -18.5973   21.7570 N.pl3   1  UNL1       -0.3037
      2 C          -6.4729  -18.6882   21.4136 C.ar    1  UNL1        0.0490
      3 C          -6.0517  -19.0963   20.0331 C.ar    1  UNL1        0.0153
      4 C          -4.5943  -19.1872   19.6898 C.ar    1  UNL1        0.0124
      5 C          -3.5582  -18.8700   20.7269 C.ar    1  UNL1        0.0791
      6 C          -3.9794  -18.4618   22.1076 C.ar    1  UNL1        0.0685
      7 CL         -2.9433  -18.1446   23.1447 Cl      1  UNL1       -0.0815
      8 C          -5.4368  -18.3709   22.4509 C.ar    1  UNL1        0.0266
      9 C          -2.1009  -18.9608   20.3836 C.1     1  UNL1        0.1013
     10 N          -0.6435  -19.0517   20.0402 N.1     1  UNL1       -0.1908
     11 N          -8.6043  -17.0559   25.2549 N.3     1  UNL1       -0.1576
     12 C          -9.3943  -18.3281   25.3417 C.3     1  UNL1        0.0972
     13 C          -9.2380  -19.0604   24.0419 C.3     1  UNL1        0.0403
     14 C          -8.3513  -18.2407   23.1519 C.3     1  UNL1        0.0922
     15 C          -7.9597  -17.0019   23.9015 C.3     1  UNL1        0.1151
     16 C          -8.3569  -14.9834   27.4097 C.3     1  UNL1        0.1960
     17 S          -8.4806  -16.0197   26.3323 S.O2    1  UNL1        0.0457
     18 O          -8.7516  -17.0674   27.3710 O.2     1  UNL1       -0.1572
     19 O          -8.2096  -14.9719   25.2936 O.2     1  UNL1       -0.1572
     20 C          -8.9665  -18.8631   20.7056 C.3     1  UNL1        0.1185
     21 C         -10.2815  -18.1428   20.7496 C.ar    1  UNL1        0.0082
     22 C         -10.3887  -16.7441   20.2185 C.ar    1  UNL1       -0.0018
     23 C         -11.7037  -16.0238   20.2625 C.ar    1  UNL1       -0.0002
     24 C         -12.9115  -16.7022   20.8376 C.ar    1  UNL1        0.0008
     25 C         -12.8044  -18.1010   21.3687 C.ar    1  UNL1        0.0111
     26 C         -11.4894  -18.8213   21.3247 C.ar    1  UNL1        0.0553
     27 CL        -11.3823  -20.2200   21.8558 Cl      1  UNL1       -0.0825
@<TRIPOS>BOND
     1    16    17    1
     2    17    18    2
     3    17    19    2
     4    17    11    1
     5    11    12    1
     6    12    13    1
     7    13    14    1
     8    14     1    1
     9     1    20    1
    10    20    21    1
    11    21    22   ar
    12    22    23   ar
    13    23    24   ar
    14    24    25   ar
    15    25    26   ar
    16    26    27    1
    17     1     2    1
    18     2     3   ar
    19     3     4   ar
    20     4     5   ar
    21     5     9    1
    22     9    10    3
    23     5     6   ar
    24     6     7    1
    25     6     8   ar
    26    14    15    1
    27    15    11    1
    28    26    21   ar
    29     8     2   ar
@<TRIPOS>MOLECULE
*****
 27 29 0 0 0
SMALL
GASTEIGER

@<TRIPOS>ATOM
      1 N          -6.9539  -18.3292   22.3179 N.pl3   1  UNL1       -0.3037
      2 C          -5.5596  -18.4536   21.7790 C.ar    1  UNL1        0.0490
      3 C          -5.3386  -18.9244   20.3720 C.ar    1  UNL1        0.0153
      4 C          -3.9443  -19.0488   19.8331 C.ar    1  UNL1        0.0124
      5 C          -2.7710  -18.7024   20.7011 C.ar    1  UNL1        0.0791
      6 C          -2.9920  -18.2316   22.1081 C.ar    1  UNL1        0.0685
      7 CL         -1.8188  -17.8852   22.9761 Cl      1  UNL1       -0.0815
      8 C          -4.3863  -18.1072   22.6470 C.ar    1  UNL1        0.0266
      9 C          -1.3767  -18.8268   20.1622 C.1     1  UNL1        0.1013
     10 N           0.0176  -18.9512   19.6233 N.1     1  UNL1       -0.1908
     11 N          -7.4375  -15.7669   25.1930 N.3     1  UNL1       -0.1576
     12 C          -8.2527  -15.1366   24.1029 C.3     1  UNL1        0.0972
     13 C          -8.1707  -16.0198   22.8931 C.3     1  UNL1        0.0403
     14 C          -7.3049  -17.1958   23.2357 C.3     1  UNL1        0.0922
     15 C          -6.8518  -17.0395   24.6570 C.3     1  UNL1        0.1151
     16 C          -7.0471  -14.6740   27.9594 C.3     1  UNL1        0.1960
     17 S          -7.2423  -15.2205   26.5761 S.O2    1  UNL1        0.0457
     18 O          -8.7271  -15.2297   26.7893 O.2     1  UNL1       -0.1572
     19 O          -5.7575  -15.2112   26.3631 O.2     1  UNL1       -0.1572
     20 C          -7.9972  -19.3382   21.9391 C.3     1  UNL1        0.1185
     21 C          -9.4392  -19.0844   22.2649 C.ar    1  UNL1        0.0082
     22 C          -9.9151  -19.1783   23.6843 C.ar    1  UNL1       -0.0018
     23 C         -11.3572  -18.9246   24.0102 C.ar    1  UNL1       -0.0002
     24 C         -12.3233  -18.5770   22.9167 C.ar    1  UNL1        0.0008
     25 C         -11.8474  -18.4831   21.4973 C.ar    1  UNL1        0.0111
     26 C         -10.4054  -18.7368   21.1714 C.ar    1  UNL1        0.0553
     27 CL         -9.9295  -18.6429   19.7520 Cl      1  UNL1       -0.0825
@<TRIPOS>BOND
     1    16    17    1
     2    17    18    2
     3    17    19    2
     4    17    11    1
     5    11    12    1
     6    12    13    1
     7    13    14    1
     8    14     1    1
     9     1    20    1
    10    20    21    1
    11    21    22   ar
    12    22    23   ar
    13    23    24   ar
    14    24    25   ar
    15    25    26   ar
    16    26    27    1
    17     1     2    1
    18     2     3   ar
    19     3     4   ar
    20     4     5   ar
    21     5     9    1
    22     9    10    3
    23     5     6   ar
    24     6     7    1
    25     6     8   ar
    26    14    15    1
    27    15    11    1
    28    26    21   ar
    29     8     2   ar
@<TRIPOS>MOLECULE
*****
 27 29 0 0 0
SMALL
GASTEIGER

@<TRIPOS>ATOM
      1 N         -14.0458   -5.1698   17.8328 N.pl3   1  UNL1       -0.3037
      2 C         -15.0702   -6.2649   17.7974 C.ar    1  UNL1        0.0490
      3 C         -15.8131   -6.5562   16.5273 C.ar    1  UNL1        0.0153
      4 C         -16.8375   -7.6513   16.4918 C.ar    1  UNL1        0.0124
      5 C         -17.1191   -8.4551   17.7265 C.ar    1  UNL1        0.0791
      6 C         -16.3763   -8.1639   18.9967 C.ar    1  UNL1        0.0685
      7 CL        -16.6579   -8.9677   20.2314 Cl      1  UNL1       -0.0815
      8 C         -15.3518   -7.0688   19.0322 C.ar    1  UNL1        0.0266
      9 C         -18.1436   -9.5502   17.6911 C.1     1  UNL1        0.1013
     10 N         -19.1680  -10.6453   17.6556 N.1     1  UNL1       -0.1908
     11 N         -14.9843   -1.7241   19.3533 N.3     1  UNL1       -0.1576
     12 C         -14.3312   -2.3908   20.5276 C.3     1  UNL1        0.0972
     13 C         -13.9002   -3.7628   20.1009 C.3     1  UNL1        0.0403
     14 C         -14.2869   -3.9439   18.6630 C.3     1  UNL1        0.0922
     15 C         -14.9569   -2.6839   18.2009 C.3     1  UNL1        0.1151
     16 C         -16.1421    1.0432   19.3160 C.3     1  UNL1        0.1960
     17 S         -15.5632   -0.3405   19.3346 S.O2    1  UNL1        0.0457
     18 O         -14.3572    0.1541   18.5922 O.2     1  UNL1       -0.1572
     19 O         -16.7692   -0.8349   20.0770 O.2     1  UNL1       -0.1572
     20 C         -12.7803   -5.3006   17.0382 C.3     1  UNL1        0.1185
     21 C         -11.6182   -6.0653   17.5991 C.ar    1  UNL1        0.0082
     22 C         -10.7493   -5.4437   18.6520 C.ar    1  UNL1       -0.0018
     23 C          -9.5871   -6.2084   19.2129 C.ar    1  UNL1       -0.0002
     24 C          -9.2938   -7.5947   18.7209 C.ar    1  UNL1        0.0008
     25 C         -10.1627   -8.2163   17.6679 C.ar    1  UNL1        0.0111
     26 C         -11.3249   -7.4516   17.1070 C.ar    1  UNL1        0.0553
     27 CL        -12.1937   -8.0732   16.0541 Cl      1  UNL1       -0.0825
@<TRIPOS>BOND
     1    16    17    1
     2    17    18    2
     3    17    19    2
     4    17    11    1
     5    11    12    1
     6    12    13    1
     7    13    14    1
     8    14     1    1
     9     1    20    1
    10    20    21    1
    11    21    22   ar
    12    22    23   ar
    13    23    24   ar
    14    24    25   ar
    15    25    26   ar
    16    26    27    1
    17     1     2    1
    18     2     3   ar
    19     3     4   ar
    20     4     5   ar
    21     5     9    1
    22     9    10    3
    23     5     6   ar
    24     6     7    1
    25     6     8   ar
    26    14    15    1
    27    15    11    1
    28    26    21   ar
    29     8     2   ar
@<TRIPOS>MOLECULE
*****
 27 29 0 0 0
SMALL
GASTEIGER

@<TRIPOS>ATOM
      1 N          -6.3434  -18.5564   22.3770 N.pl3   1  UNL1       -0.3037
      2 C          -4.9287  -18.5134   21.8805 C.ar    1  UNL1        0.0490
      3 C          -3.8289  -18.0491   22.7886 C.ar    1  UNL1        0.0153
      4 C          -2.4141  -18.0061   22.2921 C.ar    1  UNL1        0.0124
      5 C          -2.0991  -18.4274   20.8874 C.ar    1  UNL1        0.0791
      6 C          -3.1989  -18.8918   19.9792 C.ar    1  UNL1        0.0685
      7 CL         -2.8839  -19.3131   18.5745 Cl      1  UNL1       -0.0815
      8 C          -4.6137  -18.9348   20.4757 C.ar    1  UNL1        0.0266
      9 C          -0.6843  -18.3844   20.3909 C.1     1  UNL1        0.1013
     10 N           0.7305  -18.3415   19.8944 N.1     1  UNL1       -0.1908
     11 N          -7.2173  -15.8769   25.0458 N.3     1  UNL1       -0.1576
     12 C          -8.1893  -15.5297   23.9573 C.3     1  UNL1        0.0972
     13 C          -7.9802  -16.4912   22.8251 C.3     1  UNL1        0.0403
     14 C          -6.8791  -17.4326   23.2139 C.3     1  UNL1        0.0922
     15 C          -6.4076  -17.0530   24.5863 C.3     1  UNL1        0.1151
     16 C          -6.9414  -14.4669   27.6793 C.3     1  UNL1        0.1960
     17 S          -7.0794  -15.1719   26.3625 S.O2    1  UNL1        0.0457
     18 O          -8.4984  -15.5229   26.6991 O.2     1  UNL1       -0.1572
     19 O          -5.6604  -14.8210   26.0260 O.2     1  UNL1       -0.1572
     20 C          -7.2226  -19.7231   22.0367 C.3     1  UNL1        0.1185
     21 C          -8.6574  -19.4970   21.6623 C.ar    1  UNL1        0.0082
     22 C          -9.0080  -19.0388   20.2777 C.ar    1  UNL1       -0.0018
     23 C         -10.4428  -18.8127   19.9033 C.ar    1  UNL1       -0.0002
     24 C         -11.5270  -19.0448   20.9135 C.ar    1  UNL1        0.0008
     25 C         -11.1765  -19.5030   22.2982 C.ar    1  UNL1        0.0111
     26 C          -9.7417  -19.7291   22.6726 C.ar    1  UNL1        0.0553
     27 CL         -9.3911  -20.1873   24.0572 Cl      1  UNL1       -0.0825
@<TRIPOS>BOND
     1    16    17    1
     2    17    18    2
     3    17    19    2
     4    17    11    1
     5    11    12    1
     6    12    13    1
     7    13    14    1
     8    14     1    1
     9     1    20    1
    10    20    21    1
    11    21    22   ar
    12    22    23   ar
    13    23    24   ar
    14    24    25   ar
    15    25    26   ar
    16    26    27    1
    17     1     2    1
    18     2     3   ar
    19     3     4   ar
    20     4     5   ar
    21     5     9    1
    22     9    10    3
    23     5     6   ar
    24     6     7    1
    25     6     8   ar
    26    14    15    1
    27    15    11    1
    28    26    21   ar
    29     8     2   ar
@<TRIPOS>MOLECULE
*****
 27 29 0 0 0
SMALL
GASTEIGER

@<TRIPOS>ATOM
      1 N         -15.4182   -4.4771   18.4459 N.pl3   1  UNL1       -0.3037
      2 C         -15.9816   -3.2063   19.0095 C.ar    1  UNL1        0.0490
      3 C         -15.1165   -1.9858   19.1184 C.ar    1  UNL1        0.0153
      4 C         -15.6800   -0.7150   19.6820 C.ar    1  UNL1        0.0124
      5 C         -17.1085   -0.6648   20.1367 C.ar    1  UNL1        0.0791
      6 C         -17.9736   -1.8853   20.0278 C.ar    1  UNL1        0.0685
      7 CL        -19.4021   -1.8351   20.4825 Cl      1  UNL1       -0.0815
      8 C         -17.4102   -3.1561   19.4642 C.ar    1  UNL1        0.0266
      9 C         -17.6719    0.6060   20.7004 C.1     1  UNL1        0.1013
     10 N         -18.2353    1.8768   21.2640 N.1     1  UNL1       -0.1908
     11 N         -11.5755   -4.7480   17.9705 N.3     1  UNL1       -0.1576
     12 C         -11.7654   -5.5204   19.2423 C.3     1  UNL1        0.0972
     13 C         -13.2280   -5.5130   19.5751 C.3     1  UNL1        0.0403
     14 C         -13.9420   -4.7359   18.5091 C.3     1  UNL1        0.0922
     15 C         -12.9207   -4.2632   17.5174 C.3     1  UNL1        0.1151
     16 C          -8.9639   -4.2587   16.5777 C.3     1  UNL1        0.1960
     17 S         -10.2698   -4.5033   17.2741 S.O2    1  UNL1        0.0457
     18 O          -9.6686   -4.0347   18.5660 O.2     1  UNL1       -0.1572
     19 O         -10.8708   -4.9720   15.9822 O.2     1  UNL1       -0.1572
     20 C         -16.3309   -5.4891   17.8191 C.3     1  UNL1        0.1185
     21 C         -16.5281   -6.8260   18.4700 C.ar    1  UNL1        0.0082
     22 C         -17.5099   -6.9754   19.5942 C.ar    1  UNL1       -0.0018
     23 C         -17.7071   -8.3123   20.2451 C.ar    1  UNL1       -0.0002
     24 C         -16.9226   -9.4999   19.7718 C.ar    1  UNL1        0.0008
     25 C         -15.9408   -9.3507   18.6476 C.ar    1  UNL1        0.0111
     26 C         -15.7436   -8.0137   17.9967 C.ar    1  UNL1        0.0553
     27 CL        -14.7619   -7.8644   16.8725 Cl      1  UNL1       -0.0825
@<TRIPOS>BOND
     1    16    17    1
     2    17    18    2
     3    17    19    2
     4    17    11    1
     5    11    12    1
     6    12    13    1
     7    13    14    1
     8    14     1    1
     9     1    20    1
    10    20    21    1
    11    21    22   ar
    12    22    23   ar
    13    23    24   ar
    14    24    25   ar
    15    25    26   ar
    16    26    27    1
    17     1     2    1
    18     2     3   ar
    19     3     4   ar
    20     4     5   ar
    21     5     9    1
    22     9    10    3
    23     5     6   ar
    24     6     7    1
    25     6     8   ar
    26    14    15    1
    27    15    11    1
    28    26    21   ar
    29     8     2   ar
@<TRIPOS>MOLECULE
*****
 27 29 0 0 0
SMALL
GASTEIGER

@<TRIPOS>ATOM
      1 N           3.4713   -0.8494   18.8147 N.pl3   1  UNL1       -0.3037
      2 C           2.2974   -0.0345   19.2706 C.ar    1  UNL1        0.0490
      3 C           1.6739   -0.3008   20.6085 C.ar    1  UNL1        0.0153
      4 C           0.5000    0.5141   21.0645 C.ar    1  UNL1        0.0124
      5 C          -0.0504    1.5954   20.1825 C.ar    1  UNL1        0.0791
      6 C           0.5732    1.8617   18.8444 C.ar    1  UNL1        0.0685
      7 CL          0.0229    2.9430   17.9624 Cl      1  UNL1       -0.0815
      8 C           1.7471    1.0468   18.3885 C.ar    1  UNL1        0.0266
      9 C          -1.2243    2.4103   20.6384 C.1     1  UNL1        0.1013
     10 N          -2.3982    3.2252   21.0943 N.1     1  UNL1       -0.1908
     11 N           4.9867   -3.3993   21.3180 N.3     1  UNL1       -0.1576
     12 C           4.2345   -4.3115   20.3949 C.3     1  UNL1        0.0972
     13 C           3.5753   -3.4673   19.3447 C.3     1  UNL1        0.0403
     14 C           3.9201   -2.0334   19.6189 C.3     1  UNL1        0.0922
     15 C           4.7924   -1.9914   20.8385 C.3     1  UNL1        0.1151
     16 C           6.5970   -4.2428   23.7045 C.3     1  UNL1        0.1960
     17 S           5.7919   -3.8211   22.5112 S.O2    1  UNL1        0.0457
     18 O           6.7950   -4.4707   21.6047 O.2     1  UNL1       -0.1572
     19 O           4.7888   -3.1715   23.4178 O.2     1  UNL1       -0.1572
     20 C           4.1965   -0.4803   17.5545 C.3     1  UNL1        0.1185
     21 C           5.4142    0.3932   17.6183 C.ar    1  UNL1        0.0082
     22 C           5.2738    1.8836   17.5239 C.ar    1  UNL1       -0.0018
     23 C           6.4915    2.7572   17.5877 C.ar    1  UNL1       -0.0002
     24 C           7.8496    2.1404   17.7459 C.ar    1  UNL1        0.0008
     25 C           7.9900    0.6499   17.8403 C.ar    1  UNL1        0.0111
     26 C           6.7723   -0.2237   17.7765 C.ar    1  UNL1        0.0553
     27 CL          6.9127   -1.7141   17.8710 Cl      1  UNL1       -0.0825
@<TRIPOS>BOND
     1    16    17    1
     2    17    18    2
     3    17    19    2
     4    17    11    1
     5    11    12    1
     6    12    13    1
     7    13    14    1
     8    14     1    1
     9     1    20    1
    10    20    21    1
    11    21    22   ar
    12    22    23   ar
    13    23    24   ar
    14    24    25   ar
    15    25    26   ar
    16    26    27    1
    17     1     2    1
    18     2     3   ar
    19     3     4   ar
    20     4     5   ar
    21     5     9    1
    22     9    10    3
    23     5     6   ar
    24     6     7    1
    25     6     8   ar
    26    14    15    1
    27    15    11    1
    28    26    21   ar
    29     8     2   ar
@<TRIPOS>MOLECULE
*****
 27 29 0 0 0
SMALL
GASTEIGER

@<TRIPOS>ATOM
      1 N           3.8815    0.8956   32.7784 N.pl3   1  UNL1       -0.3037
      2 C           4.5977   -0.3933   32.5031 C.ar    1  UNL1        0.0490
      3 C           4.3023   -1.6075   33.3327 C.ar    1  UNL1        0.0153
      4 C           5.0184   -2.8964   33.0575 C.ar    1  UNL1        0.0124
      5 C           6.0301   -2.9712   31.9525 C.ar    1  UNL1        0.0791
      6 C           6.3256   -1.7569   31.1228 C.ar    1  UNL1        0.0685
      7 CL          7.3372   -1.8316   30.0179 Cl      1  UNL1       -0.0815
      8 C           5.6094   -0.4680   31.3981 C.ar    1  UNL1        0.0266
      9 C           6.7463   -4.2601   31.6772 C.1     1  UNL1        0.1013
     10 N           7.4624   -5.5490   31.4020 N.1     1  UNL1       -0.1908
     11 N           0.8439    1.2426   30.3871 N.3     1  UNL1       -0.1576
     12 C           0.4446    2.1670   31.4990 C.3     1  UNL1        0.0972
     13 C           1.5340    2.1495   32.5301 C.3     1  UNL1        0.0403
     14 C           2.6064    1.2143   32.0554 C.3     1  UNL1        0.0922
     15 C           2.1800    0.6538   30.7311 C.3     1  UNL1        0.1151
     16 C          -0.7498    0.6717   27.9105 C.3     1  UNL1        0.1960
     17 S           0.0471    0.9571   29.1488 S.O2    1  UNL1        0.0457
     18 O           1.1906    1.4338   28.3031 O.2     1  UNL1       -0.1572
     19 O          -1.0965    0.4805   29.9945 O.2     1  UNL1       -0.1572
     20 C           4.4404    1.8658   33.7765 C.3     1  UNL1        0.1185
     21 C           4.2051    1.6527   35.2425 C.ar    1  UNL1        0.0082
     22 C           2.9636    2.1918   35.8890 C.ar    1  UNL1       -0.0018
     23 C           2.7283    1.9787   37.3550 C.ar    1  UNL1       -0.0002
     24 C           3.7344    1.2264   38.1746 C.ar    1  UNL1        0.0008
     25 C           4.9760    0.6872   37.5281 C.ar    1  UNL1        0.0111
     26 C           5.2113    0.9003   36.0621 C.ar    1  UNL1        0.0553
     27 CL          6.4528    0.3611   35.4156 Cl      1  UNL1       -0.0825
@<TRIPOS>BOND
     1    16    17    1
     2    17    18    2
     3    17    19    2
     4    17    11    1
     5    11    12    1
     6    12    13    1
     7    13    14    1
     8    14     1    1
     9     1    20    1
    10    20    21    1
    11    21    22   ar
    12    22    23   ar
    13    23    24   ar
    14    24    25   ar
    15    25    26   ar
    16    26    27    1
    17     1     2    1
    18     2     3   ar
    19     3     4   ar
    20     4     5   ar
    21     5     9    1
    22     9    10    3
    23     5     6   ar
    24     6     7    1
    25     6     8   ar
    26    14    15    1
    27    15    11    1
    28    26    21   ar
    29     8     2   ar
