@<TRIPOS>MOLECULE
*****
 33 35 0 0 0
SMALL
GASTEIGER

@<TRIPOS>ATOM
      1 S          -8.9941  -19.8156   22.6489 S.O2    1  UNL1        0.0736
      2 O          -9.2593  -20.1095   24.0957 O.2     1  UNL1       -0.1499
      3 O          -8.7289  -19.5217   21.2021 O.2     1  UNL1       -0.1499
      4 C         -10.2622  -19.0175   22.5785 C.ar    1  UNL1        0.1251
      5 C         -10.5098  -18.1038   21.4150 C.ar    1  UNL1        0.0240
      6 C         -11.7780  -17.3058   21.3447 C.ar    1  UNL1        0.0727
      7 C         -12.7985  -17.4214   22.4379 C.ar    1  UNL1        0.0078
      8 C         -12.5509  -18.3351   23.6014 C.ar    1  UNL1        0.0727
      9 C         -11.2828  -19.1331   23.6717 C.ar    1  UNL1        0.0240
     10 C         -12.0255  -16.3920   20.1811 C.3     1  UNL1        0.4186
     11 F         -12.2731  -15.4784   19.0175 F       1  UNL1       -0.1659
     12 F         -13.0374  -15.6360   20.9900 F       1  UNL1       -0.1659
     13 F         -11.0136  -17.1481   19.3722 F       1  UNL1       -0.1659
     14 C         -13.5714  -18.4508   24.6947 C.3     1  UNL1        0.4186
     15 F         -14.5919  -18.5665   25.7879 F       1  UNL1       -0.1659
     16 F         -12.5080  -18.9327   25.6363 F       1  UNL1       -0.1659
     17 F         -14.6349  -17.9688   23.7530 F       1  UNL1       -0.1659
     18 N          -7.7260  -20.6136   22.7192 N.pl3   1  UNL1       -0.2150
     19 H          -7.7064  -21.4641   23.2146 H       1  UNL1        0.1737
     20 C          -4.0108  -19.1201   20.6657 C.ar    1  UNL1        0.0002
     21 C          -4.5207  -18.4242   21.8928 C.ar    1  UNL1        0.0013
     22 C          -5.7591  -18.9220   22.5773 C.ar    1  UNL1        0.0159
     23 C          -6.4876  -20.1158   22.0347 C.ar    1  UNL1        0.0648
     24 C          -5.9776  -20.8117   20.8077 C.ar    1  UNL1        0.0159
     25 C          -4.7392  -20.3138   20.1232 C.ar    1  UNL1        0.0013
     26 C          -0.2161  -18.1589   20.0125 C.ar    1  UNL1        0.0590
     27 C          -1.4545  -18.6567   20.6969 C.ar    1  UNL1        0.0147
     28 C          -2.7723  -18.6222   19.9812 C.ar    1  UNL1        0.0027
     29 C          -2.8517  -18.0899   18.5811 C.ar    1  UNL1        0.0207
     30 C          -1.6133  -17.5921   17.8967 C.ar    1  UNL1        0.0984
     31 N          -0.2955  -17.6266   18.6124 N.ar    1  UNL1       -0.2482
     32 C           2.1294  -17.1346   20.4586 C.3     1  UNL1        0.0067
     33 C           1.1017  -18.1933   20.7282 C.3     1  UNL1        0.0458
@<TRIPOS>BOND
     1    32    33    1
     2    33    26    1
     3    26    27   ar
     4    27    28   ar
     5    28    20    1
     6    20    21   ar
     7    21    22   ar
     8    22    23   ar
     9    23    18    1
    10    18     1    1
    11     1     2    2
    12     1     3    2
    13     1     4    1
    14     4     5   ar
    15     5     6   ar
    16     6    10    1
    17    10    11    1
    18    10    12    1
    19    10    13    1
    20     6     7   ar
    21     7     8   ar
    22     8    14    1
    23    14    15    1
    24    14    16    1
    25    14    17    1
    26     8     9   ar
    27    23    24   ar
    28    24    25   ar
    29    28    29   ar
    30    29    30   ar
    31    30    31   ar
    32    31    26   ar
    33    25    20   ar
    34     9     4   ar
    35    18    19    1
@<TRIPOS>MOLECULE
*****
 33 35 0 0 0
SMALL
GASTEIGER

@<TRIPOS>ATOM
      1 S          -9.0046  -19.8007   22.6428 S.O2    1  UNL1        0.0736
      2 O          -8.7784  -19.5780   21.1768 O.2     1  UNL1       -0.1499
      3 O          -9.2308  -20.0233   24.1088 O.2     1  UNL1       -0.1499
      4 C         -10.2715  -19.0010   22.5687 C.ar    1  UNL1        0.1251
      5 C         -11.2958  -19.1160   23.6584 C.ar    1  UNL1        0.0240
      6 C         -12.5627  -18.3163   23.5844 C.ar    1  UNL1        0.0727
      7 C         -12.8052  -17.4015   22.4206 C.ar    1  UNL1        0.0078
      8 C         -11.7809  -17.2865   21.3310 C.ar    1  UNL1        0.0727
      9 C         -10.5140  -18.0862   21.4050 C.ar    1  UNL1        0.0240
     10 C         -13.5871  -18.4315   24.6741 C.3     1  UNL1        0.4186
     11 F         -14.6114  -18.5466   25.7638 F       1  UNL1       -0.1659
     12 F         -12.5278  -18.9169   25.6186 F       1  UNL1       -0.1659
     13 F         -14.6464  -17.9460   23.7296 F       1  UNL1       -0.1659
     14 C         -12.0234  -16.3716   20.1672 C.3     1  UNL1        0.4186
     15 F         -12.2659  -15.4568   19.0035 F       1  UNL1       -0.1659
     16 F         -13.0470  -15.6234   20.9687 F       1  UNL1       -0.1659
     17 F         -10.9998  -17.1198   19.3657 F       1  UNL1       -0.1659
     18 N          -7.7377  -20.6004   22.7168 N.pl3   1  UNL1       -0.2150
     19 H          -7.7206  -21.4506   23.2128 H       1  UNL1        0.1737
     20 C          -4.0153  -19.1131   20.6719 C.ar    1  UNL1        0.0002
     21 C          -4.5270  -18.4163   21.8977 C.ar    1  UNL1        0.0013
     22 C          -5.7678  -18.9120   22.5794 C.ar    1  UNL1        0.0159
     23 C          -6.4969  -20.1046   22.0352 C.ar    1  UNL1        0.0648
     24 C          -5.9852  -20.8015   20.8094 C.ar    1  UNL1        0.0159
     25 C          -4.7444  -20.3057   20.1278 C.ar    1  UNL1        0.0013
     26 C          -0.2188  -18.1516   20.0300 C.ar    1  UNL1        0.0590
     27 C          -1.4596  -18.6473   20.7116 C.ar    1  UNL1        0.0147
     28 C          -2.7745  -18.6173   19.9903 C.ar    1  UNL1        0.0027
     29 C          -2.8485  -18.0916   18.5874 C.ar    1  UNL1        0.0207
     30 C          -1.6077  -17.5958   17.9059 C.ar    1  UNL1        0.0984
     31 N          -0.2928  -17.6258   18.6271 N.ar    1  UNL1       -0.2482
     32 C           2.1465  -17.1575   20.4388 C.3     1  UNL1        0.0067
     33 C           1.0961  -18.1816   20.7513 C.3     1  UNL1        0.0458
@<TRIPOS>BOND
     1    32    33    1
     2    33    26    1
     3    26    27   ar
     4    27    28   ar
     5    28    20    1
     6    20    21   ar
     7    21    22   ar
     8    22    23   ar
     9    23    18    1
    10    18     1    1
    11     1     2    2
    12     1     3    2
    13     1     4    1
    14     4     5   ar
    15     5     6   ar
    16     6    10    1
    17    10    11    1
    18    10    12    1
    19    10    13    1
    20     6     7   ar
    21     7     8   ar
    22     8    14    1
    23    14    15    1
    24    14    16    1
    25    14    17    1
    26     8     9   ar
    27    23    24   ar
    28    24    25   ar
    29    28    29   ar
    30    29    30   ar
    31    30    31   ar
    32    31    26   ar
    33    25    20   ar
    34     9     4   ar
    35    18    19    1
@<TRIPOS>MOLECULE
*****
 33 35 0 0 0
SMALL
GASTEIGER

@<TRIPOS>ATOM
      1 S          -1.2171    3.2203   21.3469 S.O2    1  UNL1        0.0736
      2 O          -2.5637    2.7469   20.8858 O.2     1  UNL1       -0.1499
      3 O           0.1295    3.6937   21.8079 O.2     1  UNL1       -0.1499
      4 C          -1.7230    3.2856   22.7575 C.ar    1  UNL1        0.1251
      5 C          -3.1671    3.5924   23.0229 C.ar    1  UNL1        0.0240
      6 C          -3.6730    3.6576   24.4335 C.ar    1  UNL1        0.0727
      7 C          -2.7348    3.4161   25.5787 C.ar    1  UNL1        0.0078
      8 C          -1.2907    3.1094   25.3132 C.ar    1  UNL1        0.0727
      9 C          -0.7848    3.0441   23.9026 C.ar    1  UNL1        0.0240
     10 C          -5.1171    3.9644   24.6989 C.3     1  UNL1        0.4186
     11 F          -6.5612    4.2712   24.9642 F       1  UNL1       -0.1659
     12 F          -4.8421    3.9839   26.1733 F       1  UNL1       -0.1659
     13 F          -5.3922    3.9450   23.2245 F       1  UNL1       -0.1659
     14 C          -0.3525    2.8678   26.4584 C.3     1  UNL1        0.4186
     15 F           0.5858    2.6263   27.6036 F       1  UNL1       -0.1659
     16 F           0.8036    3.2871   25.5996 F       1  UNL1       -0.1659
     17 F          -1.5086    2.4486   27.3173 F       1  UNL1       -0.1659
     18 N          -0.7112    3.1551   19.9363 N.pl3   1  UNL1       -0.2150
     19 H          -1.1202    3.7184   19.2401 H       1  UNL1        0.1737
     20 C           2.6760    0.3846   18.8866 C.ar    1  UNL1        0.0002
     21 C           1.5138   -0.1218   19.6885 C.ar    1  UNL1        0.0013
     22 C           0.3848    0.8017   20.0384 C.ar    1  UNL1        0.0159
     23 C           0.4179    2.2316   19.5864 C.ar    1  UNL1        0.0648
     24 C           1.5800    2.7380   18.7845 C.ar    1  UNL1        0.0159
     25 C           2.7091    1.8145   18.4346 C.ar    1  UNL1        0.0013
     26 C           4.8219   -2.9291   18.4810 C.ar    1  UNL1        0.0590
     27 C           3.6930   -2.0055   18.8309 C.ar    1  UNL1        0.0147
     28 C           3.8050   -0.5389   18.5367 C.ar    1  UNL1        0.0027
     29 C           5.0461    0.0041   17.8927 C.ar    1  UNL1        0.0207
     30 C           6.1751   -0.9194   17.5429 C.ar    1  UNL1        0.0984
     31 N           6.0630   -2.3860   17.8370 N.ar    1  UNL1       -0.2482
     32 C           3.5111   -4.9247   19.5052 C.3     1  UNL1        0.0067
     33 C           4.7099   -4.3956   18.7752 C.3     1  UNL1        0.0458
@<TRIPOS>BOND
     1    32    33    1
     2    33    26    1
     3    26    27   ar
     4    27    28   ar
     5    28    20    1
     6    20    21   ar
     7    21    22   ar
     8    22    23   ar
     9    23    18    1
    10    18     1    1
    11     1     2    2
    12     1     3    2
    13     1     4    1
    14     4     5   ar
    15     5     6   ar
    16     6    10    1
    17    10    11    1
    18    10    12    1
    19    10    13    1
    20     6     7   ar
    21     7     8   ar
    22     8    14    1
    23    14    15    1
    24    14    16    1
    25    14    17    1
    26     8     9   ar
    27    23    24   ar
    28    24    25   ar
    29    28    29   ar
    30    29    30   ar
    31    30    31   ar
    32    31    26   ar
    33    25    20   ar
    34     9     4   ar
    35    18    19    1
@<TRIPOS>MOLECULE
*****
 33 35 0 0 0
SMALL
GASTEIGER

@<TRIPOS>ATOM
      1 S          -1.2836    3.4172   20.5355 S.O2    1  UNL1        0.0736
      2 O          -1.8005    3.4901   19.1293 O.2     1  UNL1       -0.1499
      3 O          -0.7666    3.3442   21.9417 O.2     1  UNL1       -0.1499
      4 C          -2.6874    3.5070   21.0562 C.ar    1  UNL1        0.1251
      5 C          -3.8371    3.6137   20.0988 C.ar    1  UNL1        0.0240
      6 C          -5.2409    3.7035   20.6196 C.ar    1  UNL1        0.0727
      7 C          -5.4950    3.6866   22.0978 C.ar    1  UNL1        0.0078
      8 C          -4.3453    3.5799   23.0552 C.ar    1  UNL1        0.0727
      9 C          -2.9415    3.4901   22.5344 C.ar    1  UNL1        0.0240
     10 C          -6.3907    3.8102   19.6621 C.3     1  UNL1        0.4186
     11 F          -7.5404    3.9168   18.7046 F       1  UNL1       -0.1659
     12 F          -7.1137    4.7000   20.6293 F       1  UNL1       -0.1659
     13 F          -5.6677    2.9203   18.6949 F       1  UNL1       -0.1659
     14 C          -4.5994    3.5630   24.5335 C.3     1  UNL1        0.4186
     15 F          -4.8533    3.5461   26.0117 F       1  UNL1       -0.1659
     16 F          -3.1732    3.1654   24.7740 F       1  UNL1       -0.1659
     17 F          -6.0255    3.9606   24.2930 F       1  UNL1       -0.1659
     18 N           0.1203    3.3274   20.0147 N.pl3   1  UNL1       -0.2150
     19 H           0.5291    4.1021   19.5653 H       1  UNL1        0.1737
     20 C           2.4632   -0.4830   20.5063 C.ar    1  UNL1        0.0002
     21 C           3.1707    0.8396   20.5200 C.ar    1  UNL1        0.0013
     22 C           2.3898    2.1097   20.3562 C.ar    1  UNL1        0.0159
     23 C           0.9012    2.0573   20.1785 C.ar    1  UNL1        0.0648
     24 C           0.1936    0.7347   20.1648 C.ar    1  UNL1        0.0159
     25 C           0.9747   -0.5354   20.3287 C.ar    1  UNL1        0.0013
     26 C           4.7171   -3.3160   22.1324 C.ar    1  UNL1        0.0590
     27 C           3.9361   -2.0459   21.9685 C.ar    1  UNL1        0.0147
     28 C           3.2442   -1.7531   20.6702 C.ar    1  UNL1        0.0027
     29 C           3.3332   -2.7305   19.5358 C.ar    1  UNL1        0.0207
     30 C           4.1142   -4.0006   19.6997 C.ar    1  UNL1        0.0984
     31 N           4.8062   -4.2933   20.9980 N.ar    1  UNL1       -0.2482
     32 C           6.8301   -4.0888   23.4316 C.3     1  UNL1        0.0067
     33 C           5.4091   -3.6087   23.4306 C.3     1  UNL1        0.0458
@<TRIPOS>BOND
     1    32    33    1
     2    33    26    1
     3    26    27   ar
     4    27    28   ar
     5    28    20    1
     6    20    21   ar
     7    21    22   ar
     8    22    23   ar
     9    23    18    1
    10    18     1    1
    11     1     2    2
    12     1     3    2
    13     1     4    1
    14     4     5   ar
    15     5     6   ar
    16     6    10    1
    17    10    11    1
    18    10    12    1
    19    10    13    1
    20     6     7   ar
    21     7     8   ar
    22     8    14    1
    23    14    15    1
    24    14    16    1
    25    14    17    1
    26     8     9   ar
    27    23    24   ar
    28    24    25   ar
    29    28    29   ar
    30    29    30   ar
    31    30    31   ar
    32    31    26   ar
    33    25    20   ar
    34     9     4   ar
    35    18    19    1
@<TRIPOS>MOLECULE
*****
 33 35 0 0 0
SMALL
GASTEIGER

@<TRIPOS>ATOM
      1 S          -1.3326    3.2362   21.4087 S.O2    1  UNL1        0.0736
      2 O           0.0222    3.6486   21.9031 O.2     1  UNL1       -0.1499
      3 O          -2.6874    2.8238   20.9142 O.2     1  UNL1       -0.1499
      4 C          -1.8565    3.2725   22.8137 C.ar    1  UNL1        0.1251
      5 C          -0.9399    2.9772   23.9638 C.ar    1  UNL1        0.0240
      6 C          -1.4638    3.0136   25.3689 C.ar    1  UNL1        0.0727
      7 C          -2.9042    3.3452   25.6239 C.ar    1  UNL1        0.0078
      8 C          -3.8208    3.6405   24.4739 C.ar    1  UNL1        0.0727
      9 C          -3.2969    3.6042   23.0688 C.ar    1  UNL1        0.0240
     10 C          -0.5471    2.7182   26.5189 C.3     1  UNL1        0.4186
     11 F           0.3696    2.4229   27.6689 F       1  UNL1       -0.1659
     12 F          -1.7228    2.2900   27.3461 F       1  UNL1       -0.1659
     13 F           0.6286    3.1464   25.6917 F       1  UNL1       -0.1659
     14 C          -5.2613    3.9722   24.7289 C.3     1  UNL1        0.4186
     15 F          -6.7018    4.3038   24.9839 F       1  UNL1       -0.1659
     16 F          -4.9276    4.3312   26.1465 F       1  UNL1       -0.1659
     17 F          -5.5950    3.6131   23.3113 F       1  UNL1       -0.1659
     18 N          -0.8088    3.1999   20.0036 N.pl3   1  UNL1       -0.2150
     19 H          -1.2026    3.7844   19.3162 H       1  UNL1        0.1737
     20 C           2.5627    0.4193   18.9304 C.ar    1  UNL1        0.0002
     21 C           1.3830   -0.0948   19.7013 C.ar    1  UNL1        0.0013
     22 C           0.2592    0.8321   20.0590 C.ar    1  UNL1        0.0159
     23 C           0.3150    2.2730   19.6459 C.ar    1  UNL1        0.0648
     24 C           1.4946    2.7871   18.8750 C.ar    1  UNL1        0.0159
     25 C           2.6185    1.8601   18.5173 C.ar    1  UNL1        0.0013
     26 C           4.7347   -2.8848   18.5906 C.ar    1  UNL1        0.0590
     27 C           3.6109   -1.9579   18.9483 C.ar    1  UNL1        0.0147
     28 C           3.6865   -0.5076   18.5727 C.ar    1  UNL1        0.0027
     29 C           4.8858    0.0157   17.8395 C.ar    1  UNL1        0.0207
     30 C           6.0096   -0.9112   17.4818 C.ar    1  UNL1        0.0984
     31 N           5.9340   -2.3615   17.8574 N.ar    1  UNL1       -0.2482
     32 C           3.3439   -4.9409   19.3577 C.3     1  UNL1        0.0067
     33 C           4.6591   -4.3351   18.9661 C.3     1  UNL1        0.0458
@<TRIPOS>BOND
     1    32    33    1
     2    33    26    1
     3    26    27   ar
     4    27    28   ar
     5    28    20    1
     6    20    21   ar
     7    21    22   ar
     8    22    23   ar
     9    23    18    1
    10    18     1    1
    11     1     2    2
    12     1     3    2
    13     1     4    1
    14     4     5   ar
    15     5     6   ar
    16     6    10    1
    17    10    11    1
    18    10    12    1
    19    10    13    1
    20     6     7   ar
    21     7     8   ar
    22     8    14    1
    23    14    15    1
    24    14    16    1
    25    14    17    1
    26     8     9   ar
    27    23    24   ar
    28    24    25   ar
    29    28    29   ar
    30    29    30   ar
    31    30    31   ar
    32    31    26   ar
    33    25    20   ar
    34     9     4   ar
    35    18    19    1
@<TRIPOS>MOLECULE
*****
 33 35 0 0 0
SMALL
GASTEIGER

@<TRIPOS>ATOM
      1 S          -1.1591    3.4143   20.7021 S.O2    1  UNL1        0.0736
      2 O          -0.7147    3.2978   22.1300 O.2     1  UNL1       -0.1499
      3 O          -1.6034    3.5307   19.2742 O.2     1  UNL1       -0.1499
      4 C          -2.5877    3.4906   21.1529 C.ar    1  UNL1        0.1251
      5 C          -2.9118    3.5144   22.6172 C.ar    1  UNL1        0.0240
      6 C          -4.3404    3.5907   23.0681 C.ar    1  UNL1        0.0727
      7 C          -5.4449    3.6432   22.0545 C.ar    1  UNL1        0.0078
      8 C          -5.1208    3.6194   20.5902 C.ar    1  UNL1        0.0727
      9 C          -3.6922    3.5431   20.1394 C.ar    1  UNL1        0.0240
     10 C          -4.6645    3.6145   24.5325 C.3     1  UNL1        0.4186
     11 F          -4.9885    3.6383   25.9969 F       1  UNL1       -0.1659
     12 F          -6.0853    3.9732   24.2123 F       1  UNL1       -0.1659
     13 F          -3.2437    3.2557   24.8527 F       1  UNL1       -0.1659
     14 C          -6.2253    3.6718   19.5766 C.3     1  UNL1        0.4186
     15 F          -7.3298    3.7243   18.5630 F       1  UNL1       -0.1659
     16 F          -5.3066    3.0870   18.5452 F       1  UNL1       -0.1659
     17 F          -7.1441    4.2567   20.6080 F       1  UNL1       -0.1659
     18 N           0.2696    3.3380   20.2513 N.pl3   1  UNL1       -0.2150
     19 H           0.7086    4.1325   19.8702 H       1  UNL1        0.1737
     20 C           2.5486   -0.5226   20.6404 C.ar    1  UNL1        0.0002
     21 C           1.0947   -0.5438   20.2720 C.ar    1  UNL1        0.0013
     22 C           0.3350    0.7430   20.1423 C.ar    1  UNL1        0.0159
     23 C           1.0293    2.0511   20.3810 C.ar    1  UNL1        0.0648
     24 C           2.4831    2.0724   20.7494 C.ar    1  UNL1        0.0159
     25 C           3.2428    0.7854   20.8791 C.ar    1  UNL1        0.0013
     26 C           4.7993   -3.4107   22.1712 C.ar    1  UNL1        0.0590
     27 C           4.0397   -2.1239   22.0415 C.ar    1  UNL1        0.0147
     28 C           3.3083   -1.8096   20.7701 C.ar    1  UNL1        0.0027
     29 C           3.3366   -2.7821   19.6285 C.ar    1  UNL1        0.0207
     30 C           4.0963   -4.0690   19.7582 C.ar    1  UNL1        0.0984
     31 N           4.8276   -4.3833   21.0296 N.ar    1  UNL1       -0.2482
     32 C           6.2846   -2.6453   24.1607 C.3     1  UNL1        0.0067
     33 C           5.5307   -3.7250   23.4426 C.3     1  UNL1        0.0458
@<TRIPOS>BOND
     1    32    33    1
     2    33    26    1
     3    26    27   ar
     4    27    28   ar
     5    28    20    1
     6    20    21   ar
     7    21    22   ar
     8    22    23   ar
     9    23    18    1
    10    18     1    1
    11     1     2    2
    12     1     3    2
    13     1     4    1
    14     4     5   ar
    15     5     6   ar
    16     6    10    1
    17    10    11    1
    18    10    12    1
    19    10    13    1
    20     6     7   ar
    21     7     8   ar
    22     8    14    1
    23    14    15    1
    24    14    16    1
    25    14    17    1
    26     8     9   ar
    27    23    24   ar
    28    24    25   ar
    29    28    29   ar
    30    29    30   ar
    31    30    31   ar
    32    31    26   ar
    33    25    20   ar
    34     9     4   ar
    35    18    19    1
@<TRIPOS>MOLECULE
*****
 33 35 0 0 0
SMALL
GASTEIGER

@<TRIPOS>ATOM
      1 S           5.7701   -3.1389   22.1184 S.O2    1  UNL1        0.0736
      2 O           4.7068   -4.1667   22.3694 O.2     1  UNL1       -0.1499
      3 O           6.8333   -2.1110   21.8673 O.2     1  UNL1       -0.1499
      4 C           4.7625   -2.2639   21.4334 C.ar    1  UNL1        0.1251
      5 C           3.7605   -1.4971   22.2444 C.ar    1  UNL1        0.0240
      6 C           2.7529   -0.6221   21.5594 C.ar    1  UNL1        0.0727
      7 C           2.7473   -0.5140   20.0634 C.ar    1  UNL1        0.0078
      8 C           3.7493   -1.2809   19.2523 C.ar    1  UNL1        0.0727
      9 C           4.7569   -2.1558   19.9373 C.ar    1  UNL1        0.0240
     10 C           1.7508    0.1448   22.3706 C.3     1  UNL1        0.4186
     11 F           0.7488    0.9116   23.1816 F       1  UNL1       -0.1659
     12 F           2.3421   -0.4150   23.6303 F       1  UNL1       -0.1659
     13 F           1.1596    0.7046   21.1108 F       1  UNL1       -0.1659
     14 C           3.7437   -1.1728   17.7562 C.3     1  UNL1        0.4186
     15 F           3.7382   -1.0648   16.2601 F       1  UNL1       -0.1659
     16 F           4.7506   -2.2815   17.6724 F       1  UNL1       -0.1659
     17 F           2.7369   -0.0641   17.8399 F       1  UNL1       -0.1659
     18 N           6.7776   -4.0138   22.8033 N.pl3   1  UNL1       -0.2150
     19 H           7.4345   -4.5181   22.2709 H       1  UNL1        0.1737
     20 C           6.7981   -4.3335   27.2919 C.ar    1  UNL1        0.0002
     21 C           6.4181   -3.0402   26.6339 C.ar    1  UNL1        0.0013
     22 C           6.4113   -2.9337   25.1377 C.ar    1  UNL1        0.0159
     23 C           6.7845   -4.1204   24.2995 C.ar    1  UNL1        0.0648
     24 C           7.1645   -5.4136   24.9576 C.ar    1  UNL1        0.0159
     25 C           7.1713   -5.5202   26.4538 C.ar    1  UNL1        0.0013
     26 C           6.4428   -3.3585   31.1225 C.ar    1  UNL1        0.0590
     27 C           6.4360   -3.2520   29.6263 C.ar    1  UNL1        0.0147
     28 C           6.8050   -4.4400   28.7882 C.ar    1  UNL1        0.0027
     29 C           7.1807   -5.7345   29.4462 C.ar    1  UNL1        0.0207
     30 C           7.1875   -5.8410   30.9424 C.ar    1  UNL1        0.0984
     31 N           6.8186   -4.6530   31.7805 N.ar    1  UNL1       -0.2482
     32 C           4.8334   -2.2032   32.8032 C.3     1  UNL1        0.0067
     33 C           6.0739   -2.1705   31.9606 C.3     1  UNL1        0.0458
@<TRIPOS>BOND
     1    32    33    1
     2    33    26    1
     3    26    27   ar
     4    27    28   ar
     5    28    20    1
     6    20    21   ar
     7    21    22   ar
     8    22    23   ar
     9    23    18    1
    10    18     1    1
    11     1     2    2
    12     1     3    2
    13     1     4    1
    14     4     5   ar
    15     5     6   ar
    16     6    10    1
    17    10    11    1
    18    10    12    1
    19    10    13    1
    20     6     7   ar
    21     7     8   ar
    22     8    14    1
    23    14    15    1
    24    14    16    1
    25    14    17    1
    26     8     9   ar
    27    23    24   ar
    28    24    25   ar
    29    28    29   ar
    30    29    30   ar
    31    30    31   ar
    32    31    26   ar
    33    25    20   ar
    34     9     4   ar
    35    18    19    1
@<TRIPOS>MOLECULE
*****
 33 35 0 0 0
SMALL
GASTEIGER

@<TRIPOS>ATOM
      1 S           4.5677   -0.8869   22.9954 S.O2    1  UNL1        0.0736
      2 O           3.2822   -1.3341   23.6259 O.2     1  UNL1       -0.1499
      3 O           5.8532   -0.4397   22.3650 O.2     1  UNL1       -0.1499
      4 C           4.0453   -1.2860   21.6471 C.ar    1  UNL1        0.1251
      5 C           3.1020   -0.3817   20.9106 C.ar    1  UNL1        0.0240
      6 C           2.5796   -0.7808   19.5623 C.ar    1  UNL1        0.0727
      7 C           3.0005   -2.0841   18.9506 C.ar    1  UNL1        0.0078
      8 C           3.9437   -2.9883   19.6872 C.ar    1  UNL1        0.0727
      9 C           4.4662   -2.5892   21.0354 C.ar    1  UNL1        0.0240
     10 C           1.6362    0.1235   18.8258 C.3     1  UNL1        0.4186
     11 F           0.6929    1.0277   18.0893 F       1  UNL1       -0.1659
     12 F           2.7170    0.4454   17.8367 F       1  UNL1       -0.1659
     13 F           0.5555   -0.1984   19.8148 F       1  UNL1       -0.1659
     14 C           4.3647   -4.2917   19.0754 C.3     1  UNL1        0.4186
     15 F           4.7856   -5.5950   18.4637 F       1  UNL1       -0.1659
     16 F           5.1863   -3.5509   18.0625 F       1  UNL1       -0.1659
     17 F           3.5431   -5.0325   20.0884 F       1  UNL1       -0.1659
     18 N           5.0901   -0.4878   24.3437 N.pl3   1  UNL1       -0.2150
     19 H           5.1271    0.4632   24.5955 H       1  UNL1        0.1737
     20 C           6.4880   -3.6375   27.2376 C.ar    1  UNL1        0.0002
     21 C           5.7540   -2.4298   27.7404 C.ar    1  UNL1        0.0013
     22 C           5.2880   -1.3799   26.7758 C.ar    1  UNL1        0.0159
     23 C           5.5561   -1.5377   25.3083 C.ar    1  UNL1        0.0648
     24 C           6.2901   -2.7454   24.8055 C.ar    1  UNL1        0.0159
     25 C           6.7560   -3.7953   25.7703 C.ar    1  UNL1        0.0013
     26 C           8.1400   -6.9527   28.6626 C.ar    1  UNL1        0.0590
     27 C           7.6740   -5.9028   27.6980 C.ar    1  UNL1        0.0147
     28 C           6.9540   -4.6875   28.2023 C.ar    1  UNL1        0.0027
     29 C           6.6999   -4.5220   29.6713 C.ar    1  UNL1        0.0207
     30 C           7.1659   -5.5719   30.6360 C.ar    1  UNL1        0.0984
     31 N           7.8859   -6.7872   30.1316 N.ar    1  UNL1       -0.2482
     32 C           9.0151   -8.3896   26.6828 C.3     1  UNL1        0.0067
     33 C           8.8601   -8.1681   28.1582 C.3     1  UNL1        0.0458
@<TRIPOS>BOND
     1    32    33    1
     2    33    26    1
     3    26    27   ar
     4    27    28   ar
     5    28    20    1
     6    20    21   ar
     7    21    22   ar
     8    22    23   ar
     9    23    18    1
    10    18     1    1
    11     1     2    2
    12     1     3    2
    13     1     4    1
    14     4     5   ar
    15     5     6   ar
    16     6    10    1
    17    10    11    1
    18    10    12    1
    19    10    13    1
    20     6     7   ar
    21     7     8   ar
    22     8    14    1
    23    14    15    1
    24    14    16    1
    25    14    17    1
    26     8     9   ar
    27    23    24   ar
    28    24    25   ar
    29    28    29   ar
    30    29    30   ar
    31    30    31   ar
    32    31    26   ar
    33    25    20   ar
    34     9     4   ar
    35    18    19    1
@<TRIPOS>MOLECULE
*****
 33 35 0 0 0
SMALL
GASTEIGER

@<TRIPOS>ATOM
      1 S           4.9141   -1.6421   23.2580 S.O2    1  UNL1        0.0736
      2 O           5.4534   -0.3458   22.7301 O.2     1  UNL1       -0.1499
      3 O           4.3749   -2.9385   23.7860 O.2     1  UNL1       -0.1499
      4 C           4.2676   -1.9132   21.9320 C.ar    1  UNL1        0.1251
      5 C           3.2252   -0.9750   21.4000 C.ar    1  UNL1        0.0240
      6 C           2.5787   -1.2461   20.0739 C.ar    1  UNL1        0.0727
      7 C           2.9746   -2.4554   19.2798 C.ar    1  UNL1        0.0078
      8 C           4.0170   -3.3937   19.8117 C.ar    1  UNL1        0.0727
      9 C           4.6635   -3.1226   21.1378 C.ar    1  UNL1        0.0240
     10 C           1.5362   -0.3078   19.5419 C.3     1  UNL1        0.4186
     11 F           0.4938    0.6305   19.0101 F       1  UNL1       -0.1659
     12 F           2.5331    0.2481   18.5688 F       1  UNL1       -0.1659
     13 F           0.5394   -0.8636   20.5151 F       1  UNL1       -0.1659
     14 C           4.4129   -4.6031   19.0176 C.3     1  UNL1        0.4186
     15 F           4.8089   -5.8125   18.2235 F       1  UNL1       -0.1659
     16 F           5.3607   -3.7642   18.2127 F       1  UNL1       -0.1659
     17 F           3.4652   -5.4420   19.8225 F       1  UNL1       -0.1659
     18 N           5.5607   -1.3710   24.5841 N.pl3   1  UNL1       -0.2150
     19 H           6.5258   -1.5256   24.7020 H       1  UNL1        0.1737
     20 C           3.0889    0.1489   28.0236 C.ar    1  UNL1        0.0002
     21 C           4.1966   -0.8316   28.2717 C.ar    1  UNL1        0.0013
     22 C           5.0205   -1.3383   27.1253 C.ar    1  UNL1        0.0159
     23 C           4.7367   -0.8644   25.7306 C.ar    1  UNL1        0.0648
     24 C           3.6290    0.1161   25.4825 C.ar    1  UNL1        0.0159
     25 C           2.8051    0.6228   26.6291 C.ar    1  UNL1        0.0013
     26 C           2.0616    1.3226   31.6729 C.ar    1  UNL1        0.0590
     27 C           2.8855    0.8160   30.5264 C.ar    1  UNL1        0.0147
     28 C           2.2650    0.6555   29.1702 C.ar    1  UNL1        0.0027
     29 C           0.8206    1.0016   28.9606 C.ar    1  UNL1        0.0207
     30 C          -0.0032    1.5082   30.1071 C.ar    1  UNL1        0.0984
     31 N           0.6173    1.6687   31.4633 N.ar    1  UNL1       -0.2482
     32 C           2.1486    2.5123   33.9810 C.3     1  UNL1        0.0067
     33 C           2.6821    1.4831   33.0291 C.3     1  UNL1        0.0458
@<TRIPOS>BOND
     1    32    33    1
     2    33    26    1
     3    26    27   ar
     4    27    28   ar
     5    28    20    1
     6    20    21   ar
     7    21    22   ar
     8    22    23   ar
     9    23    18    1
    10    18     1    1
    11     1     2    2
    12     1     3    2
    13     1     4    1
    14     4     5   ar
    15     5     6   ar
    16     6    10    1
    17    10    11    1
    18    10    12    1
    19    10    13    1
    20     6     7   ar
    21     7     8   ar
    22     8    14    1
    23    14    15    1
    24    14    16    1
    25    14    17    1
    26     8     9   ar
    27    23    24   ar
    28    24    25   ar
    29    28    29   ar
    30    29    30   ar
    31    30    31   ar
    32    31    26   ar
    33    25    20   ar
    34     9     4   ar
    35    18    19    1
