@<TRIPOS>MOLECULE
*****
 30 34 0 0 0
SMALL
GASTEIGER

@<TRIPOS>ATOM
      1 C           6.4407   -3.9118   24.3409 C.ar    1  UNL1        0.1383
      2 C           5.9334   -2.5076   24.4857 C.ar    1  UNL1        0.0400
      3 C           5.7710   -1.9059   25.8501 C.ar    1  UNL1        0.0397
      4 C           6.1159   -2.7083   27.0696 C.ar    1  UNL1        0.1344
      5 C           6.6231   -4.1125   26.9248 C.ar    1  UNL1        0.0149
      6 C           6.7855   -4.7142   25.5603 C.ar    1  UNL1        0.0356
      7 C           6.9680   -4.9149   28.1442 C.3     1  UNL1        0.0331
      8 C           6.8056   -4.3131   29.5087 C.3     1  UNL1        0.0449
      9 C           6.2984   -2.9090   29.6535 C.3     1  UNL1        0.1361
     10 C           6.6433   -3.7114   30.8730 C.3     1  UNL1        0.0574
     11 C           6.4809   -3.1096   32.2373 C.3     1  UNL1        0.0756
     12 N           5.9736   -1.7054   32.3822 N.3     1  UNL1       -0.2737
     13 C           5.6287   -0.9030   31.1627 C.3     1  UNL1        0.0756
     14 C           5.7911   -1.5048   29.7984 C.3     1  UNL1        0.0574
     15 O           5.9535   -2.1065   28.4340 O.3     1  UNL1       -0.4828
     16 C           5.8112   -1.1037   33.7466 C.3     1  UNL1        0.0575
     17 C           6.7036   -0.3469   34.6852 C.3     1  UNL1        0.0160
     18 C           5.5815   -0.2528   35.6762 C.3     1  UNL1        0.0028
     19 C           4.6891   -1.0095   34.7376 C.3     1  UNL1        0.0160
     20 O           6.6030   -4.5136   22.9765 O.3     1  UNL1       -0.4791
     21 N           4.9877   -2.3696   19.3649 N.3     1  UNL1       -0.1591
     22 C           6.4534   -2.3117   19.6781 C.3     1  UNL1        0.0991
     23 C           6.9919   -3.0263   20.8820 C.3     1  UNL1        0.0627
     24 C           6.0645   -3.7989   21.7726 C.3     1  UNL1        0.1688
     25 C           4.5988   -3.8568   21.4594 C.3     1  UNL1        0.0627
     26 C           4.0604   -3.1421   20.2555 C.3     1  UNL1        0.0991
     27 C           3.9108   -0.9403   16.9571 C.3     1  UNL1        0.1960
     28 S           4.4492   -1.6549   18.1610 S.O2    1  UNL1        0.0457
     29 O           3.2707   -1.1900   18.9640 O.2     1  UNL1       -0.1572
     30 O           5.6277   -2.1198   17.3579 O.2     1  UNL1       -0.1572
@<TRIPOS>BOND
     1    27    28    1
     2    28    29    2
     3    28    30    2
     4    28    21    1
     5    21    22    1
     6    22    23    1
     7    23    24    1
     8    24    20    1
     9    20     1    1
    10     1     2   ar
    11     2     3   ar
    12     3     4   ar
    13     4     5   ar
    14     5     6   ar
    15     5     7    1
    16     7     8    1
    17     8     9    1
    18     9    10    1
    19    10    11    1
    20    11    12    1
    21    12    16    1
    22    16    17    1
    23    17    18    1
    24    18    19    1
    25    12    13    1
    26    13    14    1
    27     9    15    1
    28    24    25    1
    29    25    26    1
    30    26    21    1
    31     6     1   ar
    32    14     9    1
    33    15     4    1
    34    19    16    1
@<TRIPOS>MOLECULE
*****
 30 34 0 0 0
SMALL
GASTEIGER

@<TRIPOS>ATOM
      1 C           6.1219    0.6483   33.8423 C.ar    1  UNL1        0.1383
      2 C           4.9998    0.2503   32.9300 C.ar    1  UNL1        0.0400
      3 C           5.1573   -0.9303   32.0183 C.ar    1  UNL1        0.0397
      4 C           6.4370   -1.7130   32.0189 C.ar    1  UNL1        0.1344
      5 C           7.5591   -1.3150   32.9313 C.ar    1  UNL1        0.0149
      6 C           7.4015   -0.1343   33.8430 C.ar    1  UNL1        0.0356
      7 C           8.8387   -2.0976   32.9319 C.3     1  UNL1        0.0331
      8 C           8.9963   -3.2783   32.0202 C.3     1  UNL1        0.0449
      9 C           7.8742   -3.6763   31.1078 C.3     1  UNL1        0.1361
     10 C           9.1538   -4.4589   31.1085 C.3     1  UNL1        0.0574
     11 C           9.3113   -5.6395   30.1968 C.3     1  UNL1        0.0756
     12 N           8.1892   -6.0376   29.2844 N.3     1  UNL1       -0.2737
     13 C           6.9096   -5.2550   29.2838 C.3     1  UNL1        0.0756
     14 C           6.7521   -4.0743   30.1955 C.3     1  UNL1        0.0574
     15 O           6.5945   -2.8936   31.1072 O.3     1  UNL1       -0.4828
     16 C           8.3467   -7.2183   28.3727 C.3     1  UNL1        0.0575
     17 C           9.2203   -8.4375   28.3575 C.3     1  UNL1        0.0160
     18 C           8.5695   -8.8880   27.0833 C.3     1  UNL1        0.0028
     19 C           7.6959   -7.6687   27.0985 C.3     1  UNL1        0.0160
     20 O           5.9644    1.8290   34.7540 O.3     1  UNL1       -0.4791
     21 N           2.7151    1.8500   37.8672 N.3     1  UNL1       -0.1591
     22 C           3.8445    0.8681   37.9685 C.3     1  UNL1        0.0991
     23 C           4.9276    0.8611   36.9308 C.3     1  UNL1        0.0627
     24 C           4.8813    1.8360   35.7918 C.3     1  UNL1        0.1688
     25 C           3.7519    2.8179   35.6904 C.3     1  UNL1        0.0627
     26 C           2.6688    2.8250   36.7281 C.3     1  UNL1        0.0991
     27 C           0.5489    1.8642   39.9426 C.3     1  UNL1        0.1960
     28 S           1.6320    1.8571   38.9049 S.O2    1  UNL1        0.0457
     29 O           2.3196    0.7386   39.6302 O.2     1  UNL1       -0.1572
     30 O           0.9444    2.9756   38.1796 O.2     1  UNL1       -0.1572
@<TRIPOS>BOND
     1    27    28    1
     2    28    29    2
     3    28    30    2
     4    28    21    1
     5    21    22    1
     6    22    23    1
     7    23    24    1
     8    24    20    1
     9    20     1    1
    10     1     2   ar
    11     2     3   ar
    12     3     4   ar
    13     4     5   ar
    14     5     6   ar
    15     5     7    1
    16     7     8    1
    17     8     9    1
    18     9    10    1
    19    10    11    1
    20    11    12    1
    21    12    16    1
    22    16    17    1
    23    17    18    1
    24    18    19    1
    25    12    13    1
    26    13    14    1
    27     9    15    1
    28    24    25    1
    29    25    26    1
    30    26    21    1
    31     6     1   ar
    32    14     9    1
    33    15     4    1
    34    19    16    1
@<TRIPOS>MOLECULE
*****
 30 34 0 0 0
SMALL
GASTEIGER

@<TRIPOS>ATOM
      1 C           6.8570    1.3160   33.5315 C.ar    1  UNL1        0.1383
      2 C           7.4261    1.7278   32.2062 C.ar    1  UNL1        0.0400
      3 C           7.6190    0.7080   31.1233 C.ar    1  UNL1        0.0397
      4 C           7.2428   -0.7238   31.3658 C.ar    1  UNL1        0.1344
      5 C           6.6737   -1.1355   32.6911 C.ar    1  UNL1        0.0149
      6 C           6.4809   -0.1156   33.7740 C.ar    1  UNL1        0.0356
      7 C           6.2976   -2.5672   32.9336 C.3     1  UNL1        0.0331
      8 C           6.4904   -3.5871   31.8507 C.3     1  UNL1        0.0449
      9 C           7.0595   -3.1753   30.5254 C.3     1  UNL1        0.1361
     10 C           6.6833   -4.6070   30.7679 C.3     1  UNL1        0.0574
     11 C           6.8762   -5.6268   29.6850 C.3     1  UNL1        0.0756
     12 N           7.4453   -5.2150   28.3596 N.3     1  UNL1       -0.2737
     13 C           7.8215   -3.7834   28.1171 C.3     1  UNL1        0.0756
     14 C           7.6286   -2.7636   29.2000 C.3     1  UNL1        0.0574
     15 O           7.4357   -1.7436   30.2829 O.3     1  UNL1       -0.4828
     16 C           7.6382   -6.2350   27.2767 C.3     1  UNL1        0.0575
     17 C           7.4685   -6.2448   25.7864 C.3     1  UNL1        0.0160
     18 C           7.9110   -7.6774   25.7454 C.3     1  UNL1        0.0028
     19 C           8.0808   -7.6676   27.2357 C.3     1  UNL1        0.0160
     20 O           6.6641    2.3359   34.6144 O.3     1  UNL1       -0.4791
     21 N           3.2979    1.8754   37.5651 N.3     1  UNL1       -0.1591
     22 C           3.0151    2.3617   36.1746 C.3     1  UNL1        0.0991
     23 C           4.1372    2.5152   35.1911 C.3     1  UNL1        0.0627
     24 C           5.5421    2.1824   35.5980 C.3     1  UNL1        0.1688
     25 C           5.8249    1.6961   36.9885 C.3     1  UNL1        0.0627
     26 C           4.7028    1.5426   37.9720 C.3     1  UNL1        0.0991
     27 C           1.0539    1.5684   39.5323 C.3     1  UNL1        0.1960
     28 S           2.1759    1.7219   38.5487 S.O2    1  UNL1        0.0457
     29 O           1.3304    2.6514   37.7294 O.2     1  UNL1       -0.1572
     30 O           3.0213    0.7925   39.3680 O.2     1  UNL1       -0.1572
@<TRIPOS>BOND
     1    27    28    1
     2    28    29    2
     3    28    30    2
     4    28    21    1
     5    21    22    1
     6    22    23    1
     7    23    24    1
     8    24    20    1
     9    20     1    1
    10     1     2   ar
    11     2     3   ar
    12     3     4   ar
    13     4     5   ar
    14     5     6   ar
    15     5     7    1
    16     7     8    1
    17     8     9    1
    18     9    10    1
    19    10    11    1
    20    11    12    1
    21    12    16    1
    22    16    17    1
    23    17    18    1
    24    18    19    1
    25    12    13    1
    26    13    14    1
    27     9    15    1
    28    24    25    1
    29    25    26    1
    30    26    21    1
    31     6     1   ar
    32    14     9    1
    33    15     4    1
    34    19    16    1
@<TRIPOS>MOLECULE
*****
 30 34 0 0 0
SMALL
GASTEIGER

@<TRIPOS>ATOM
      1 C          -1.4057    3.1388   21.0383 C.ar    1  UNL1        0.1383
      2 C          -0.9437    3.2123   22.4635 C.ar    1  UNL1        0.0400
      3 C           0.1400    2.2958   22.9488 C.ar    1  UNL1        0.0397
      4 C           0.7618    1.3058   22.0089 C.ar    1  UNL1        0.1344
      5 C           0.2998    1.2323   20.5837 C.ar    1  UNL1        0.0149
      6 C          -0.7840    2.1488   20.0984 C.ar    1  UNL1        0.0356
      7 C           0.9214    0.2423   19.6438 C.3     1  UNL1        0.0331
      8 C           2.0052   -0.6743   20.1291 C.3     1  UNL1        0.0449
      9 C           2.4673   -0.6007   21.5543 C.3     1  UNL1        0.1361
     10 C           3.0889   -1.5907   20.6144 C.3     1  UNL1        0.0574
     11 C           4.1727   -2.5072   21.0997 C.3     1  UNL1        0.0756
     12 N           4.6347   -2.4337   22.5249 N.3     1  UNL1       -0.2737
     13 C           4.0130   -1.4437   23.4648 C.3     1  UNL1        0.0756
     14 C           2.9293   -0.5272   22.9795 C.3     1  UNL1        0.0574
     15 O           1.8455    0.3893   22.4942 O.3     1  UNL1       -0.4828
     16 C           5.7185   -3.3502   23.0102 C.3     1  UNL1        0.0575
     17 C           6.1604   -3.8529   24.3526 C.3     1  UNL1        0.0160
     18 C           7.2512   -4.6464   23.6964 C.3     1  UNL1        0.0028
     19 C           6.8093   -4.1437   22.3540 C.3     1  UNL1        0.0160
     20 O          -2.4894    4.0553   20.5530 O.3     1  UNL1       -0.4791
     21 N          -6.0024    4.9886   23.2059 N.3     1  UNL1       -0.1591
     22 C          -5.7791    3.5862   22.7228 C.3     1  UNL1        0.0991
     23 C          -4.6081    3.2751   21.8385 C.3     1  UNL1        0.0627
     24 C          -3.6605    4.3664   21.4373 C.3     1  UNL1        0.1688
     25 C          -3.8837    5.7688   21.9204 C.3     1  UNL1        0.0627
     26 C          -5.0547    6.0799   22.8047 C.3     1  UNL1        0.0991
     27 C          -8.3443    5.6109   24.9746 C.3     1  UNL1        0.1960
     28 S          -7.1734    5.2997   24.0903 S.O2    1  UNL1        0.0457
     29 O          -8.0874    4.6064   23.1240 O.2     1  UNL1       -0.1572
     30 O          -6.2594    5.9930   25.0566 O.2     1  UNL1       -0.1572
@<TRIPOS>BOND
     1    27    28    1
     2    28    29    2
     3    28    30    2
     4    28    21    1
     5    21    22    1
     6    22    23    1
     7    23    24    1
     8    24    20    1
     9    20     1    1
    10     1     2   ar
    11     2     3   ar
    12     3     4   ar
    13     4     5   ar
    14     5     6   ar
    15     5     7    1
    16     7     8    1
    17     8     9    1
    18     9    10    1
    19    10    11    1
    20    11    12    1
    21    12    16    1
    22    16    17    1
    23    17    18    1
    24    18    19    1
    25    12    13    1
    26    13    14    1
    27     9    15    1
    28    24    25    1
    29    25    26    1
    30    26    21    1
    31     6     1   ar
    32    14     9    1
    33    15     4    1
    34    19    16    1
@<TRIPOS>MOLECULE
*****
 30 34 0 0 0
SMALL
GASTEIGER

@<TRIPOS>ATOM
      1 C           6.5606   -2.9524   29.8149 C.ar    1  UNL1        0.1383
      2 C           5.7493   -1.7306   29.5000 C.ar    1  UNL1        0.0400
      3 C           5.3498   -1.4401   28.0837 C.ar    1  UNL1        0.0397
      4 C           5.7615   -2.3713   26.9822 C.ar    1  UNL1        0.1344
      5 C           6.5727   -3.5931   27.2970 C.ar    1  UNL1        0.0149
      6 C           6.9722   -3.8837   28.7134 C.ar    1  UNL1        0.0356
      7 C           6.9844   -4.5244   26.1956 C.3     1  UNL1        0.0331
      8 C           6.5849   -4.2339   24.7792 C.3     1  UNL1        0.0449
      9 C           5.7737   -3.0121   24.4644 C.3     1  UNL1        0.1361
     10 C           6.1853   -3.9433   23.3629 C.3     1  UNL1        0.0574
     11 C           5.7858   -3.6528   21.9467 C.3     1  UNL1        0.0756
     12 N           4.9746   -2.4310   21.6318 N.3     1  UNL1       -0.2737
     13 C           4.5629   -1.4997   22.7333 C.3     1  UNL1        0.0756
     14 C           4.9624   -1.7903   24.1495 C.3     1  UNL1        0.0574
     15 O           5.3620   -2.0808   25.5659 O.3     1  UNL1       -0.4828
     16 C           4.5751   -2.1405   20.2154 C.3     1  UNL1        0.0575
     17 C           3.4476   -1.3970   19.5626 C.3     1  UNL1        0.0160
     18 C           4.0101   -1.7297   18.2124 C.3     1  UNL1        0.0028
     19 C           5.1376   -2.4731   18.8653 C.3     1  UNL1        0.0160
     20 O           6.9601   -3.2430   31.2312 O.3     1  UNL1       -0.4791
     21 N           5.3403   -0.7218   34.5883 N.3     1  UNL1       -0.1591
     22 C           4.4871   -1.7925   33.9754 C.3     1  UNL1        0.0991
     23 C           5.0270   -2.6329   32.8564 C.3     1  UNL1        0.0627
     24 C           6.4202   -2.4025   32.3502 C.3     1  UNL1        0.1688
     25 C           7.2733   -1.3319   32.9631 C.3     1  UNL1        0.0627
     26 C           6.7334   -0.4915   34.0821 C.3     1  UNL1        0.0991
     27 C           4.2604    0.9590   36.8263 C.3     1  UNL1        0.1960
     28 S           4.8003    0.1186   35.7073 S.O2    1  UNL1        0.0457
     29 O           5.7351   -0.5574   36.6661 O.2     1  UNL1       -0.1572
     30 O           3.8656    0.7946   34.7486 O.2     1  UNL1       -0.1572
@<TRIPOS>BOND
     1    27    28    1
     2    28    29    2
     3    28    30    2
     4    28    21    1
     5    21    22    1
     6    22    23    1
     7    23    24    1
     8    24    20    1
     9    20     1    1
    10     1     2   ar
    11     2     3   ar
    12     3     4   ar
    13     4     5   ar
    14     5     6   ar
    15     5     7    1
    16     7     8    1
    17     8     9    1
    18     9    10    1
    19    10    11    1
    20    11    12    1
    21    12    16    1
    22    16    17    1
    23    17    18    1
    24    18    19    1
    25    12    13    1
    26    13    14    1
    27     9    15    1
    28    24    25    1
    29    25    26    1
    30    26    21    1
    31     6     1   ar
    32    14     9    1
    33    15     4    1
    34    19    16    1
@<TRIPOS>MOLECULE
*****
 30 34 0 0 0
SMALL
GASTEIGER

@<TRIPOS>ATOM
      1 C          -0.0898    3.0301   18.9113 C.ar    1  UNL1        0.1383
      2 C           1.1861    3.6688   18.4485 C.ar    1  UNL1        0.0400
      3 C           2.4811    2.9194   18.5537 C.ar    1  UNL1        0.0397
      4 C           2.5004    1.5312   19.1218 C.ar    1  UNL1        0.1344
      5 C           1.2245    0.8925   19.5846 C.ar    1  UNL1        0.0149
      6 C          -0.0706    1.6420   19.4793 C.ar    1  UNL1        0.0356
      7 C           1.2436   -0.4956   20.1526 C.3     1  UNL1        0.0331
      8 C           2.5387   -1.2452   20.2579 C.3     1  UNL1        0.0449
      9 C           3.8146   -0.6065   19.7951 C.3     1  UNL1        0.1361
     10 C           3.8338   -1.9946   20.3631 C.3     1  UNL1        0.0574
     11 C           5.1288   -2.7440   20.4683 C.3     1  UNL1        0.0756
     12 N           6.4047   -2.1054   20.0055 N.3     1  UNL1       -0.2737
     13 C           6.3856   -0.7173   19.4375 C.3     1  UNL1        0.0756
     14 C           5.0905    0.0322   19.3323 C.3     1  UNL1        0.0574
     15 O           3.7954    0.7817   19.2270 O.3     1  UNL1       -0.4828
     16 C           7.6998   -2.8549   20.1108 C.3     1  UNL1        0.0575
     17 C           8.1381   -4.1276   20.7728 C.3     1  UNL1        0.0160
     18 C           9.5314   -3.9148   20.2595 C.3     1  UNL1        0.0028
     19 C           9.0931   -2.6421   19.5975 C.3     1  UNL1        0.0160
     20 O          -1.3849    3.7796   18.8061 O.3     1  UNL1       -0.4791
     21 N          -4.1108    4.0735   22.3744 N.3     1  UNL1       -0.1591
     22 C          -4.6443    3.5820   21.0615 C.3     1  UNL1        0.0991
     23 C          -3.7357    3.4841   19.8721 C.3     1  UNL1        0.0627
     24 C          -2.2935    3.8776   19.9956 C.3     1  UNL1        0.1688
     25 C          -1.7600    4.3690   21.3085 C.3     1  UNL1        0.0627
     26 C          -2.6686    4.4670   22.4979 C.3     1  UNL1        0.0991
     27 C          -5.9281    4.2695   24.7533 C.3     1  UNL1        0.1960
     28 S          -5.0194    4.1715   23.5639 S.O2    1  UNL1        0.0457
     29 O          -3.8557    4.5757   24.4196 O.2     1  UNL1       -0.1572
     30 O          -6.1832    3.7673   22.7082 O.2     1  UNL1       -0.1572
@<TRIPOS>BOND
     1    27    28    1
     2    28    29    2
     3    28    30    2
     4    28    21    1
     5    21    22    1
     6    22    23    1
     7    23    24    1
     8    24    20    1
     9    20     1    1
    10     1     2   ar
    11     2     3   ar
    12     3     4   ar
    13     4     5   ar
    14     5     6   ar
    15     5     7    1
    16     7     8    1
    17     8     9    1
    18     9    10    1
    19    10    11    1
    20    11    12    1
    21    12    16    1
    22    16    17    1
    23    17    18    1
    24    18    19    1
    25    12    13    1
    26    13    14    1
    27     9    15    1
    28    24    25    1
    29    25    26    1
    30    26    21    1
    31     6     1   ar
    32    14     9    1
    33    15     4    1
    34    19    16    1
@<TRIPOS>MOLECULE
*****
 30 34 0 0 0
SMALL
GASTEIGER

@<TRIPOS>ATOM
      1 C           1.8306    1.3666   23.9185 C.ar    1  UNL1        0.1383
      2 C           1.2181    1.8624   22.6422 C.ar    1  UNL1        0.0400
      3 C          -0.1073    2.5643   22.6694 C.ar    1  UNL1        0.0397
      4 C          -0.8202    2.7704   23.9731 C.ar    1  UNL1        0.1344
      5 C          -0.2076    2.2746   25.2494 C.ar    1  UNL1        0.0149
      6 C           1.1178    1.5727   25.2221 C.ar    1  UNL1        0.0356
      7 C          -0.9204    2.4807   26.5530 C.3     1  UNL1        0.0331
      8 C          -2.2458    3.1827   26.5803 C.3     1  UNL1        0.0449
      9 C          -2.8584    3.6785   25.3040 C.3     1  UNL1        0.1361
     10 C          -3.5712    3.8846   26.6076 C.3     1  UNL1        0.0574
     11 C          -4.8965    4.5865   26.6349 C.3     1  UNL1        0.0756
     12 N          -5.5090    5.0823   25.3585 N.3     1  UNL1       -0.2737
     13 C          -4.7962    4.8762   24.0550 C.3     1  UNL1        0.0756
     14 C          -3.4709    4.1743   24.0277 C.3     1  UNL1        0.0574
     15 O          -2.1455    3.4723   24.0004 O.3     1  UNL1       -0.4828
     16 C          -6.8344    5.7842   25.3859 C.3     1  UNL1        0.0575
     17 C          -7.8917    6.0942   24.3680 C.3     1  UNL1        0.0160
     18 C          -8.7088    6.7768   25.4246 C.3     1  UNL1        0.0028
     19 C          -7.6515    6.4668   26.4425 C.3     1  UNL1        0.0160
     20 O           3.1559    0.6647   23.8912 O.3     1  UNL1       -0.4791
     21 N           3.8767   -2.6684   20.9552 N.3     1  UNL1       -0.1591
     22 C           3.1958   -1.4090   20.5077 C.3     1  UNL1        0.0991
     23 C           2.9556   -0.2980   21.4864 C.3     1  UNL1        0.0627
     24 C           3.3962   -0.4464   22.9125 C.3     1  UNL1        0.1688
     25 C           4.0771   -1.7058   23.3600 C.3     1  UNL1        0.0627
     26 C           4.3173   -2.8168   22.3813 C.3     1  UNL1        0.0991
     27 C           4.3573   -4.8906   18.9978 C.3     1  UNL1        0.1960
     28 S           4.1170   -3.7795   19.9764 S.O2    1  UNL1        0.0457
     29 O           3.6536   -2.8943   18.8577 O.2     1  UNL1       -0.1572
     30 O           4.5804   -4.6647   21.0952 O.2     1  UNL1       -0.1572
@<TRIPOS>BOND
     1    27    28    1
     2    28    29    2
     3    28    30    2
     4    28    21    1
     5    21    22    1
     6    22    23    1
     7    23    24    1
     8    24    20    1
     9    20     1    1
    10     1     2   ar
    11     2     3   ar
    12     3     4   ar
    13     4     5   ar
    14     5     6   ar
    15     5     7    1
    16     7     8    1
    17     8     9    1
    18     9    10    1
    19    10    11    1
    20    11    12    1
    21    12    16    1
    22    16    17    1
    23    17    18    1
    24    18    19    1
    25    12    13    1
    26    13    14    1
    27     9    15    1
    28    24    25    1
    29    25    26    1
    30    26    21    1
    31     6     1   ar
    32    14     9    1
    33    15     4    1
    34    19    16    1
@<TRIPOS>MOLECULE
*****
 30 34 0 0 0
SMALL
GASTEIGER

@<TRIPOS>ATOM
      1 C           2.4419    0.0001   19.2605 C.ar    1  UNL1        0.1383
      2 C           1.4464    0.9331   18.6371 C.ar    1  UNL1        0.0400
      3 C           0.5210    1.7321   19.5061 C.ar    1  UNL1        0.0397
      4 C           0.5909    1.5981   20.9985 C.ar    1  UNL1        0.1344
      5 C           1.5864    0.6651   21.6219 C.ar    1  UNL1        0.0149
      6 C           2.5119   -0.1339   20.7528 C.ar    1  UNL1        0.0356
      7 C           1.6564    0.5311   23.1142 C.3     1  UNL1        0.0331
      8 C           0.7309    1.3301   23.9832 C.3     1  UNL1        0.0449
      9 C          -0.2646    2.2631   23.3599 C.3     1  UNL1        0.1361
     10 C          -0.1946    2.1291   24.8522 C.3     1  UNL1        0.0574
     11 C          -1.1200    2.9281   25.7211 C.3     1  UNL1        0.0756
     12 N          -2.1155    3.8611   25.0978 N.3     1  UNL1       -0.2737
     13 C          -2.1855    3.9951   23.6054 C.3     1  UNL1        0.0756
     14 C          -1.2600    3.1961   22.7365 C.3     1  UNL1        0.0574
     15 O          -0.3345    2.3971   21.8674 O.3     1  UNL1       -0.4828
     16 C          -3.0410    4.6601   25.9668 C.3     1  UNL1        0.0575
     17 C          -3.1866    6.1140   26.3059 C.3     1  UNL1        0.0160
     18 C          -4.3498    5.7899   27.1958 C.3     1  UNL1        0.0028
     19 C          -4.2042    4.3360   26.8567 C.3     1  UNL1        0.0160
     20 O           3.3673   -0.7988   18.3916 O.3     1  UNL1       -0.4791
     21 N           6.6619   -3.2330   20.2545 N.3     1  UNL1       -0.1591
     22 C           5.3611   -3.8854   19.8908 C.3     1  UNL1        0.0991
     23 C           4.2630   -3.0740   19.2698 C.3     1  UNL1        0.0627
     24 C           4.4656   -1.6102   19.0126 C.3     1  UNL1        0.1688
     25 C           5.7663   -0.9578   19.3763 C.3     1  UNL1        0.0627
     26 C           6.8645   -1.7692   19.9973 C.3     1  UNL1        0.0991
     27 C           8.8583   -4.8558   21.4966 C.3     1  UNL1        0.1960
     28 S           7.7601   -4.0444   20.8756 S.O2    1  UNL1        0.0457
     29 O           8.7502   -3.4248   19.9344 O.2     1  UNL1       -0.1572
     30 O           6.7701   -4.6640   21.8167 O.2     1  UNL1       -0.1572
@<TRIPOS>BOND
     1    27    28    1
     2    28    29    2
     3    28    30    2
     4    28    21    1
     5    21    22    1
     6    22    23    1
     7    23    24    1
     8    24    20    1
     9    20     1    1
    10     1     2   ar
    11     2     3   ar
    12     3     4   ar
    13     4     5   ar
    14     5     6   ar
    15     5     7    1
    16     7     8    1
    17     8     9    1
    18     9    10    1
    19    10    11    1
    20    11    12    1
    21    12    16    1
    22    16    17    1
    23    17    18    1
    24    18    19    1
    25    12    13    1
    26    13    14    1
    27     9    15    1
    28    24    25    1
    29    25    26    1
    30    26    21    1
    31     6     1   ar
    32    14     9    1
    33    15     4    1
    34    19    16    1
@<TRIPOS>MOLECULE
*****
 30 34 0 0 0
SMALL
GASTEIGER

@<TRIPOS>ATOM
      1 C           1.3138    2.6957   19.1662 C.ar    1  UNL1        0.1383
      2 C           0.1649    3.0003   18.2513 C.ar    1  UNL1        0.0400
      3 C          -1.1667    3.3877   18.8228 C.ar    1  UNL1        0.0397
      4 C          -1.3495    3.4705   20.3094 C.ar    1  UNL1        0.1344
      5 C          -0.2005    3.1659   21.2243 C.ar    1  UNL1        0.0149
      6 C           1.1311    2.7785   20.6527 C.ar    1  UNL1        0.0356
      7 C          -0.3832    3.2487   22.7108 C.3     1  UNL1        0.0331
      8 C          -1.7149    3.6361   23.2824 C.3     1  UNL1        0.0449
      9 C          -2.8638    3.9407   22.3675 C.3     1  UNL1        0.1361
     10 C          -3.0465    4.0235   23.8540 C.3     1  UNL1        0.0574
     11 C          -4.3781    4.4108   24.4255 C.3     1  UNL1        0.0756
     12 N          -5.5271    4.7154   23.5105 N.3     1  UNL1       -0.2737
     13 C          -5.3444    4.6327   22.0240 C.3     1  UNL1        0.0756
     14 C          -4.0128    4.2453   21.4525 C.3     1  UNL1        0.0574
     15 O          -2.6811    3.8579   20.8809 O.3     1  UNL1       -0.4828
     16 C          -6.8587    5.1028   24.0821 C.3     1  UNL1        0.0575
     17 C          -7.3252    6.0923   25.1085 C.3     1  UNL1        0.0160
     18 C          -8.7420    5.6506   24.8904 C.3     1  UNL1        0.0028
     19 C          -8.2756    4.6612   23.8640 C.3     1  UNL1        0.0160
     20 O           2.6454    2.3084   18.5947 O.3     1  UNL1       -0.4791
     21 N           3.9645   -1.9931   18.6786 N.3     1  UNL1       -0.1591
     22 C           2.8006   -1.5492   19.5142 C.3     1  UNL1        0.0991
     23 C           2.3610   -0.1154   19.4862 C.3     1  UNL1        0.0627
     24 C           3.0852    0.8745   18.6227 C.3     1  UNL1        0.1688
     25 C           4.2490    0.4305   17.7871 C.3     1  UNL1        0.0627
     26 C           4.6887   -1.0033   17.8150 C.3     1  UNL1        0.0991
     27 C           4.8440   -4.8608   18.7345 C.3     1  UNL1        0.1960
     28 S           4.4042   -3.4270   18.7066 S.O2    1  UNL1        0.0457
     29 O           3.1760   -3.7885   19.4881 O.2     1  UNL1       -0.1572
     30 O           5.6324   -3.0656   17.9250 O.2     1  UNL1       -0.1572
@<TRIPOS>BOND
     1    27    28    1
     2    28    29    2
     3    28    30    2
     4    28    21    1
     5    21    22    1
     6    22    23    1
     7    23    24    1
     8    24    20    1
     9    20     1    1
    10     1     2   ar
    11     2     3   ar
    12     3     4   ar
    13     4     5   ar
    14     5     6   ar
    15     5     7    1
    16     7     8    1
    17     8     9    1
    18     9    10    1
    19    10    11    1
    20    11    12    1
    21    12    16    1
    22    16    17    1
    23    17    18    1
    24    18    19    1
    25    12    13    1
    26    13    14    1
    27     9    15    1
    28    24    25    1
    29    25    26    1
    30    26    21    1
    31     6     1   ar
    32    14     9    1
    33    15     4    1
    34    19    16    1
