@<TRIPOS>MOLECULE
*****
 26 28 0 0 0
SMALL
GASTEIGER

@<TRIPOS>ATOM
      1 C          -9.0592  -18.2219   22.2907 C.ar    1  UNL1        0.0002
      2 C          -7.9247  -17.2431   22.3599 C.ar    1  UNL1        0.0013
      3 C          -6.5102  -17.7378   22.4259 C.ar    1  UNL1        0.0159
      4 C          -6.2301  -19.2114   22.4226 C.ar    1  UNL1        0.0648
      5 C          -7.3646  -20.1903   22.3534 C.ar    1  UNL1        0.0159
      6 C          -8.7791  -19.6955   22.2874 C.ar    1  UNL1        0.0013
      7 C         -13.8689  -18.0688   24.2511 C.3     1  UNL1        0.0521
      8 C         -12.8786  -17.6506   23.2049 C.ar    1  UNL1        0.0594
      9 C         -11.4641  -18.1453   23.2709 C.ar    1  UNL1        0.0147
     10 C         -10.4738  -17.7272   22.2247 C.ar    1  UNL1        0.0027
     11 C         -10.8979  -16.8143   21.1127 C.ar    1  UNL1        0.0207
     12 C         -12.3124  -16.3195   21.0468 C.ar    1  UNL1        0.0984
     13 N         -13.3027  -16.7377   22.0929 N.ar    1  UNL1       -0.2481
     14 N          -4.8156  -19.7061   22.4886 N.pl3   1  UNL1       -0.2150
     15 H          -4.5678  -20.4036   23.1377 H       1  UNL1        0.1737
     16 S          -3.7786  -19.1382   21.5655 S.O2    1  UNL1        0.0736
     17 O          -3.1059  -18.4738   22.7300 O.2     1  UNL1       -0.1499
     18 O          -4.4513  -19.8026   20.4010 O.2     1  UNL1       -0.1499
     19 C          -2.7416  -18.5703   20.6424 C.ar    1  UNL1        0.1268
     20 C          -3.1300  -18.1167   19.2664 C.ar    1  UNL1        0.0316
     21 C          -2.0930  -17.5487   18.3434 C.ar    1  UNL1        0.0599
     22 CL         -2.4814  -17.0951   16.9673 Cl      1  UNL1       -0.0822
     23 C          -0.6676  -17.4344   18.7963 C.ar    1  UNL1        0.0229
     24 C          -0.2792  -17.8879   20.1723 C.ar    1  UNL1        0.0599
     25 CL          1.1462  -17.7736   20.6253 Cl      1  UNL1       -0.0822
     26 C          -1.3162  -18.4559   21.0953 C.ar    1  UNL1        0.0316
@<TRIPOS>BOND
     1     7     8    1
     2     8     9   ar
     3     9    10   ar
     4    10     1    1
     5     1     2   ar
     6     2     3   ar
     7     3     4   ar
     8     4    14    1
     9    14    16    1
    10    16    17    2
    11    16    18    2
    12    16    19    1
    13    19    20   ar
    14    20    21   ar
    15    21    22    1
    16    21    23   ar
    17    23    24   ar
    18    24    25    1
    19    24    26   ar
    20     4     5   ar
    21     5     6   ar
    22    10    11   ar
    23    11    12   ar
    24    12    13   ar
    25    13     8   ar
    26     6     1   ar
    27    26    19   ar
    28    14    15    1
@<TRIPOS>MOLECULE
*****
 26 28 0 0 0
SMALL
GASTEIGER

@<TRIPOS>ATOM
      1 C           2.5402   -0.5008   20.8142 C.ar    1  UNL1        0.0002
      2 C           1.1485   -0.5368   20.2556 C.ar    1  UNL1        0.0013
      3 C           0.3780    0.7380   20.0790 C.ar    1  UNL1        0.0159
      4 C           0.9992    2.0488   20.4612 C.ar    1  UNL1        0.0648
      5 C           2.3908    2.0848   21.0198 C.ar    1  UNL1        0.0159
      6 C           3.1613    0.8099   21.1963 C.ar    1  UNL1        0.0013
      7 C           4.5347   -4.8660   18.8223 C.3     1  UNL1        0.0521
      8 C           4.3079   -3.9582   19.9948 C.ar    1  UNL1        0.0594
      9 C           3.5374   -2.6834   19.8183 C.ar    1  UNL1        0.0147
     10 C           3.3107   -1.7757   20.9907 C.ar    1  UNL1        0.0027
     11 C           3.8544   -2.1428   22.3396 C.ar    1  UNL1        0.0207
     12 C           4.6248   -3.4176   22.5161 C.ar    1  UNL1        0.0984
     13 N           4.8516   -4.3253   21.3437 N.ar    1  UNL1       -0.2481
     14 N           0.2287    3.3236   20.2846 N.pl3   1  UNL1       -0.2150
     15 H           0.6775    4.1251   19.9304 H       1  UNL1        0.1737
     16 S          -1.2257    3.3773   20.6478 S.O2    1  UNL1        0.0736
     17 O          -1.5799    3.5622   19.2020 O.2     1  UNL1       -0.1499
     18 O          -0.8716    3.1925   22.0936 O.2     1  UNL1       -0.1499
     19 C          -2.6801    3.4311   21.0109 C.ar    1  UNL1        0.1268
     20 C          -3.0917    3.4886   22.4522 C.ar    1  UNL1        0.0316
     21 C          -4.5460    3.5423   22.8153 C.ar    1  UNL1        0.0599
     22 CL         -4.9575    3.5999   24.2567 Cl      1  UNL1       -0.0822
     23 C          -5.5889    3.5385   21.7372 C.ar    1  UNL1        0.0229
     24 C          -5.1774    3.4810   20.2959 C.ar    1  UNL1        0.0599
     25 CL         -6.2202    3.4772   19.2177 Cl      1  UNL1       -0.0822
     26 C          -3.7230    3.4273   19.9328 C.ar    1  UNL1        0.0316
@<TRIPOS>BOND
     1     7     8    1
     2     8     9   ar
     3     9    10   ar
     4    10     1    1
     5     1     2   ar
     6     2     3   ar
     7     3     4   ar
     8     4    14    1
     9    14    16    1
    10    16    17    2
    11    16    18    2
    12    16    19    1
    13    19    20   ar
    14    20    21   ar
    15    21    22    1
    16    21    23   ar
    17    23    24   ar
    18    24    25    1
    19    24    26   ar
    20     4     5   ar
    21     5     6   ar
    22    10    11   ar
    23    11    12   ar
    24    12    13   ar
    25    13     8   ar
    26     6     1   ar
    27    26    19   ar
    28    14    15    1
@<TRIPOS>MOLECULE
*****
 26 28 0 0 0
SMALL
GASTEIGER

@<TRIPOS>ATOM
      1 C           2.5641   -0.4666   20.7555 C.ar    1  UNL1        0.0002
      2 C           1.1605   -0.5059   20.2280 C.ar    1  UNL1        0.0013
      3 C           0.3876    0.7682   20.0569 C.ar    1  UNL1        0.0159
      4 C           1.0184    2.0817   20.4134 C.ar    1  UNL1        0.0648
      5 C           2.4220    2.1210   20.9409 C.ar    1  UNL1        0.0159
      6 C           3.1949    0.8468   21.1119 C.ar    1  UNL1        0.0013
      7 C           4.5078   -4.8531   18.7604 C.3     1  UNL1        0.0521
      8 C           4.3089   -3.9340   19.9290 C.ar    1  UNL1        0.0594
      9 C           3.5360   -2.6599   19.7580 C.ar    1  UNL1        0.0147
     10 C           3.3370   -1.7408   20.9266 C.ar    1  UNL1        0.0027
     11 C           3.9109   -2.0957   22.2662 C.ar    1  UNL1        0.0207
     12 C           4.6838   -3.3698   22.4372 C.ar    1  UNL1        0.0984
     13 N           4.8827   -4.2890   21.2686 N.ar    1  UNL1       -0.2481
     14 N           0.2455    3.3557   20.2423 N.pl3   1  UNL1       -0.2150
     15 H           0.6847    4.1508   19.8625 H       1  UNL1        0.1737
     16 S          -1.1967    3.4186   20.6498 S.O2    1  UNL1        0.0736
     17 O          -0.7984    3.2476   22.0858 O.2     1  UNL1       -0.1499
     18 O          -1.5951    3.5896   19.2138 O.2     1  UNL1       -0.1499
     19 C          -2.6390    3.4814   21.0574 C.ar    1  UNL1        0.1268
     20 C          -3.7137    3.5022   20.0112 C.ar    1  UNL1        0.0316
     21 C          -5.1559    3.5651   20.4188 C.ar    1  UNL1        0.0599
     22 CL         -6.2307    3.5859   19.3726 Cl      1  UNL1       -0.0822
     23 C          -5.5234    3.6071   21.8724 C.ar    1  UNL1        0.0229
     24 C          -4.4486    3.5862   22.9186 C.ar    1  UNL1        0.0599
     25 CL         -4.8160    3.6282   24.3723 Cl      1  UNL1       -0.0822
     26 C          -3.0064    3.5234   22.5110 C.ar    1  UNL1        0.0316
@<TRIPOS>BOND
     1     7     8    1
     2     8     9   ar
     3     9    10   ar
     4    10     1    1
     5     1     2   ar
     6     2     3   ar
     7     3     4   ar
     8     4    14    1
     9    14    16    1
    10    16    17    2
    11    16    18    2
    12    16    19    1
    13    19    20   ar
    14    20    21   ar
    15    21    22    1
    16    21    23   ar
    17    23    24   ar
    18    24    25    1
    19    24    26   ar
    20     4     5   ar
    21     5     6   ar
    22    10    11   ar
    23    11    12   ar
    24    12    13   ar
    25    13     8   ar
    26     6     1   ar
    27    26    19   ar
    28    14    15    1
@<TRIPOS>MOLECULE
*****
 26 28 0 0 0
SMALL
GASTEIGER

@<TRIPOS>ATOM
      1 C           2.6174   -0.4648   20.5900 C.ar    1  UNL1        0.0002
      2 C           3.2042    0.8311   21.0660 C.ar    1  UNL1        0.0013
      3 C           2.4792    2.1199   20.8144 C.ar    1  UNL1        0.0159
      4 C           1.1674    2.1129   20.0868 C.ar    1  UNL1        0.0648
      5 C           0.5807    0.8171   19.6109 C.ar    1  UNL1        0.0159
      6 C           1.3057   -0.4718   19.8625 C.ar    1  UNL1        0.0013
      7 C           4.4818   -4.9927   18.8516 C.3     1  UNL1        0.0521
      8 C           4.2746   -4.0176   19.9724 C.ar    1  UNL1        0.0594
      9 C           3.5497   -2.7288   19.7209 C.ar    1  UNL1        0.0147
     10 C           3.3425   -1.7536   20.8417 C.ar    1  UNL1        0.0027
     11 C           3.8602   -2.0673   22.2140 C.ar    1  UNL1        0.0207
     12 C           4.5852   -3.3561   22.4656 C.ar    1  UNL1        0.0984
     13 N           4.7924   -4.3312   21.3448 N.ar    1  UNL1       -0.2481
     14 N           0.4425    3.4017   19.8352 N.pl3   1  UNL1       -0.2150
     15 H           0.9429    4.2008   19.5518 H       1  UNL1        0.1737
     16 S          -1.0449    3.4731   20.0155 S.O2    1  UNL1        0.0736
     17 O          -1.2198    3.5819   18.5297 O.2     1  UNL1       -0.1499
     18 O          -0.8701    3.3644   21.5013 O.2     1  UNL1       -0.1499
     19 C          -2.5324    3.5446   20.1957 C.ar    1  UNL1        0.1268
     20 C          -3.1340    3.3374   21.5540 C.ar    1  UNL1        0.0316
     21 C          -4.6215    3.4088   21.7343 C.ar    1  UNL1        0.0599
     22 CL         -5.2231    3.2016   23.0926 Cl      1  UNL1       -0.0822
     23 C          -5.5072    3.6874   20.5562 C.ar    1  UNL1        0.0229
     24 C          -4.9055    3.8946   19.1979 C.ar    1  UNL1        0.0599
     25 CL         -5.7912    4.1732   18.0198 Cl      1  UNL1       -0.0822
     26 C          -3.4181    3.8232   19.0177 C.ar    1  UNL1        0.0316
@<TRIPOS>BOND
     1     7     8    1
     2     8     9   ar
     3     9    10   ar
     4    10     1    1
     5     1     2   ar
     6     2     3   ar
     7     3     4   ar
     8     4    14    1
     9    14    16    1
    10    16    17    2
    11    16    18    2
    12    16    19    1
    13    19    20   ar
    14    20    21   ar
    15    21    22    1
    16    21    23   ar
    17    23    24   ar
    18    24    25    1
    19    24    26   ar
    20     4     5   ar
    21     5     6   ar
    22    10    11   ar
    23    11    12   ar
    24    12    13   ar
    25    13     8   ar
    26     6     1   ar
    27    26    19   ar
    28    14    15    1
@<TRIPOS>MOLECULE
*****
 26 28 0 0 0
SMALL
GASTEIGER

@<TRIPOS>ATOM
      1 C           2.3531   -0.0667   19.1956 C.ar    1  UNL1        0.0002
      2 C           1.1670   -0.3471   20.0699 C.ar    1  UNL1        0.0013
      3 C           0.1433    0.7224   20.3109 C.ar    1  UNL1        0.0159
      4 C           0.3056    2.0724   19.6775 C.ar    1  UNL1        0.0648
      5 C           1.4917    2.3529   18.8032 C.ar    1  UNL1        0.0159
      6 C           2.5155    1.2833   18.5622 C.ar    1  UNL1        0.0013
      7 C           3.8310   -5.0374   19.5249 C.3     1  UNL1        0.0521
      8 C           4.1157   -3.6216   19.1193 C.ar    1  UNL1        0.0594
      9 C           3.0921   -2.5520   19.3602 C.ar    1  UNL1        0.0147
     10 C           3.3769   -1.1363   18.9546 C.ar    1  UNL1        0.0027
     11 C           4.6853   -0.7901   18.3081 C.ar    1  UNL1        0.0207
     12 C           5.7090   -1.8596   18.0672 C.ar    1  UNL1        0.0984
     13 N           5.4242   -3.2754   18.4728 N.ar    1  UNL1       -0.2481
     14 N          -0.7181    3.1419   19.9185 N.pl3   1  UNL1       -0.2150
     15 H          -0.9722    3.7533   19.1898 H       1  UNL1        0.1737
     16 S          -1.3548    3.2799   21.2696 S.O2    1  UNL1        0.0736
     17 O          -2.6432    2.7463   20.7170 O.2     1  UNL1       -0.1499
     18 O          -0.0665    3.8135   21.8222 O.2     1  UNL1       -0.1499
     19 C          -1.9916    3.4179   22.6207 C.ar    1  UNL1        0.1268
     20 C          -1.1496    3.3308   23.8590 C.ar    1  UNL1        0.0316
     21 C          -1.7863    3.4688   25.2102 C.ar    1  UNL1        0.0599
     22 CL         -0.9443    3.3816   26.4485 Cl      1  UNL1       -0.0822
     23 C          -3.2650    3.6939   25.3230 C.ar    1  UNL1        0.0229
     24 C          -4.1070    3.7810   24.0847 C.ar    1  UNL1        0.0599
     25 CL         -5.5857    4.0061   24.1975 Cl      1  UNL1       -0.0822
     26 C          -3.4702    3.6430   22.7336 C.ar    1  UNL1        0.0316
@<TRIPOS>BOND
     1     7     8    1
     2     8     9   ar
     3     9    10   ar
     4    10     1    1
     5     1     2   ar
     6     2     3   ar
     7     3     4   ar
     8     4    14    1
     9    14    16    1
    10    16    17    2
    11    16    18    2
    12    16    19    1
    13    19    20   ar
    14    20    21   ar
    15    21    22    1
    16    21    23   ar
    17    23    24   ar
    18    24    25    1
    19    24    26   ar
    20     4     5   ar
    21     5     6   ar
    22    10    11   ar
    23    11    12   ar
    24    12    13   ar
    25    13     8   ar
    26     6     1   ar
    27    26    19   ar
    28    14    15    1
@<TRIPOS>MOLECULE
*****
 26 28 0 0 0
SMALL
GASTEIGER

@<TRIPOS>ATOM
      1 C           2.4100   -0.0616   19.2283 C.ar    1  UNL1        0.0002
      2 C           2.5794    1.2915   18.6033 C.ar    1  UNL1        0.0013
      3 C           1.5430    2.3536   18.8216 C.ar    1  UNL1        0.0159
      4 C           0.3370    2.0627   19.6649 C.ar    1  UNL1        0.0648
      5 C           0.1676    0.7096   20.2899 C.ar    1  UNL1        0.0159
      6 C           1.2041   -0.3525   20.0715 C.ar    1  UNL1        0.0013
      7 C           3.8741   -5.0406   19.4840 C.3     1  UNL1        0.0521
      8 C           4.1785   -3.6132   19.1378 C.ar    1  UNL1        0.0594
      9 C           3.1421   -2.5511   19.3561 C.ar    1  UNL1        0.0147
     10 C           3.4465   -1.1237   19.0099 C.ar    1  UNL1        0.0027
     11 C           4.7873   -0.7584   18.4455 C.ar    1  UNL1        0.0207
     12 C           5.8237   -1.8205   18.2272 C.ar    1  UNL1        0.0984
     13 N           5.5193   -3.2479   18.5733 N.ar    1  UNL1       -0.2481
     14 N          -0.6994    3.1248   19.8832 N.pl3   1  UNL1       -0.2150
     15 H          -0.9273    3.7472   19.1552 H       1  UNL1        0.1737
     16 S          -1.3886    3.2387   21.2106 S.O2    1  UNL1        0.0736
     17 O          -0.0933    3.6458   21.8482 O.2     1  UNL1       -0.1499
     18 O          -2.6838    2.8315   20.5731 O.2     1  UNL1       -0.1499
     19 C          -2.0777    3.3525   22.5381 C.ar    1  UNL1        0.1268
     20 C          -3.5560    3.5999   22.5968 C.ar    1  UNL1        0.0316
     21 C          -4.2452    3.7137   23.9243 C.ar    1  UNL1        0.0599
     22 CL         -5.7235    3.9611   23.9830 Cl      1  UNL1       -0.0822
     23 C          -3.4561    3.5803   25.1929 C.ar    1  UNL1        0.0229
     24 C          -1.9778    3.3330   25.1341 C.ar    1  UNL1        0.0599
     25 CL         -1.1886    3.1995   26.4028 Cl      1  UNL1       -0.0822
     26 C          -1.2887    3.2191   23.8067 C.ar    1  UNL1        0.0316
@<TRIPOS>BOND
     1     7     8    1
     2     8     9   ar
     3     9    10   ar
     4    10     1    1
     5     1     2   ar
     6     2     3   ar
     7     3     4   ar
     8     4    14    1
     9    14    16    1
    10    16    17    2
    11    16    18    2
    12    16    19    1
    13    19    20   ar
    14    20    21   ar
    15    21    22    1
    16    21    23   ar
    17    23    24   ar
    18    24    25    1
    19    24    26   ar
    20     4     5   ar
    21     5     6   ar
    22    10    11   ar
    23    11    12   ar
    24    12    13   ar
    25    13     8   ar
    26     6     1   ar
    27    26    19   ar
    28    14    15    1
@<TRIPOS>MOLECULE
*****
 26 28 0 0 0
SMALL
GASTEIGER

@<TRIPOS>ATOM
      1 C         -12.8410   -3.8828   18.0369 C.ar    1  UNL1        0.0002
      2 C         -12.6461   -4.4887   19.3951 C.ar    1  UNL1        0.0013
      3 C         -13.0825   -5.8999   19.6565 C.ar    1  UNL1        0.0159
      4 C         -13.7137   -6.7051   18.5595 C.ar    1  UNL1        0.0648
      5 C         -13.9085   -6.0992   17.2013 C.ar    1  UNL1        0.0159
      6 C         -13.4722   -4.6880   16.9399 C.ar    1  UNL1        0.0013
      7 C         -13.8054    1.2216   18.1605 C.3     1  UNL1        0.0521
      8 C         -12.8869    0.0805   17.8374 C.ar    1  UNL1        0.0594
      9 C         -13.3232   -1.3306   18.0986 C.ar    1  UNL1        0.0147
     10 C         -12.4047   -2.4716   17.7755 C.ar    1  UNL1        0.0027
     11 C         -11.0499   -2.2015   17.1911 C.ar    1  UNL1        0.0207
     12 C         -10.6136   -0.7904   16.9299 C.ar    1  UNL1        0.0984
     13 N         -11.5321    0.3506   17.2530 N.ar    1  UNL1       -0.2481
     14 N         -14.1500   -8.1162   18.8209 N.pl3   1  UNL1       -0.2150
     15 H         -13.4778   -8.8184   18.9769 H       1  UNL1        0.1737
     16 S         -15.6104   -8.4575   18.8444 S.O2    1  UNL1        0.0736
     17 O         -15.3626   -9.5844   17.8860 O.2     1  UNL1       -0.1499
     18 O         -15.8583   -7.3307   19.8029 O.2     1  UNL1       -0.1499
     19 C         -17.0709   -8.7989   18.8680 C.ar    1  UNL1        0.1268
     20 C         -17.6861   -9.5420   17.7195 C.ar    1  UNL1        0.0316
     21 C         -19.1465   -9.8834   17.7431 C.ar    1  UNL1        0.0599
     22 CL        -19.7617  -10.6266   16.5944 Cl      1  UNL1       -0.0822
     23 C         -19.9918   -9.4815   18.9152 C.ar    1  UNL1        0.0229
     24 C         -19.3767   -8.7383   20.0637 C.ar    1  UNL1        0.0599
     25 CL        -20.2220   -8.3364   21.2359 Cl      1  UNL1       -0.0822
     26 C         -17.9162   -8.3970   20.0402 C.ar    1  UNL1        0.0316
@<TRIPOS>BOND
     1     7     8    1
     2     8     9   ar
     3     9    10   ar
     4    10     1    1
     5     1     2   ar
     6     2     3   ar
     7     3     4   ar
     8     4    14    1
     9    14    16    1
    10    16    17    2
    11    16    18    2
    12    16    19    1
    13    19    20   ar
    14    20    21   ar
    15    21    22    1
    16    21    23   ar
    17    23    24   ar
    18    24    25    1
    19    24    26   ar
    20     4     5   ar
    21     5     6   ar
    22    10    11   ar
    23    11    12   ar
    24    12    13   ar
    25    13     8   ar
    26     6     1   ar
    27    26    19   ar
    28    14    15    1
@<TRIPOS>MOLECULE
*****
 26 28 0 0 0
SMALL
GASTEIGER

@<TRIPOS>ATOM
      1 C           2.2275   -0.4455   20.7887 C.ar    1  UNL1        0.0002
      2 C           1.7063    0.0352   19.4669 C.ar    1  UNL1        0.0013
      3 C           0.8345    1.2541   19.4028 C.ar    1  UNL1        0.0159
      4 C           0.4838    1.9924   20.6606 C.ar    1  UNL1        0.0648
      5 C           1.0049    1.5117   21.9825 C.ar    1  UNL1        0.0159
      6 C           1.8768    0.2927   22.0465 C.ar    1  UNL1        0.0013
      7 C           5.4053   -3.5697   23.4609 C.3     1  UNL1        0.0521
      8 C           4.6883   -3.2265   22.1889 C.ar    1  UNL1        0.0594
      9 C           3.8164   -2.0076   22.1248 C.ar    1  UNL1        0.0147
     10 C           3.0994   -1.6644   20.8528 C.ar    1  UNL1        0.0027
     11 C           3.2542   -2.5401   19.6448 C.ar    1  UNL1        0.0207
     12 C           4.1260   -3.7590   19.7089 C.ar    1  UNL1        0.0984
     13 N           4.8431   -4.1022   20.9809 N.ar    1  UNL1       -0.2481
     14 N          -0.3881    3.2113   20.5966 N.pl3   1  UNL1       -0.2150
     15 H          -0.2222    3.8998   19.9127 H       1  UNL1        0.1737
     16 S          -1.5128    3.3812   21.5744 S.O2    1  UNL1        0.0736
     17 O          -2.3492    2.4234   20.7788 O.2     1  UNL1       -0.1499
     18 O          -0.6763    4.3389   22.3701 O.2     1  UNL1       -0.1499
     19 C          -2.6374    3.5511   22.5523 C.ar    1  UNL1        0.1268
     20 C          -2.3503    3.6055   24.0235 C.ar    1  UNL1        0.0316
     21 C          -3.4750    3.7754   25.0014 C.ar    1  UNL1        0.0599
     22 CL         -3.1878    3.8298   26.4727 Cl      1  UNL1       -0.0822
     23 C          -4.8868    3.8910   24.5080 C.ar    1  UNL1        0.0229
     24 C          -5.1739    3.8366   23.0368 C.ar    1  UNL1        0.0599
     25 CL         -6.5858    3.9522   22.5434 Cl      1  UNL1       -0.0822
     26 C          -4.0492    3.6667   22.0589 C.ar    1  UNL1        0.0316
@<TRIPOS>BOND
     1     7     8    1
     2     8     9   ar
     3     9    10   ar
     4    10     1    1
     5     1     2   ar
     6     2     3   ar
     7     3     4   ar
     8     4    14    1
     9    14    16    1
    10    16    17    2
    11    16    18    2
    12    16    19    1
    13    19    20   ar
    14    20    21   ar
    15    21    22    1
    16    21    23   ar
    17    23    24   ar
    18    24    25    1
    19    24    26   ar
    20     4     5   ar
    21     5     6   ar
    22    10    11   ar
    23    11    12   ar
    24    12    13   ar
    25    13     8   ar
    26     6     1   ar
    27    26    19   ar
    28    14    15    1
@<TRIPOS>MOLECULE
*****
 26 28 0 0 0
SMALL
GASTEIGER

@<TRIPOS>ATOM
      1 C           8.0734   -5.8301   24.8941 C.ar    1  UNL1        0.0002
      2 C           7.0893   -4.7385   24.5939 C.ar    1  UNL1        0.0013
      3 C           6.9750   -4.1940   23.2009 C.ar    1  UNL1        0.0159
      4 C           7.8448   -4.7411   22.1080 C.ar    1  UNL1        0.0648
      5 C           8.8289   -5.8326   22.4082 C.ar    1  UNL1        0.0159
      6 C           8.9432   -6.3771   23.8013 C.ar    1  UNL1        0.0013
      7 C           6.9152   -5.5330   29.9508 C.3     1  UNL1        0.0521
      8 C           7.6086   -6.2260   28.8155 C.ar    1  UNL1        0.0594
      9 C           7.4943   -5.6816   27.4225 C.ar    1  UNL1        0.0147
     10 C           8.1877   -6.3745   26.2871 C.ar    1  UNL1        0.0027
     11 C           8.9954   -7.6120   26.5448 C.ar    1  UNL1        0.0207
     12 C           9.1096   -8.1564   27.9378 C.ar    1  UNL1        0.0984
     13 N           8.4163   -7.4634   29.0731 N.ar    1  UNL1       -0.2481
     14 N           7.7305   -4.1966   20.7151 N.pl3   1  UNL1       -0.2150
     15 H           8.4287   -4.3952   20.0501 H       1  UNL1        0.1737
     16 S           6.5522   -3.3495   20.3353 S.O2    1  UNL1        0.0736
     17 O           7.3570   -2.1116   20.5996 O.2     1  UNL1       -0.1499
     18 O           5.7475   -4.5874   20.0709 O.2     1  UNL1       -0.1499
     19 C           5.3740   -2.5024   19.9554 C.ar    1  UNL1        0.1268
     20 C           5.1457   -2.1360   18.5190 C.ar    1  UNL1        0.0316
     21 C           3.9674   -1.2890   18.1391 C.ar    1  UNL1        0.0599
     22 CL          3.7391   -0.9226   16.7025 Cl      1  UNL1       -0.0822
     23 C           3.0176   -0.8083   19.1958 C.ar    1  UNL1        0.0229
     24 C           3.2459   -1.1746   20.6323 C.ar    1  UNL1        0.0599
     25 CL          2.2960   -0.6939   21.6891 Cl      1  UNL1       -0.0822
     26 C           4.4242   -2.0217   21.0121 C.ar    1  UNL1        0.0316
@<TRIPOS>BOND
     1     7     8    1
     2     8     9   ar
     3     9    10   ar
     4    10     1    1
     5     1     2   ar
     6     2     3   ar
     7     3     4   ar
     8     4    14    1
     9    14    16    1
    10    16    17    2
    11    16    18    2
    12    16    19    1
    13    19    20   ar
    14    20    21   ar
    15    21    22    1
    16    21    23   ar
    17    23    24   ar
    18    24    25    1
    19    24    26   ar
    20     4     5   ar
    21     5     6   ar
    22    10    11   ar
    23    11    12   ar
    24    12    13   ar
    25    13     8   ar
    26     6     1   ar
    27    26    19   ar
    28    14    15    1
