@<TRIPOS>MOLECULE
*****
 35 38 0 0 0
SMALL
GASTEIGER

@<TRIPOS>ATOM
      1 N           2.1278    1.6250   27.6332 N.am    1  UNL1       -0.2681
      2 C           3.0457    0.4404   27.5670 C.2     1  UNL1        0.3077
      3 O           3.6937   -0.0770   28.8169 O.2     1  UNL1       -0.2522
      4 N           3.3154   -0.2267   26.2509 N.am    1  UNL1       -0.2640
      5 C           2.7426    0.1761   24.9244 C.3     1  UNL1        0.0950
      6 C           3.2786   -0.7620   23.8839 C.3     1  UNL1        0.0219
      7 C           3.2558   -1.0929   22.4211 C.3     1  UNL1        0.0061
      8 C           4.1458   -2.2800   22.2003 C.3     1  UNL1        0.0224
      9 C           4.7186   -2.6829   23.5269 C.3     1  UNL1        0.0061
     10 C           4.1826   -1.7447   24.5674 C.3     1  UNL1        0.0219
     11 C           4.2054   -1.4138   26.0302 C.3     1  UNL1        0.0950
     12 H           1.7025    1.9646   26.8128 H       1  UNL1        0.1564
     13 C           1.3185    3.6267   31.5813 C.ar    1  UNL1        0.1058
     14 C           2.6150    3.8719   30.8680 C.ar    1  UNL1        0.0196
     15 C           2.8848    3.2047   29.5520 C.ar    1  UNL1        0.0161
     16 C           1.8580    2.2922   28.9493 C.ar    1  UNL1        0.0527
     17 C           0.5615    2.0470   29.6626 C.ar    1  UNL1        0.0288
     18 C           0.2918    2.7142   30.9787 C.ar    1  UNL1        0.0207
     19 C           0.7791    4.9612   34.2135 C.3     1  UNL1        0.1816
     20 S           1.0488    4.2939   32.8974 S.O2    1  UNL1        0.0105
     21 O           2.5131    4.2503   33.2197 O.2     1  UNL1       -0.1686
     22 O          -0.4155    4.3376   32.5752 O.2     1  UNL1       -0.1686
     23 C          -0.4653    1.1345   29.0599 C.2     1  UNL1        0.0741
     24 O          -0.9134    1.3414   27.6434 O.co2   1  UNL1       -0.5446
     25 O          -1.0439    0.0152   29.8737 O.co2   1  UNL1       -0.5446
     26 C           4.4156   -2.9471   20.8843 C.ar    1  UNL1       -0.0186
     27 C           3.8096   -4.2860   20.5840 C.ar    1  UNL1       -0.0043
     28 C           4.0794   -4.9533   19.2679 C.ar    1  UNL1       -0.0003
     29 C           4.9551   -4.2815   18.2521 C.ar    1  UNL1       -0.0001
     30 C           5.5611   -2.9426   18.5524 C.ar    1  UNL1        0.0035
     31 C           5.2913   -2.2754   19.8684 C.ar    1  UNL1        0.0675
     32 C           5.8973   -0.9366   20.1688 C.3     1  UNL1        0.4183
     33 F           6.5032    0.4023   20.4691 F       1  UNL1       -0.1659
     34 F           4.7360   -0.2613   19.5014 F       1  UNL1       -0.1659
     35 F           7.0586   -1.6118   20.8361 F       1  UNL1       -0.1659
@<TRIPOS>UNITY_ATOM_ATTR
24 1
charge -1
@<TRIPOS>BOND
     1    19    20    1
     2    20    21    2
     3    20    22    2
     4    20    13    1
     5    13    14   ar
     6    14    15   ar
     7    15    16   ar
     8    16     1    1
     9     1     2   am
    10     2     3    2
    11     2     4   am
    12     4     5    1
    13     6     5    1
    14     6     7    1
    15     7     8    1
    16     8    26    1
    17    26    27   ar
    18    27    28   ar
    19    28    29   ar
    20    29    30   ar
    21    30    31   ar
    22    31    32    1
    23    32    33    1
    24    32    34    1
    25    32    35    1
    26     8     9    1
    27    10     9    1
    28    10    11    1
    29    16    17   ar
    30    17    23    1
    31    23    24   ar
    32    23    25   ar
    33    17    18   ar
    34    18    13   ar
    35    11     4    1
    36    10     6    1
    37    31    26   ar
    38     1    12    1
@<TRIPOS>MOLECULE
*****
 35 38 0 0 0
SMALL
GASTEIGER

@<TRIPOS>ATOM
      1 N          -2.4834    2.5085   20.4889 N.am    1  UNL1       -0.2681
      2 C          -1.1561    2.9076   21.0624 C.2     1  UNL1        0.3077
      3 O          -0.9870    4.2581   21.6929 O.2     1  UNL1       -0.2522
      4 N           0.0022    1.9562   21.0055 N.am    1  UNL1       -0.2640
      5 C          -0.0159    0.5797   20.4096 C.3     1  UNL1        0.0950
      6 C           1.3526   -0.0129   20.5703 C.3     1  UNL1        0.0219
      7 C           2.1872   -1.2299   20.3013 C.3     1  UNL1        0.0061
      8 C           3.5670   -0.9719   20.8302 C.3     1  UNL1        0.0224
      9 C           3.5851    0.4046   21.4261 C.3     1  UNL1        0.0061
     10 C           2.2166    0.9972   21.2654 C.3     1  UNL1        0.0219
     11 C           1.3819    2.2142   21.5344 C.3     1  UNL1        0.0950
     12 H          -2.5943    1.6221   20.0751 H       1  UNL1        0.1564
     13 C          -5.9583    5.3624   20.6599 C.ar    1  UNL1        0.1058
     14 C          -5.5299    4.6276   21.8953 C.ar    1  UNL1        0.0196
     15 C          -4.3716    3.6763   21.8383 C.ar    1  UNL1        0.0161
     16 C          -3.6417    3.4598   20.5459 C.ar    1  UNL1        0.0527
     17 C          -4.0702    4.1946   19.3104 C.ar    1  UNL1        0.0288
     18 C          -5.2285    5.1460   19.3674 C.ar    1  UNL1        0.0207
     19 C          -8.2750    7.2652   20.7738 C.3     1  UNL1        0.1816
     20 S          -7.1167    6.3138   20.7169 S.O2    1  UNL1        0.0105
     21 O          -6.4993    7.1312   19.6211 O.2     1  UNL1       -0.1686
     22 O          -7.7340    5.4965   21.8126 O.2     1  UNL1       -0.1686
     23 C          -3.3403    3.9782   18.0179 C.2     1  UNL1        0.0741
     24 O          -1.8669    4.2465   17.9346 O.co2   1  UNL1       -0.5446
     25 O          -4.0840    3.4934   16.8088 O.co2   1  UNL1       -0.5446
     26 C           4.7252   -1.9233   20.7732 C.ar    1  UNL1       -0.0186
     27 C           5.0035   -2.8363   21.9304 C.ar    1  UNL1       -0.0043
     28 C           6.1618   -3.7877   21.8735 C.ar    1  UNL1       -0.0003
     29 C           7.0418   -3.8261   20.6593 C.ar    1  UNL1       -0.0001
     30 C           6.7636   -2.9130   19.5021 C.ar    1  UNL1        0.0035
     31 C           5.6054   -1.9617   19.5591 C.ar    1  UNL1        0.0675
     32 C           5.3271   -1.0487   18.4020 C.3     1  UNL1        0.4183
     33 F           5.0488   -0.1357   17.2448 F       1  UNL1       -0.1659
     34 F           4.4507   -2.0980   17.7848 F       1  UNL1       -0.1659
     35 F           6.2035    0.0006   19.0191 F       1  UNL1       -0.1659
@<TRIPOS>UNITY_ATOM_ATTR
24 1
charge -1
@<TRIPOS>BOND
     1    19    20    1
     2    20    21    2
     3    20    22    2
     4    20    13    1
     5    13    14   ar
     6    14    15   ar
     7    15    16   ar
     8    16     1    1
     9     1     2   am
    10     2     3    2
    11     2     4   am
    12     4     5    1
    13     6     5    1
    14     6     7    1
    15     7     8    1
    16     8    26    1
    17    26    27   ar
    18    27    28   ar
    19    28    29   ar
    20    29    30   ar
    21    30    31   ar
    22    31    32    1
    23    32    33    1
    24    32    34    1
    25    32    35    1
    26     8     9    1
    27    10     9    1
    28    10    11    1
    29    16    17   ar
    30    17    23    1
    31    23    24   ar
    32    23    25   ar
    33    17    18   ar
    34    18    13   ar
    35    11     4    1
    36    10     6    1
    37    31    26   ar
    38     1    12    1
@<TRIPOS>MOLECULE
*****
 35 38 0 0 0
SMALL
GASTEIGER

@<TRIPOS>ATOM
      1 N          -3.2345    2.8415   21.6163 N.am    1  UNL1       -0.2681
      2 C          -1.8810    3.4473   21.8420 C.2     1  UNL1        0.3077
      3 O          -1.7475    4.7064   22.6464 O.2     1  UNL1       -0.2522
      4 N          -0.6610    2.7941   21.2634 N.am    1  UNL1       -0.2640
      5 C          -0.6384    1.5391   20.4421 C.3     1  UNL1        0.0950
      6 C           0.7872    1.2506   20.0756 C.3     1  UNL1        0.0219
      7 C           1.6823    0.2967   19.3415 C.3     1  UNL1        0.0061
      8 C           3.0940    0.7838   19.4825 C.3     1  UNL1        0.0224
      9 C           3.0714    2.0388   20.3038 C.3     1  UNL1        0.0061
     10 C           1.6458    2.3273   20.6703 C.3     1  UNL1        0.0219
     11 C           0.7507    3.2812   21.4044 C.3     1  UNL1        0.0950
     12 H          -3.3221    2.0152   21.0883 H       1  UNL1        0.1564
     13 C          -6.8947    4.8009   23.3522 C.ar    1  UNL1        0.1058
     14 C          -5.8098    4.3014   24.2595 C.ar    1  UNL1        0.0196
     15 C          -4.5897    3.6483   23.6809 C.ar    1  UNL1        0.0161
     16 C          -4.4546    3.4947   22.1949 C.ar    1  UNL1        0.0527
     17 C          -5.5396    3.9942   21.2875 C.ar    1  UNL1        0.0288
     18 C          -6.7596    4.6473   21.8662 C.ar    1  UNL1        0.0207
     19 C          -9.3348    6.1073   24.5096 C.3     1  UNL1        0.1816
     20 S          -8.1148    5.4541   23.9309 S.O2    1  UNL1        0.0105
     21 O          -7.3759    6.7565   24.0187 O.2     1  UNL1       -0.1686
     22 O          -8.8536    4.1517   23.8431 O.2     1  UNL1       -0.1686
     23 C          -5.4045    3.8406   19.8015 C.2     1  UNL1        0.0741
     24 O          -4.0936    4.1326   19.1334 O.co2   1  UNL1       -0.5446
     25 O          -6.5803    3.3951   18.9837 O.co2   1  UNL1       -0.5446
     26 C           4.3140    0.1306   18.9040 C.ar    1  UNL1       -0.0186
     27 C           4.9535    0.6956   17.6704 C.ar    1  UNL1       -0.0043
     28 C           6.1736    0.0424   17.0917 C.ar    1  UNL1       -0.0003
     29 C           6.7541   -1.1758   17.7467 C.ar    1  UNL1       -0.0001
     30 C           6.1145   -1.7408   18.9803 C.ar    1  UNL1        0.0035
     31 C           4.8946   -1.0876   19.5589 C.ar    1  UNL1        0.0675
     32 C           4.2550   -1.6526   20.7925 C.3     1  UNL1        0.4183
     33 F           3.6154   -2.2176   22.0261 F       1  UNL1       -0.1659
     34 F           5.1046   -0.7561   21.6436 F       1  UNL1       -0.1659
     35 F           3.4054   -2.5492   19.9414 F       1  UNL1       -0.1659
@<TRIPOS>UNITY_ATOM_ATTR
24 1
charge -1
@<TRIPOS>BOND
     1    19    20    1
     2    20    21    2
     3    20    22    2
     4    20    13    1
     5    13    14   ar
     6    14    15   ar
     7    15    16   ar
     8    16     1    1
     9     1     2   am
    10     2     3    2
    11     2     4   am
    12     4     5    1
    13     6     5    1
    14     6     7    1
    15     7     8    1
    16     8    26    1
    17    26    27   ar
    18    27    28   ar
    19    28    29   ar
    20    29    30   ar
    21    30    31   ar
    22    31    32    1
    23    32    33    1
    24    32    34    1
    25    32    35    1
    26     8     9    1
    27    10     9    1
    28    10    11    1
    29    16    17   ar
    30    17    23    1
    31    23    24   ar
    32    23    25   ar
    33    17    18   ar
    34    18    13   ar
    35    11     4    1
    36    10     6    1
    37    31    26   ar
    38     1    12    1
@<TRIPOS>MOLECULE
*****
 35 38 0 0 0
SMALL
GASTEIGER

@<TRIPOS>ATOM
      1 N           2.1386    0.3065   25.9265 N.am    1  UNL1       -0.2681
      2 C           3.1513    1.1816   26.6038 C.2     1  UNL1        0.3077
      3 O           3.9927    2.1214   25.7922 O.2     1  UNL1       -0.2522
      4 N           3.3225    1.1168   28.0925 N.am    1  UNL1       -0.2640
      5 C           2.5572    0.2310   29.0304 C.3     1  UNL1        0.0950
      6 C           3.0509    0.4933   30.4223 C.3     1  UNL1        0.0219
      7 C           2.8830    0.1080   31.8622 C.3     1  UNL1        0.0061
      8 C           3.8497    0.9176   32.6746 C.3     1  UNL1        0.0224
      9 C           4.6151    1.8035   31.7366 C.3     1  UNL1        0.0061
     10 C           4.1214    1.5412   30.3447 C.3     1  UNL1        0.0219
     11 C           4.2893    1.9265   28.9048 C.3     1  UNL1        0.0950
     12 H           1.5863   -0.3104   26.4592 H       1  UNL1        0.1564
     13 C           1.6247    0.5004   21.4602 C.ar    1  UNL1        0.1058
     14 C           2.6887   -0.3734   22.0555 C.ar    1  UNL1        0.0196
     15 C           2.8600   -0.4380   23.5443 C.ar    1  UNL1        0.0161
     16 C           1.9673    0.3712   24.4377 C.ar    1  UNL1        0.0527
     17 C           0.9033    1.2449   23.8425 C.ar    1  UNL1        0.0288
     18 C           0.7320    1.3095   22.3537 C.ar    1  UNL1        0.0207
     19 C           1.2823    0.6296   18.4826 C.3     1  UNL1        0.1816
     20 S           1.4535    0.5650   19.9714 S.O2    1  UNL1        0.0105
     21 O           2.9436    0.5529   19.7995 O.2     1  UNL1       -0.1686
     22 O          -0.0365    0.5771   20.1433 O.2     1  UNL1       -0.1686
     23 C           0.0105    2.0541   24.7360 C.2     1  UNL1        0.0741
     24 O          -0.5478    1.4457   25.9882 O.co2   1  UNL1       -0.5446
     25 O          -0.3239    3.4716   24.3772 O.co2   1  UNL1       -0.5446
     26 C           4.0210    0.8529   34.1633 C.ar    1  UNL1       -0.0186
     27 C           3.4014    1.9039   35.0359 C.ar    1  UNL1       -0.0043
     28 C           3.5727    1.8393   36.5247 C.ar    1  UNL1       -0.0003
     29 C           4.3635    0.7235   37.1409 C.ar    1  UNL1       -0.0001
     30 C           4.9831   -0.3276   36.2682 C.ar    1  UNL1        0.0035
     31 C           4.8118   -0.2629   34.7795 C.ar    1  UNL1        0.0675
     32 C           5.4314   -1.3139   33.9069 C.3     1  UNL1        0.4183
     33 F           6.0509   -2.3649   33.0342 F       1  UNL1       -0.1659
     34 F           6.6399   -0.4455   33.7189 F       1  UNL1       -0.1659
     35 F           4.2229   -2.1823   34.0948 F       1  UNL1       -0.1659
@<TRIPOS>UNITY_ATOM_ATTR
24 1
charge -1
@<TRIPOS>BOND
     1    19    20    1
     2    20    21    2
     3    20    22    2
     4    20    13    1
     5    13    14   ar
     6    14    15   ar
     7    15    16   ar
     8    16     1    1
     9     1     2   am
    10     2     3    2
    11     2     4   am
    12     4     5    1
    13     6     5    1
    14     6     7    1
    15     7     8    1
    16     8    26    1
    17    26    27   ar
    18    27    28   ar
    19    28    29   ar
    20    29    30   ar
    21    30    31   ar
    22    31    32    1
    23    32    33    1
    24    32    34    1
    25    32    35    1
    26     8     9    1
    27    10     9    1
    28    10    11    1
    29    16    17   ar
    30    17    23    1
    31    23    24   ar
    32    23    25   ar
    33    17    18   ar
    34    18    13   ar
    35    11     4    1
    36    10     6    1
    37    31    26   ar
    38     1    12    1
@<TRIPOS>MOLECULE
*****
 35 38 0 0 0
SMALL
GASTEIGER

@<TRIPOS>ATOM
      1 N          -2.6074    2.5979   20.4209 N.am    1  UNL1       -0.2681
      2 C          -1.2206    3.1618   20.3273 C.2     1  UNL1        0.3077
      3 O          -1.0218    4.6364   20.1376 O.2     1  UNL1       -0.2522
      4 N          -0.0325    2.2511   20.4234 N.am    1  UNL1       -0.2640
      5 C          -0.0749    0.7636   20.6122 C.3     1  UNL1        0.0950
      6 C           1.3379    0.2612   20.6530 C.3     1  UNL1        0.0219
      7 C           2.1849   -0.9686   20.7949 C.3     1  UNL1        0.0061
      8 C           3.6239   -0.5518   20.7190 C.3     1  UNL1        0.0224
      9 C           3.6661    0.9358   20.5302 C.3     1  UNL1        0.0061
     10 C           2.2534    1.4382   20.4894 C.3     1  UNL1        0.0219
     11 C           1.4064    2.6680   20.3475 C.3     1  UNL1        0.0950
     12 H          -2.7378    1.6301   20.5454 H       1  UNL1        0.1564
     13 C          -6.1715    5.3298   20.1326 C.ar    1  UNL1        0.1058
     14 C          -5.5155    4.8186   18.8843 C.ar    1  UNL1        0.0196
     15 C          -4.3275    3.9080   18.9805 C.ar    1  UNL1        0.0161
     16 C          -3.7954    3.5086   20.3249 C.ar    1  UNL1        0.0527
     17 C          -4.4514    4.0198   21.5732 C.ar    1  UNL1        0.0288
     18 C          -5.6395    4.9305   21.4770 C.ar    1  UNL1        0.0207
     19 C          -8.5476    7.1512   19.9403 C.3     1  UNL1        0.1816
     20 S          -7.3596    6.2405   20.0365 S.O2    1  UNL1        0.0105
     21 O          -6.8717    6.7367   18.7077 O.2     1  UNL1       -0.1686
     22 O          -7.8475    5.7443   21.3652 O.2     1  UNL1       -0.1686
     23 C          -3.9194    3.6205   22.9176 C.2     1  UNL1        0.0741
     24 O          -2.5144    3.9764   23.3041 O.co2   1  UNL1       -0.5446
     25 O          -4.7923    2.8652   23.8755 O.co2   1  UNL1       -0.5446
     26 C           4.8118   -1.4624   20.8150 C.ar    1  UNL1       -0.0186
     27 C           5.4315   -1.7485   22.1507 C.ar    1  UNL1       -0.0043
     28 C           6.6196   -2.6592   22.2469 C.ar    1  UNL1       -0.0003
     29 C           7.1879   -3.2838   21.0072 C.ar    1  UNL1       -0.0001
     30 C           6.5682   -2.9977   19.6714 C.ar    1  UNL1        0.0035
     31 C           5.3802   -2.0871   19.5753 C.ar    1  UNL1        0.0675
     32 C           4.7605   -1.8010   18.2396 C.3     1  UNL1        0.4183
     33 F           4.1408   -1.5150   16.9039 F       1  UNL1       -0.1659
     34 F           3.8169   -2.9512   18.4311 F       1  UNL1       -0.1659
     35 F           5.7041   -0.6508   18.0482 F       1  UNL1       -0.1659
@<TRIPOS>UNITY_ATOM_ATTR
24 1
charge -1
@<TRIPOS>BOND
     1    19    20    1
     2    20    21    2
     3    20    22    2
     4    20    13    1
     5    13    14   ar
     6    14    15   ar
     7    15    16   ar
     8    16     1    1
     9     1     2   am
    10     2     3    2
    11     2     4   am
    12     4     5    1
    13     6     5    1
    14     6     7    1
    15     7     8    1
    16     8    26    1
    17    26    27   ar
    18    27    28   ar
    19    28    29   ar
    20    29    30   ar
    21    30    31   ar
    22    31    32    1
    23    32    33    1
    24    32    34    1
    25    32    35    1
    26     8     9    1
    27    10     9    1
    28    10    11    1
    29    16    17   ar
    30    17    23    1
    31    23    24   ar
    32    23    25   ar
    33    17    18   ar
    34    18    13   ar
    35    11     4    1
    36    10     6    1
    37    31    26   ar
    38     1    12    1
@<TRIPOS>MOLECULE
*****
 35 38 0 0 0
SMALL
GASTEIGER

@<TRIPOS>ATOM
      1 N           4.3761   -1.1155   28.3470 N.am    1  UNL1       -0.2681
      2 C           4.7631    0.0390   27.4710 C.2     1  UNL1        0.3077
      3 O           5.2869    1.3035   28.0846 O.2     1  UNL1       -0.2522
      4 N           4.6261   -0.0711   25.9813 N.am    1  UNL1       -0.2640
      5 C           4.1202   -1.2656   25.2283 C.3     1  UNL1        0.0950
      6 C           4.1525   -0.9387   23.7647 C.3     1  UNL1        0.0219
      7 C           3.8597   -1.4749   22.3947 C.3     1  UNL1        0.0061
      8 C           4.2046   -0.4097   21.3965 C.3     1  UNL1        0.0224
      9 C           4.7106    0.7849   22.1496 C.3     1  UNL1        0.0061
     10 C           4.6783    0.4579   23.6132 C.3     1  UNL1        0.0219
     11 C           4.9710    0.9942   24.9831 C.3     1  UNL1        0.0950
     12 H           4.0323   -1.9454   27.9443 H       1  UNL1        0.1564
     13 C           4.7870   -0.7857   32.8160 C.ar    1  UNL1        0.1058
     14 C           5.9510   -1.2426   31.9876 C.ar    1  UNL1        0.0196
     15 C           5.8140   -1.3526   30.4979 C.ar    1  UNL1        0.0161
     16 C           4.5131   -1.0055   29.8367 C.ar    1  UNL1        0.0527
     17 C           3.3491   -0.5486   30.6652 C.ar    1  UNL1        0.0288
     18 C           3.4861   -0.4386   32.1549 C.ar    1  UNL1        0.0207
     19 C           5.0610   -0.5659   35.7954 C.3     1  UNL1        0.1816
     20 S           4.9241   -0.6757   34.3057 S.O2    1  UNL1        0.0105
     21 O           3.9387   -1.7933   34.4788 O.2     1  UNL1       -0.1686
     22 O           5.9094    0.4418   34.1327 O.2     1  UNL1       -0.1686
     23 C           2.0482   -0.2015   30.0040 C.2     1  UNL1        0.0741
     24 O           1.6366   -0.9034   28.7438 O.co2   1  UNL1       -0.5446
     25 O           1.1588    0.8474   30.6030 O.co2   1  UNL1       -0.5446
     26 C           4.0677   -0.5197   19.9069 C.ar    1  UNL1       -0.0186
     27 C           5.2298   -0.9825   19.0790 C.ar    1  UNL1       -0.0043
     28 C           5.0929   -1.0925   17.5893 C.ar    1  UNL1       -0.0003
     29 C           3.7939   -0.7398   16.9275 C.ar    1  UNL1       -0.0001
     30 C           2.6317   -0.2770   17.7554 C.ar    1  UNL1        0.0035
     31 C           2.7686   -0.1670   19.2450 C.ar    1  UNL1        0.0675
     32 C           1.6065    0.2958   20.0729 C.3     1  UNL1        0.4183
     33 F           0.4445    0.7586   20.9008 F       1  UNL1       -0.1659
     34 F           2.0884    1.7116   19.9579 F       1  UNL1       -0.1659
     35 F           1.1247   -1.1200   20.1879 F       1  UNL1       -0.1659
@<TRIPOS>UNITY_ATOM_ATTR
24 1
charge -1
@<TRIPOS>BOND
     1    19    20    1
     2    20    21    2
     3    20    22    2
     4    20    13    1
     5    13    14   ar
     6    14    15   ar
     7    15    16   ar
     8    16     1    1
     9     1     2   am
    10     2     3    2
    11     2     4   am
    12     4     5    1
    13     6     5    1
    14     6     7    1
    15     7     8    1
    16     8    26    1
    17    26    27   ar
    18    27    28   ar
    19    28    29   ar
    20    29    30   ar
    21    30    31   ar
    22    31    32    1
    23    32    33    1
    24    32    34    1
    25    32    35    1
    26     8     9    1
    27    10     9    1
    28    10    11    1
    29    16    17   ar
    30    17    23    1
    31    23    24   ar
    32    23    25   ar
    33    17    18   ar
    34    18    13   ar
    35    11     4    1
    36    10     6    1
    37    31    26   ar
    38     1    12    1
@<TRIPOS>MOLECULE
*****
 35 38 0 0 0
SMALL
GASTEIGER

@<TRIPOS>ATOM
      1 N           2.1729    1.7936   27.7691 N.am    1  UNL1       -0.2681
      2 C           1.4620    1.8496   26.4494 C.2     1  UNL1        0.3077
      3 O           0.2462    2.7132   26.2887 O.2     1  UNL1       -0.2522
      4 N           1.9670    1.0421   25.2906 N.am    1  UNL1       -0.2640
      5 C           3.1638    0.1380   25.3009 C.3     1  UNL1        0.0950
      6 C           3.3003   -0.4659   23.9347 C.3     1  UNL1        0.0219
      7 C           4.1243   -1.3980   23.0966 C.3     1  UNL1        0.0061
      8 C           3.5211   -1.4431   21.7240 C.3     1  UNL1        0.0224
      9 C           2.3243   -0.5389   21.7137 C.3     1  UNL1        0.0061
     10 C           2.1878    0.0650   23.0799 C.3     1  UNL1        0.0219
     11 C           1.3638    0.9971   23.9180 C.3     1  UNL1        0.0950
     12 H           2.9710    1.2268   27.8746 H       1  UNL1        0.1564
     13 C           0.6583    4.2161   31.2457 C.ar    1  UNL1        0.1058
     14 C           1.5329    4.8572   30.2093 C.ar    1  UNL1        0.0196
     15 C           2.0377    4.0496   29.0505 C.ar    1  UNL1        0.0161
     16 C           1.6680    2.6011   28.9280 C.ar    1  UNL1        0.0527
     17 C           0.7935    1.9600   29.9644 C.ar    1  UNL1        0.0288
     18 C           0.2886    2.7675   31.1233 C.ar    1  UNL1        0.0207
     19 C          -0.3515    5.8313   33.5634 C.3     1  UNL1        0.1816
     20 S           0.1534    5.0236   32.4046 S.O2    1  UNL1        0.0105
     21 O          -0.5820    5.9241   31.4567 O.2     1  UNL1       -0.1686
     22 O           0.8888    4.1233   33.3524 O.2     1  UNL1       -0.1686
     23 C           0.4237    0.5115   29.8419 C.2     1  UNL1        0.0741
     24 O           1.4939   -0.5396   29.8567 O.co2   1  UNL1       -0.5446
     25 O          -1.0161    0.1139   29.7047 O.co2   1  UNL1       -0.5446
     26 C           4.0261   -2.2505   20.5652 C.ar    1  UNL1       -0.0186
     27 C           3.9111   -3.7460   20.5862 C.ar    1  UNL1       -0.0043
     28 C           4.4161   -4.5535   19.4274 C.ar    1  UNL1       -0.0003
     29 C           5.0360   -3.8656   18.2474 C.ar    1  UNL1       -0.0001
     30 C           5.1510   -2.3701   18.2263 C.ar    1  UNL1        0.0035
     31 C           4.6461   -1.5626   19.3851 C.ar    1  UNL1        0.0675
     32 C           4.7611   -0.0672   19.3640 C.3     1  UNL1        0.4183
     33 F           4.8761    1.4282   19.3429 F       1  UNL1       -0.1659
     34 F           6.0483   -0.1554   20.1290 F       1  UNL1       -0.1659
     35 F           3.4739    0.0210   18.5990 F       1  UNL1       -0.1659
@<TRIPOS>UNITY_ATOM_ATTR
24 1
charge -1
@<TRIPOS>BOND
     1    19    20    1
     2    20    21    2
     3    20    22    2
     4    20    13    1
     5    13    14   ar
     6    14    15   ar
     7    15    16   ar
     8    16     1    1
     9     1     2   am
    10     2     3    2
    11     2     4   am
    12     4     5    1
    13     6     5    1
    14     6     7    1
    15     7     8    1
    16     8    26    1
    17    26    27   ar
    18    27    28   ar
    19    28    29   ar
    20    29    30   ar
    21    30    31   ar
    22    31    32    1
    23    32    33    1
    24    32    34    1
    25    32    35    1
    26     8     9    1
    27    10     9    1
    28    10    11    1
    29    16    17   ar
    30    17    23    1
    31    23    24   ar
    32    23    25   ar
    33    17    18   ar
    34    18    13   ar
    35    11     4    1
    36    10     6    1
    37    31    26   ar
    38     1    12    1
@<TRIPOS>MOLECULE
*****
 35 38 0 0 0
SMALL
GASTEIGER

@<TRIPOS>ATOM
      1 N           3.8908   -0.7451   28.5493 N.am    1  UNL1       -0.2681
      2 C           4.9041   -0.1247   27.6337 C.2     1  UNL1        0.3077
      3 O           6.0821    0.6074   28.2048 O.2     1  UNL1       -0.2522
      4 N           4.7393   -0.2364   26.1470 N.am    1  UNL1       -0.2640
      5 C           3.6189   -0.9338   25.4340 C.3     1  UNL1        0.0950
      6 C           3.8532   -0.7987   23.9586 C.3     1  UNL1        0.0219
      7 C           3.3055   -1.1463   22.6061 C.3     1  UNL1        0.0061
      8 C           4.2322   -0.5802   21.5712 C.3     1  UNL1        0.0224
      9 C           5.3527    0.1172   22.2843 C.3     1  UNL1        0.0061
     10 C           5.1184   -0.0179   23.7597 C.3     1  UNL1        0.0219
     11 C           5.6660    0.3296   25.1122 C.3     1  UNL1        0.0950
     12 H           3.1176   -1.2256   28.1744 H       1  UNL1        0.1564
     13 C           4.3850   -0.4102   33.0095 C.ar    1  UNL1        0.1058
     14 C           5.3022   -1.2943   32.2176 C.ar    1  UNL1        0.0196
     15 C           5.1374   -1.4059   30.7309 C.ar    1  UNL1        0.0161
     16 C           4.0555   -0.6334   30.0361 C.ar    1  UNL1        0.0527
     17 C           3.1383    0.2507   30.8280 C.ar    1  UNL1        0.0288
     18 C           3.3031    0.3623   32.3147 C.ar    1  UNL1        0.0207
     19 C           4.7145   -0.1870   35.9830 C.3     1  UNL1        0.1816
     20 S           4.5498   -0.2986   34.4962 S.O2    1  UNL1        0.0105
     21 O           4.3178   -1.7742   34.6327 O.2     1  UNL1       -0.1686
     22 O           4.7817    1.1770   34.3598 O.2     1  UNL1       -0.1686
     23 C           2.0564    1.0232   30.1332 C.2     1  UNL1        0.0741
     24 O           2.3972    1.9194   28.9796 O.co2   1  UNL1       -0.5446
     25 O           0.6336    0.8994   30.5920 O.co2   1  UNL1       -0.5446
     26 C           4.0675   -0.6919   20.0846 C.ar    1  UNL1       -0.0186
     27 C           3.3739    0.3983   19.3228 C.ar    1  UNL1       -0.0043
     28 C           3.2091    0.2867   17.8360 C.ar    1  UNL1       -0.0003
     29 C           3.7379   -0.9153   17.1111 C.ar    1  UNL1       -0.0001
     30 C           4.4315   -2.0056   17.8729 C.ar    1  UNL1        0.0035
     31 C           4.5963   -1.8939   19.3595 C.ar    1  UNL1        0.0675
     32 C           5.2898   -2.9842   20.1213 C.3     1  UNL1        0.4183
     33 F           5.9834   -4.0744   20.8831 F       1  UNL1       -0.1659
     34 F           3.9743   -3.6727   20.3337 F       1  UNL1       -0.1659
     35 F           6.6054   -2.2956   19.9089 F       1  UNL1       -0.1659
@<TRIPOS>UNITY_ATOM_ATTR
24 1
charge -1
@<TRIPOS>BOND
     1    19    20    1
     2    20    21    2
     3    20    22    2
     4    20    13    1
     5    13    14   ar
     6    14    15   ar
     7    15    16   ar
     8    16     1    1
     9     1     2   am
    10     2     3    2
    11     2     4   am
    12     4     5    1
    13     6     5    1
    14     6     7    1
    15     7     8    1
    16     8    26    1
    17    26    27   ar
    18    27    28   ar
    19    28    29   ar
    20    29    30   ar
    21    30    31   ar
    22    31    32    1
    23    32    33    1
    24    32    34    1
    25    32    35    1
    26     8     9    1
    27    10     9    1
    28    10    11    1
    29    16    17   ar
    30    17    23    1
    31    23    24   ar
    32    23    25   ar
    33    17    18   ar
    34    18    13   ar
    35    11     4    1
    36    10     6    1
    37    31    26   ar
    38     1    12    1
@<TRIPOS>MOLECULE
*****
 35 38 0 0 0
SMALL
GASTEIGER

@<TRIPOS>ATOM
      1 N          -2.4897    2.5454   20.3928 N.am    1  UNL1       -0.2681
      2 C          -1.1122    3.0993   20.1791 C.2     1  UNL1        0.3077
      3 O          -0.9254    4.5641   19.9154 O.2     1  UNL1       -0.2522
      4 N           0.0785    2.1884   20.2290 N.am    1  UNL1       -0.2640
      5 C           0.0477    0.7101   20.4814 C.3     1  UNL1        0.0950
      6 C           1.4592    0.2040   20.4437 C.3     1  UNL1        0.0219
      7 C           2.3125   -1.0225   20.5763 C.3     1  UNL1        0.0061
      8 C           3.7431   -0.6151   20.3827 C.3     1  UNL1        0.0224
      9 C           3.7739    0.8633   20.1303 C.3     1  UNL1        0.0061
     10 C           2.3624    1.3694   20.1680 C.3     1  UNL1        0.0219
     11 C           1.5090    2.5959   20.0354 C.3     1  UNL1        0.0950
     12 H          -2.6123    1.5840   20.5659 H       1  UNL1        0.1564
     13 C          -6.0619    5.2779   20.2429 C.ar    1  UNL1        0.1058
     14 C          -5.4558    4.7655   18.9702 C.ar    1  UNL1        0.0196
     15 C          -4.2651    3.8546   19.0202 C.ar    1  UNL1        0.0161
     16 C          -3.6805    3.4563   20.3429 C.ar    1  UNL1        0.0527
     17 C          -4.2866    3.9687   21.6156 C.ar    1  UNL1        0.0288
     18 C          -5.4774    4.8796   21.5656 C.ar    1  UNL1        0.0207
     19 C          -8.4435    7.0996   20.1430 C.3     1  UNL1        0.1816
     20 S          -7.2527    6.1887   20.1929 S.O2    1  UNL1        0.0105
     21 O          -7.7384    5.6253   21.4954 O.2     1  UNL1       -0.1686
     22 O          -6.7670    6.7522   18.8904 O.2     1  UNL1       -0.1686
     23 C          -3.7021    3.5704   22.9384 C.2     1  UNL1        0.0741
     24 O          -2.2465    3.8037   23.2159 O.co2   1  UNL1       -0.5446
     25 O          -4.5731    2.9389   23.9836 O.co2   1  UNL1       -0.5446
     26 C           4.9338   -1.5259   20.4326 C.ar    1  UNL1       -0.0186
     27 C           5.6943   -1.8356   19.1774 C.ar    1  UNL1       -0.0043
     28 C           6.8851   -2.7465   19.2273 C.ar    1  UNL1       -0.0003
     29 C           7.3152   -3.3477   20.5325 C.ar    1  UNL1       -0.0001
     30 C           6.5546   -3.0380   21.7878 C.ar    1  UNL1        0.0035
     31 C           5.3640   -2.1271   21.7378 C.ar    1  UNL1        0.0675
     32 C           4.6034   -1.8174   22.9931 C.3     1  UNL1        0.4183
     33 F           3.8429   -1.5077   24.2483 F       1  UNL1       -0.1659
     34 F           5.3225   -0.5058   23.1052 F       1  UNL1       -0.1659
     35 F           3.8843   -3.1290   22.8810 F       1  UNL1       -0.1659
@<TRIPOS>UNITY_ATOM_ATTR
24 1
charge -1
@<TRIPOS>BOND
     1    19    20    1
     2    20    21    2
     3    20    22    2
     4    20    13    1
     5    13    14   ar
     6    14    15   ar
     7    15    16   ar
     8    16     1    1
     9     1     2   am
    10     2     3    2
    11     2     4   am
    12     4     5    1
    13     6     5    1
    14     6     7    1
    15     7     8    1
    16     8    26    1
    17    26    27   ar
    18    27    28   ar
    19    28    29   ar
    20    29    30   ar
    21    30    31   ar
    22    31    32    1
    23    32    33    1
    24    32    34    1
    25    32    35    1
    26     8     9    1
    27    10     9    1
    28    10    11    1
    29    16    17   ar
    30    17    23    1
    31    23    24   ar
    32    23    25   ar
    33    17    18   ar
    34    18    13   ar
    35    11     4    1
    36    10     6    1
    37    31    26   ar
    38     1    12    1
