@<TRIPOS>MOLECULE
*****
 36 39 0 0 0
SMALL
GASTEIGER

@<TRIPOS>ATOM
      1 N           2.0763    1.9227   23.7799 N.am    1  UNL1       -0.2680
      2 C           2.1315    0.9577   22.6329 C.2     1  UNL1        0.3092
      3 O           0.8685    0.5516   21.9329 O.2     1  UNL1       -0.2521
      4 N           3.4498    0.3988   22.1858 N.am    1  UNL1       -0.2533
      5 H           2.9052    2.1892   24.2394 H       1  UNL1        0.1564
      6 H           4.2787    0.6653   22.6453 H       1  UNL1        0.1578
      7 C          -1.8785    3.5994   25.1211 C.ar    1  UNL1        0.0016
      8 C          -1.1970    4.1629   23.9095 C.ar    1  UNL1        0.0013
      9 C           0.1212    3.6040   23.4625 C.ar    1  UNL1        0.0147
     10 C           0.7580    2.4816   24.2270 C.ar    1  UNL1        0.0516
     11 C           0.0766    1.9180   25.4386 C.ar    1  UNL1        0.0147
     12 C          -1.2417    2.4769   25.8856 C.ar    1  UNL1        0.0013
     13 C          -5.8332    5.2761   26.4623 C.ar    1  UNL1        0.2250
     14 C          -5.7245    4.5782   25.1390 C.ar    1  UNL1        0.0577
     15 C          -4.4062    4.0193   24.6920 C.ar    1  UNL1        0.0063
     16 C          -3.1967    4.1583   25.5682 C.ar    1  UNL1        0.0194
     17 C          -3.3055    4.8562   26.8914 C.ar    1  UNL1        0.1020
     18 N          -4.6237    5.4151   27.3385 N.ar    1  UNL1       -0.2101
     19 C          -7.3587    6.2091   28.3470 C.3     1  UNL1        0.2542
     20 O          -7.1514    5.8350   26.9093 O.3     1  UNL1       -0.4561
     21 C           3.5050   -0.5662   21.0387 C.ar    1  UNL1        0.1380
     22 C           3.9837   -1.9863   21.1035 C.ar    1  UNL1        0.0509
     23 C           3.8658   -2.5782   19.7303 C.ar    1  UNL1        0.0810
     24 N           3.3142   -1.5240   18.8168 N.ar    1  UNL1       -0.1683
     25 N           3.0912   -0.2805   19.6255 N.ar    1  UNL1       -0.2162
     26 C           2.5496    1.0203   19.1113 C.ar    1  UNL1        0.0842
     27 C           1.0992    1.1373   18.7472 C.ar    1  UNL1        0.0189
     28 C           0.5575    2.4381   18.2329 C.ar    1  UNL1       -0.0027
     29 C           1.4663    3.6220   18.0827 C.ar    1  UNL1       -0.0218
     30 C           0.9246    4.9228   17.5685 C.3     1  UNL1        0.0310
     31 C           2.9168    3.5051   18.4468 C.ar    1  UNL1       -0.0027
     32 C           3.4583    2.2042   18.9611 C.ar    1  UNL1        0.0189
     33 C           4.2347   -3.9786   19.3392 C.3     1  UNL1        0.0372
     34 C           5.6651   -3.7013   19.6956 C.3     1  UNL1        0.0060
     35 C           2.8043   -4.2559   18.9827 C.3     1  UNL1        0.0060
     36 C           4.6036   -5.3790   18.9480 C.3     1  UNL1        0.0060
@<TRIPOS>BOND
     1    19    20    1
     2    20    13    1
     3    13    14   ar
     4    14    15   ar
     5    15    16   ar
     6    16     7    1
     7     7     8   ar
     8     8     9   ar
     9     9    10   ar
    10    10     1    1
    11     1     2   am
    12     2     3    2
    13     2     4   am
    14     4    21    1
    15    21    22   ar
    16    22    23   ar
    17    23    33    1
    18    33    34    1
    19    33    35    1
    20    33    36    1
    21    23    24   ar
    22    24    25   ar
    23    25    26    1
    24    26    27   ar
    25    27    28   ar
    26    28    29   ar
    27    29    30    1
    28    29    31   ar
    29    31    32   ar
    30    10    11   ar
    31    11    12   ar
    32    16    17   ar
    33    17    18   ar
    34    18    13   ar
    35    12     7   ar
    36    25    21   ar
    37    32    26   ar
    38     1     5    1
    39     4     6    1
@<TRIPOS>MOLECULE
*****
 36 39 0 0 0
SMALL
GASTEIGER

@<TRIPOS>ATOM
      1 N           0.7915    2.7492   23.4372 N.am    1  UNL1       -0.2680
      2 C           1.2148    1.6743   22.4805 C.2     1  UNL1        0.3092
      3 O           0.1906    0.9770   21.6349 O.2     1  UNL1       -0.2521
      4 N           2.6622    1.2965   22.3693 N.am    1  UNL1       -0.2533
      5 H           1.4637    3.2068   23.9921 H       1  UNL1        0.1564
      6 H           3.3344    1.7542   22.9243 H       1  UNL1        0.1578
      7 C          -3.5507    3.8823   23.7706 C.ar    1  UNL1        0.0016
      8 C          -2.8108    3.3842   24.9766 C.ar    1  UNL1        0.0013
      9 C          -1.3634    3.0065   24.8654 C.ar    1  UNL1        0.0147
     10 C          -0.6559    3.1269   23.5483 C.ar    1  UNL1        0.0516
     11 C          -1.3958    3.6250   22.3424 C.ar    1  UNL1        0.0147
     12 C          -2.8432    4.0027   22.4535 C.ar    1  UNL1        0.0013
     13 C          -7.8929    5.0154   24.1041 C.ar    1  UNL1        0.2250
     14 C          -7.4108    4.2334   22.9184 C.ar    1  UNL1        0.0577
     15 C          -5.9634    3.8557   22.8072 C.ar    1  UNL1        0.0063
     16 C          -4.9981    4.2600   23.8818 C.ar    1  UNL1        0.0194
     17 C          -5.4802    5.0420   25.0675 C.ar    1  UNL1        0.1020
     18 N          -6.9276    5.4197   25.1787 N.ar    1  UNL1       -0.2101
     19 C          -9.7232    6.7733   24.6609 C.3     1  UNL1        0.2542
     20 O          -9.3403    5.3932   24.2153 O.3     1  UNL1       -0.4561
     21 C           3.0855    0.2215   21.4125 C.ar    1  UNL1        0.1380
     22 C           3.2379   -1.2355   21.7347 C.ar    1  UNL1        0.0509
     23 C           3.6772   -1.9426   20.4869 C.ar    1  UNL1        0.0810
     24 N           3.7963   -0.9226   19.3935 N.ar    1  UNL1       -0.1683
     25 N           3.4305    0.4149   19.9656 N.ar    1  UNL1       -0.2162
     26 C           3.4129    1.7172   19.2214 C.ar    1  UNL1        0.0842
     27 C           4.6941    2.3061   18.7100 C.ar    1  UNL1        0.0189
     28 C           4.6766    3.6084   17.9658 C.ar    1  UNL1       -0.0027
     29 C           3.3777    4.3217   17.7330 C.ar    1  UNL1       -0.0218
     30 C           3.3601    5.6240   16.9888 C.3     1  UNL1        0.0310
     31 C           2.0964    3.7328   18.2445 C.ar    1  UNL1       -0.0027
     32 C           2.1141    2.4305   18.9886 C.ar    1  UNL1        0.0189
     33 C           3.9497   -3.4118   20.3555 C.3     1  UNL1        0.0372
     34 C           3.4399   -3.3802   18.9452 C.3     1  UNL1        0.0060
     35 C           4.4595   -3.4434   21.7659 C.3     1  UNL1        0.0060
     36 C           4.2221   -4.8810   20.2242 C.3     1  UNL1        0.0060
@<TRIPOS>BOND
     1    19    20    1
     2    20    13    1
     3    13    14   ar
     4    14    15   ar
     5    15    16   ar
     6    16     7    1
     7     7     8   ar
     8     8     9   ar
     9     9    10   ar
    10    10     1    1
    11     1     2   am
    12     2     3    2
    13     2     4   am
    14     4    21    1
    15    21    22   ar
    16    22    23   ar
    17    23    33    1
    18    33    34    1
    19    33    35    1
    20    33    36    1
    21    23    24   ar
    22    24    25   ar
    23    25    26    1
    24    26    27   ar
    25    27    28   ar
    26    28    29   ar
    27    29    30    1
    28    29    31   ar
    29    31    32   ar
    30    10    11   ar
    31    11    12   ar
    32    16    17   ar
    33    17    18   ar
    34    18    13   ar
    35    12     7   ar
    36    25    21   ar
    37    32    26   ar
    38     1     5    1
    39     4     6    1
@<TRIPOS>MOLECULE
*****
 36 39 0 0 0
SMALL
GASTEIGER

@<TRIPOS>ATOM
      1 N           0.8915    2.6414   20.5971 N.am    1  UNL1       -0.2680
      2 C           1.4491    1.2636   20.7990 C.2     1  UNL1        0.3092
      3 O           0.6202    0.2104   21.4726 O.2     1  UNL1       -0.2521
      4 N           2.8355    0.9391   20.3274 N.am    1  UNL1       -0.2533
      5 H           1.4355    3.3327   20.1550 H       1  UNL1        0.1564
      6 H           3.3795    1.6303   19.8853 H       1  UNL1        0.1578
      7 C          -3.2678    3.6152   22.0120 C.ar    1  UNL1        0.0016
      8 C          -3.0259    3.2764   20.5709 C.ar    1  UNL1        0.0013
      9 C          -1.6394    2.9519   20.0993 C.ar    1  UNL1        0.0147
     10 C          -0.4949    2.9660   21.0687 C.ar    1  UNL1        0.0516
     11 C          -0.7369    3.3047   22.5098 C.ar    1  UNL1        0.0147
     12 C          -2.1233    3.6293   22.9814 C.ar    1  UNL1        0.0013
     13 C          -7.4271    4.5889   23.4268 C.ar    1  UNL1        0.2250
     14 C          -6.3275    4.3718   24.4236 C.ar    1  UNL1        0.0577
     15 C          -4.9410    4.0472   23.9519 C.ar    1  UNL1        0.0063
     16 C          -4.6543    3.9397   22.4836 C.ar    1  UNL1        0.0194
     17 C          -5.7539    4.1569   21.4868 C.ar    1  UNL1        0.1020
     18 N          -7.1404    4.4815   21.9584 N.ar    1  UNL1       -0.2101
     19 C          -9.0163    5.9049   25.0056 C.3     1  UNL1        0.2542
     20 O          -8.8136    4.9135   23.8984 O.3     1  UNL1       -0.4561
     21 C           3.3931   -0.4388   20.5293 C.ar    1  UNL1        0.1380
     22 C           3.5229   -1.5003   19.4775 C.ar    1  UNL1        0.0509
     23 C           4.1287   -2.7146   20.1167 C.ar    1  UNL1        0.0810
     24 N           4.3733   -2.4035   21.5636 N.ar    1  UNL1       -0.1683
     25 N           3.9187   -0.9970   21.8186 N.ar    1  UNL1       -0.2162
     26 C           3.9790   -0.2754   23.1322 C.ar    1  UNL1        0.0842
     27 C           2.8429   -0.3915   24.1046 C.ar    1  UNL1        0.0189
     28 C           2.9033    0.3301   25.4183 C.ar    1  UNL1       -0.0027
     29 C           4.0998    1.1678   25.7595 C.ar    1  UNL1       -0.0218
     30 C           4.1602    1.8894   27.0732 C.3     1  UNL1        0.0310
     31 C           5.2361    1.2840   24.7871 C.ar    1  UNL1       -0.0027
     32 C           5.1756    0.5623   23.4735 C.ar    1  UNL1        0.0189
     33 C           4.4360   -4.0121   19.4296 C.3     1  UNL1        0.0372
     34 C           5.8845   -3.8587   19.7878 C.3     1  UNL1        0.0060
     35 C           2.9874   -4.1654   19.0714 C.3     1  UNL1        0.0060
     36 C           4.7432   -5.3096   18.7425 C.3     1  UNL1        0.0060
@<TRIPOS>BOND
     1    19    20    1
     2    20    13    1
     3    13    14   ar
     4    14    15   ar
     5    15    16   ar
     6    16     7    1
     7     7     8   ar
     8     8     9   ar
     9     9    10   ar
    10    10     1    1
    11     1     2   am
    12     2     3    2
    13     2     4   am
    14     4    21    1
    15    21    22   ar
    16    22    23   ar
    17    23    33    1
    18    33    34    1
    19    33    35    1
    20    33    36    1
    21    23    24   ar
    22    24    25   ar
    23    25    26    1
    24    26    27   ar
    25    27    28   ar
    26    28    29   ar
    27    29    30    1
    28    29    31   ar
    29    31    32   ar
    30    10    11   ar
    31    11    12   ar
    32    16    17   ar
    33    17    18   ar
    34    18    13   ar
    35    12     7   ar
    36    25    21   ar
    37    32    26   ar
    38     1     5    1
    39     4     6    1
@<TRIPOS>MOLECULE
*****
 36 39 0 0 0
SMALL
GASTEIGER

@<TRIPOS>ATOM
      1 N           4.4024    0.8252   24.6488 N.am    1  UNL1       -0.2680
      2 C           4.7332   -0.5792   25.0590 C.2     1  UNL1        0.3092
      3 O           3.6640   -1.4674   25.6230 O.2     1  UNL1       -0.2521
      4 N           6.1332   -1.0954   24.9052 N.am    1  UNL1       -0.2533
      5 H           5.1042    1.4081   24.2786 H       1  UNL1        0.1564
      6 H           6.8349   -0.5125   24.5350 H       1  UNL1        0.1578
      7 C           0.2026    2.3739   25.1101 C.ar    1  UNL1        0.0016
      8 C           0.5774    1.5718   23.8993 C.ar    1  UNL1        0.0013
      9 C           1.9774    1.0556   23.7455 C.ar    1  UNL1        0.0147
     10 C           3.0025    1.3414   24.8025 C.ar    1  UNL1        0.0516
     11 C           2.6277    2.1435   26.0133 C.ar    1  UNL1        0.0147
     12 C           1.2277    2.6598   26.1671 C.ar    1  UNL1        0.0013
     13 C          -3.9972    3.9227   25.5714 C.ar    1  UNL1        0.2250
     14 C          -3.4084    3.7477   24.2030 C.ar    1  UNL1        0.0577
     15 C          -2.0085    3.2315   24.0492 C.ar    1  UNL1        0.0063
     16 C          -1.1973    2.8902   25.2639 C.ar    1  UNL1        0.0194
     17 C          -1.7861    3.0651   26.6323 C.ar    1  UNL1        0.1020
     18 N          -3.1861    3.5813   26.7861 N.ar    1  UNL1       -0.2101
     19 C          -5.7018    5.4848   26.7563 C.3     1  UNL1        0.2542
     20 O          -5.3972    4.4389   25.7252 O.3     1  UNL1       -0.4561
     21 C           6.4639   -2.4999   25.3154 C.ar    1  UNL1        0.1380
     22 C           6.8855   -2.9422   26.6853 C.ar    1  UNL1        0.0509
     23 C           7.1133   -4.4242   26.6443 C.ar    1  UNL1        0.0810
     24 N           6.8325   -4.8979   25.2490 N.ar    1  UNL1       -0.1683
     25 N           6.4311   -3.7086   24.4277 N.ar    1  UNL1       -0.2162
     26 C           6.0619   -3.7251   22.9740 C.ar    1  UNL1        0.0842
     27 C           4.6289   -3.5607   22.5622 C.ar    1  UNL1        0.0189
     28 C           4.2596   -3.5772   21.1085 C.ar    1  UNL1       -0.0027
     29 C           5.3234   -3.7581   20.0664 C.ar    1  UNL1       -0.0218
     30 C           4.9541   -3.7746   18.6127 C.3     1  UNL1        0.0310
     31 C           6.7564   -3.9225   20.4782 C.ar    1  UNL1       -0.0027
     32 C           7.1256   -3.9060   21.9320 C.ar    1  UNL1        0.0189
     33 C           7.5459   -5.2820   27.7963 C.3     1  UNL1        0.0372
     34 C           8.9115   -5.4092   27.1887 C.3     1  UNL1        0.0060
     35 C           6.1804   -5.1548   28.4038 C.3     1  UNL1        0.0060
     36 C           7.9786   -6.1398   28.9483 C.3     1  UNL1        0.0060
@<TRIPOS>BOND
     1    19    20    1
     2    20    13    1
     3    13    14   ar
     4    14    15   ar
     5    15    16   ar
     6    16     7    1
     7     7     8   ar
     8     8     9   ar
     9     9    10   ar
    10    10     1    1
    11     1     2   am
    12     2     3    2
    13     2     4   am
    14     4    21    1
    15    21    22   ar
    16    22    23   ar
    17    23    33    1
    18    33    34    1
    19    33    35    1
    20    33    36    1
    21    23    24   ar
    22    24    25   ar
    23    25    26    1
    24    26    27   ar
    25    27    28   ar
    26    28    29   ar
    27    29    30    1
    28    29    31   ar
    29    31    32   ar
    30    10    11   ar
    31    11    12   ar
    32    16    17   ar
    33    17    18   ar
    34    18    13   ar
    35    12     7   ar
    36    25    21   ar
    37    32    26   ar
    38     1     5    1
    39     4     6    1
@<TRIPOS>MOLECULE
*****
 36 39 0 0 0
SMALL
GASTEIGER

@<TRIPOS>ATOM
      1 N           4.1975    2.1732   23.3384 N.am    1  UNL1       -0.2680
      2 C           3.0223    2.0663   22.4124 C.2     1  UNL1        0.3092
      3 O           1.7667    1.3845   22.8696 O.2     1  UNL1       -0.2521
      4 N           3.1025    2.6411   21.0292 N.am    1  UNL1       -0.2533
      5 H           5.0215    2.6206   23.0383 H       1  UNL1        0.1564
      6 H           3.9265    3.0886   20.7292 H       1  UNL1        0.1578
      7 C           3.9567    0.4487   27.4878 C.ar    1  UNL1        0.0016
      8 C           4.4924   -0.3826   26.3601 C.ar    1  UNL1        0.0013
      9 C           4.5726    0.1922   24.9769 C.ar    1  UNL1        0.0147
     10 C           4.1172    1.5983   24.7215 C.ar    1  UNL1        0.0516
     11 C           3.5815    2.4297   25.8493 C.ar    1  UNL1        0.0147
     12 C           3.5013    1.8548   27.2325 C.ar    1  UNL1        0.0013
     13 C           3.7159   -1.2758   31.6373 C.ar    1  UNL1        0.2250
     14 C           5.0484   -1.1177   30.9670 C.ar    1  UNL1        0.0577
     15 C           5.1287   -0.5429   29.5838 C.ar    1  UNL1        0.0063
     16 C           3.8764   -0.1262   28.8710 C.ar    1  UNL1        0.0194
     17 C           2.5439   -0.2843   29.5413 C.ar    1  UNL1        0.1020
     18 N           2.4637   -0.8591   30.9245 N.ar    1  UNL1       -0.2101
     19 C           4.5530   -1.3485   34.0957 C.3     1  UNL1        0.2542
     20 O           3.6357   -1.8506   33.0205 O.3     1  UNL1       -0.4561
     21 C           1.9273    2.5342   20.1033 C.ar    1  UNL1        0.1380
     22 C           0.8392    3.5534   19.9382 C.ar    1  UNL1        0.0509
     23 C          -0.1267    3.0384   18.9127 C.ar    1  UNL1        0.0810
     24 N           0.3643    1.7008   18.4439 N.ar    1  UNL1       -0.1683
     25 N           1.6337    1.3892   19.1797 N.ar    1  UNL1       -0.2162
     26 C           2.4639    0.1501   19.0201 C.ar    1  UNL1        0.0842
     27 C           2.4178   -0.9236   20.0665 C.ar    1  UNL1        0.0189
     28 C           3.2480   -2.1627   19.9068 C.ar    1  UNL1       -0.0027
     29 C           4.1243   -2.3281   18.7007 C.ar    1  UNL1       -0.0218
     30 C           4.9545   -3.5671   18.5410 C.3     1  UNL1        0.0310
     31 C           4.1705   -1.2543   17.6541 C.ar    1  UNL1       -0.0027
     32 C           3.3402   -0.0153   17.8139 C.ar    1  UNL1        0.0189
     33 C          -1.3662    3.7381   18.4391 C.3     1  UNL1        0.0372
     34 C          -0.7579    3.8934   17.0768 C.3     1  UNL1        0.0060
     35 C          -1.9744    3.5827   19.8015 C.3     1  UNL1        0.0060
     36 C          -2.6056    4.4378   17.9655 C.3     1  UNL1        0.0060
@<TRIPOS>BOND
     1    19    20    1
     2    20    13    1
     3    13    14   ar
     4    14    15   ar
     5    15    16   ar
     6    16     7    1
     7     7     8   ar
     8     8     9   ar
     9     9    10   ar
    10    10     1    1
    11     1     2   am
    12     2     3    2
    13     2     4   am
    14     4    21    1
    15    21    22   ar
    16    22    23   ar
    17    23    33    1
    18    33    34    1
    19    33    35    1
    20    33    36    1
    21    23    24   ar
    22    24    25   ar
    23    25    26    1
    24    26    27   ar
    25    27    28   ar
    26    28    29   ar
    27    29    30    1
    28    29    31   ar
    29    31    32   ar
    30    10    11   ar
    31    11    12   ar
    32    16    17   ar
    33    17    18   ar
    34    18    13   ar
    35    12     7   ar
    36    25    21   ar
    37    32    26   ar
    38     1     5    1
    39     4     6    1
@<TRIPOS>MOLECULE
*****
 36 39 0 0 0
SMALL
GASTEIGER

@<TRIPOS>ATOM
      1 N           4.3521    1.1604   24.0104 N.am    1  UNL1       -0.2680
      2 C           4.6565   -0.2982   23.8379 C.2     1  UNL1        0.3092
      3 O           3.5572   -1.3124   23.9517 O.2     1  UNL1       -0.2521
      4 N           6.0602   -0.7426   23.5515 N.am    1  UNL1       -0.2533
      5 H           5.0736    1.8260   23.9357 H       1  UNL1        0.1564
      6 H           6.7818   -0.0770   23.4768 H       1  UNL1        0.1578
      7 C           0.1408    2.4937   24.8694 C.ar    1  UNL1        0.0016
      8 C           0.6134    2.3685   23.4513 C.ar    1  UNL1        0.0013
      9 C           2.0171    1.9240   23.1650 C.ar    1  UNL1        0.0147
     10 C           2.9483    1.6048   24.2967 C.ar    1  UNL1        0.0516
     11 C           2.4758    1.7300   25.7148 C.ar    1  UNL1        0.0147
     12 C           1.0721    2.1745   26.0012 C.ar    1  UNL1        0.0013
     13 C          -4.0704    3.8270   25.7284 C.ar    1  UNL1        0.2250
     14 C          -3.5847    3.7423   24.3118 C.ar    1  UNL1        0.0577
     15 C          -2.1810    3.2979   24.0255 C.ar    1  UNL1        0.0063
     16 C          -1.2629    2.9381   25.1558 C.ar    1  UNL1        0.0194
     17 C          -1.7486    3.0228   26.5724 C.ar    1  UNL1        0.1020
     18 N          -3.1523    3.4672   26.8588 N.ar    1  UNL1       -0.2101
     19 C          -5.7211    5.5882   26.6894 C.3     1  UNL1        0.2542
     20 O          -5.4741    4.2714   26.0148 O.3     1  UNL1       -0.4561
     21 C           6.3647   -2.2013   23.3790 C.ar    1  UNL1        0.1380
     22 C           6.9520   -3.1085   24.4192 C.ar    1  UNL1        0.0509
     23 C           7.0855   -4.4766   23.8191 C.ar    1  UNL1        0.0810
     24 N           6.5806   -4.4151   22.4079 N.ar    1  UNL1       -0.1683
     25 N           6.1352   -3.0088   22.1359 N.ar    1  UNL1       -0.2162
     26 C           5.5610   -2.4996   20.8472 C.ar    1  UNL1        0.0842
     27 C           6.4727   -2.1159   19.7196 C.ar    1  UNL1        0.0189
     28 C           5.8985   -1.6066   18.4308 C.ar    1  UNL1       -0.0027
     29 C           4.4125   -1.4810   18.2696 C.ar    1  UNL1       -0.0218
     30 C           3.8383   -0.9717   16.9808 C.3     1  UNL1        0.0310
     31 C           3.5006   -1.8647   19.3972 C.ar    1  UNL1       -0.0027
     32 C           4.0750   -2.3739   20.6859 C.ar    1  UNL1        0.0189
     33 C           7.6285   -5.6929   24.5089 C.3     1  UNL1        0.0372
     34 C           6.8926   -5.3122   25.7594 C.3     1  UNL1        0.0060
     35 C           8.3643   -6.0737   23.2585 C.3     1  UNL1        0.0060
     36 C           8.1715   -6.9092   25.1988 C.3     1  UNL1        0.0060
@<TRIPOS>BOND
     1    19    20    1
     2    20    13    1
     3    13    14   ar
     4    14    15   ar
     5    15    16   ar
     6    16     7    1
     7     7     8   ar
     8     8     9   ar
     9     9    10   ar
    10    10     1    1
    11     1     2   am
    12     2     3    2
    13     2     4   am
    14     4    21    1
    15    21    22   ar
    16    22    23   ar
    17    23    33    1
    18    33    34    1
    19    33    35    1
    20    33    36    1
    21    23    24   ar
    22    24    25   ar
    23    25    26    1
    24    26    27   ar
    25    27    28   ar
    26    28    29   ar
    27    29    30    1
    28    29    31   ar
    29    31    32   ar
    30    10    11   ar
    31    11    12   ar
    32    16    17   ar
    33    17    18   ar
    34    18    13   ar
    35    12     7   ar
    36    25    21   ar
    37    32    26   ar
    38     1     5    1
    39     4     6    1
@<TRIPOS>MOLECULE
*****
 36 39 0 0 0
SMALL
GASTEIGER

@<TRIPOS>ATOM
      1 N           1.9204    3.4147   24.9722 N.am    1  UNL1       -0.2680
      2 C           0.6012    3.1552   24.3070 C.2     1  UNL1        0.3092
      3 O          -0.3935    2.2333   24.9480 O.2     1  UNL1       -0.2521
      4 N           0.2768    3.8175   23.0008 N.am    1  UNL1       -0.2533
      5 H           2.5732    4.0197   24.5515 H       1  UNL1        0.1564
      6 H           0.9296    4.4225   22.5801 H       1  UNL1        0.1578
      7 C           2.8938    1.4278   28.8907 C.ar    1  UNL1        0.0016
      8 C           3.3930    0.8367   27.6057 C.ar    1  UNL1        0.0013
      9 C           3.0685    1.4990   26.2995 C.ar    1  UNL1        0.0147
     10 C           2.2448    2.7524   26.2784 C.ar    1  UNL1        0.0516
     11 C           1.7456    3.3435   27.5634 C.ar    1  UNL1        0.0147
     12 C           2.0701    2.6812   28.8696 C.ar    1  UNL1        0.0013
     13 C           3.8672   -0.5591   32.8092 C.ar    1  UNL1        0.2250
     14 C           4.2549    0.8712   32.5768 C.ar    1  UNL1        0.0577
     15 C           3.9304    1.5335   31.2706 C.ar    1  UNL1        0.0063
     16 C           3.2183    0.7655   30.1969 C.ar    1  UNL1        0.0194
     17 C           2.8306   -0.6647   30.4293 C.ar    1  UNL1        0.1020
     18 N           3.1551   -1.3270   31.7354 N.ar    1  UNL1       -0.2101
     19 C           5.0242   -0.5018   35.1347 C.3     1  UNL1        0.2542
     20 O           4.1917   -1.2214   34.1154 O.3     1  UNL1       -0.4561
     21 C          -1.0424    3.5579   22.3356 C.ar    1  UNL1        0.1380
     22 C          -2.3776    4.0602   22.7993 C.ar    1  UNL1        0.0509
     23 C          -3.4184    3.5632   21.8402 C.ar    1  UNL1        0.0810
     24 N          -2.7264    2.7537   20.7838 N.ar    1  UNL1       -0.1683
     25 N          -1.2580    2.7505   21.0900 N.ar    1  UNL1       -0.2162
     26 C          -0.1923    2.0608   20.2909 C.ar    1  UNL1        0.0842
     27 C           0.1126    0.6133   20.5388 C.ar    1  UNL1        0.0189
     28 C           1.1783   -0.0764   19.7397 C.ar    1  UNL1       -0.0027
     29 C           1.9392    0.6816   18.6925 C.ar    1  UNL1       -0.0218
     30 C           3.0049   -0.0081   17.8934 C.3     1  UNL1        0.0310
     31 C           1.6344    2.1293   18.4445 C.ar    1  UNL1       -0.0027
     32 C           0.5686    2.8188   19.2437 C.ar    1  UNL1        0.0189
     33 C          -4.8923    3.8290   21.9230 C.3     1  UNL1        0.0372
     34 C          -4.8437    4.5138   20.5893 C.3     1  UNL1        0.0060
     35 C          -4.9409    3.1443   23.2567 C.3     1  UNL1        0.0060
     36 C          -6.3663    4.0948   22.0058 C.3     1  UNL1        0.0060
@<TRIPOS>BOND
     1    19    20    1
     2    20    13    1
     3    13    14   ar
     4    14    15   ar
     5    15    16   ar
     6    16     7    1
     7     7     8   ar
     8     8     9   ar
     9     9    10   ar
    10    10     1    1
    11     1     2   am
    12     2     3    2
    13     2     4   am
    14     4    21    1
    15    21    22   ar
    16    22    23   ar
    17    23    33    1
    18    33    34    1
    19    33    35    1
    20    33    36    1
    21    23    24   ar
    22    24    25   ar
    23    25    26    1
    24    26    27   ar
    25    27    28   ar
    26    28    29   ar
    27    29    30    1
    28    29    31   ar
    29    31    32   ar
    30    10    11   ar
    31    11    12   ar
    32    16    17   ar
    33    17    18   ar
    34    18    13   ar
    35    12     7   ar
    36    25    21   ar
    37    32    26   ar
    38     1     5    1
    39     4     6    1
@<TRIPOS>MOLECULE
*****
 36 39 0 0 0
SMALL
GASTEIGER

@<TRIPOS>ATOM
      1 N           2.3219    2.4001   29.2569 N.am    1  UNL1       -0.2680
      2 C           2.2619    2.2956   30.7520 C.2     1  UNL1        0.3092
      3 O           0.9546    2.4776   31.4647 O.2     1  UNL1       -0.2521
      4 N           3.5092    2.0092   31.5345 N.am    1  UNL1       -0.2533
      5 H           3.1799    2.2806   28.7891 H       1  UNL1        0.1564
      6 H           4.3672    1.8897   31.0667 H       1  UNL1        0.1578
      7 C          -1.4199    3.2594   26.9094 C.ar    1  UNL1        0.0016
      8 C          -0.9133    1.8522   27.0246 C.ar    1  UNL1        0.0013
      9 C           0.3339    1.5658   27.8070 C.ar    1  UNL1        0.0147
     10 C           1.0746    2.6865   28.4744 C.ar    1  UNL1        0.0516
     11 C           0.5680    4.0936   28.3592 C.ar    1  UNL1        0.0147
     12 C          -0.6792    4.3801   27.5767 C.ar    1  UNL1        0.0013
     13 C          -5.1617    4.1186   24.5619 C.ar    1  UNL1        0.2250
     14 C          -3.8956    3.7506   23.8468 C.ar    1  UNL1        0.0577
     15 C          -2.6483    3.4642   24.6293 C.ar    1  UNL1        0.0063
     16 C          -2.6672    3.5458   26.1269 C.ar    1  UNL1        0.0194
     17 C          -3.9333    3.9138   26.8421 C.ar    1  UNL1        0.1020
     18 N          -5.1805    4.2003   26.0596 N.ar    1  UNL1       -0.2101
     19 C          -6.4756    4.0593   22.3214 C.3     1  UNL1        0.2542
     20 O          -6.4090    4.4051   23.7795 O.3     1  UNL1       -0.4561
     21 C           3.4491    1.9047   33.0297 C.ar    1  UNL1        0.1380
     22 C           2.7431    2.8537   33.9522 C.ar    1  UNL1        0.0509
     23 C           2.9422    2.3684   35.3574 C.ar    1  UNL1        0.0810
     24 N           3.7713    1.1195   35.3035 N.ar    1  UNL1       -0.1683
     25 N           4.0846    0.8330   33.8649 N.ar    1  UNL1       -0.2162
     26 C           4.8917   -0.3225   33.3515 C.ar    1  UNL1        0.0842
     27 C           6.2400   -0.0826   32.7397 C.ar    1  UNL1        0.0189
     28 C           7.0471   -1.2380   32.2264 C.ar    1  UNL1       -0.0027
     29 C           6.5058   -2.6335   32.3248 C.ar    1  UNL1       -0.0218
     30 C           7.3129   -3.7890   31.8115 C.3     1  UNL1        0.0310
     31 C           5.1574   -2.8735   32.9367 C.ar    1  UNL1       -0.0027
     32 C           4.3504   -1.7180   33.4500 C.ar    1  UNL1        0.0189
     33 C           2.4063    3.0180   36.5988 C.3     1  UNL1        0.0372
     34 C           1.9652    4.2012   35.7892 C.3     1  UNL1        0.0060
     35 C           2.8474    1.8347   37.4084 C.3     1  UNL1        0.0060
     36 C           1.8704    3.6675   37.8401 C.3     1  UNL1        0.0060
@<TRIPOS>BOND
     1    19    20    1
     2    20    13    1
     3    13    14   ar
     4    14    15   ar
     5    15    16   ar
     6    16     7    1
     7     7     8   ar
     8     8     9   ar
     9     9    10   ar
    10    10     1    1
    11     1     2   am
    12     2     3    2
    13     2     4   am
    14     4    21    1
    15    21    22   ar
    16    22    23   ar
    17    23    33    1
    18    33    34    1
    19    33    35    1
    20    33    36    1
    21    23    24   ar
    22    24    25   ar
    23    25    26    1
    24    26    27   ar
    25    27    28   ar
    26    28    29   ar
    27    29    30    1
    28    29    31   ar
    29    31    32   ar
    30    10    11   ar
    31    11    12   ar
    32    16    17   ar
    33    17    18   ar
    34    18    13   ar
    35    12     7   ar
    36    25    21   ar
    37    32    26   ar
    38     1     5    1
    39     4     6    1
@<TRIPOS>MOLECULE
*****
 36 39 0 0 0
SMALL
GASTEIGER

@<TRIPOS>ATOM
      1 N           2.0700   -0.8979   29.7238 N.am    1  UNL1       -0.2680
      2 C           2.7592   -0.3105   30.9196 C.2     1  UNL1        0.3092
      3 O           2.6215    1.1525   31.2211 O.2     1  UNL1       -0.2521
      4 N           3.5860   -1.1860   31.8139 N.am    1  UNL1       -0.2533
      5 H           2.1604   -1.8581   29.5259 H       1  UNL1        0.1564
      6 H           3.6764   -2.1461   31.6160 H       1  UNL1        0.1578
      7 C          -0.4106    1.7285   27.0408 C.ar    1  UNL1        0.0016
      8 C           1.0724    1.6353   26.8363 C.ar    1  UNL1        0.0013
      9 C           1.8993    0.7598   27.7306 C.ar    1  UNL1        0.0147
     10 C           1.2431   -0.0225   28.8295 C.ar    1  UNL1        0.0516
     11 C          -0.2399    0.0707   29.0340 C.ar    1  UNL1        0.0147
     12 C          -1.0668    0.9462   28.1396 C.ar    1  UNL1        0.0013
     13 C          -2.8913    4.3549   24.3578 C.ar    1  UNL1        0.2250
     14 C          -3.3074    4.1311   25.7814 C.ar    1  UNL1        0.0577
     15 C          -2.4805    3.2556   26.6758 C.ar    1  UNL1        0.0063
     16 C          -1.2375    2.6039   26.1465 C.ar    1  UNL1        0.0194
     17 C          -0.8214    2.8277   24.7229 C.ar    1  UNL1        0.1020
     18 N          -1.6483    3.7032   23.8285 N.ar    1  UNL1       -0.2101
     19 C          -5.1580    4.8956   23.2091 C.3     1  UNL1        0.2542
     20 O          -3.7181    5.2303   23.4635 O.3     1  UNL1       -0.4561
     21 C           4.2752   -0.5985   33.0098 C.ar    1  UNL1        0.1380
     22 C           3.7126    0.4472   33.9263 C.ar    1  UNL1        0.0509
     23 C           4.7376    0.7384   34.9819 C.ar    1  UNL1        0.0810
     24 N           5.9339   -0.1273   34.7178 N.ar    1  UNL1       -0.1683
     25 N           5.6480   -0.9535   33.4990 N.ar    1  UNL1       -0.2162
     26 C           6.5727   -1.9584   32.8783 C.ar    1  UNL1        0.0842
     27 C           6.0362   -3.2730   32.3947 C.ar    1  UNL1        0.0189
     28 C           6.9608   -4.2778   31.7740 C.ar    1  UNL1       -0.0027
     29 C           8.4221   -3.9681   31.6370 C.ar    1  UNL1       -0.0218
     30 C           9.3468   -4.9730   31.0163 C.3     1  UNL1        0.0310
     31 C           8.9587   -2.6535   32.1206 C.ar    1  UNL1       -0.0027
     32 C           8.0340   -1.6487   32.7413 C.ar    1  UNL1        0.0189
     33 C           4.5921    1.7225   36.1046 C.3     1  UNL1        0.0372
     34 C           4.2005    0.6089   37.0301 C.3     1  UNL1        0.0060
     35 C           4.9837    2.8362   35.1791 C.3     1  UNL1        0.0060
     36 C           4.4466    2.7066   37.2272 C.3     1  UNL1        0.0060
@<TRIPOS>BOND
     1    19    20    1
     2    20    13    1
     3    13    14   ar
     4    14    15   ar
     5    15    16   ar
     6    16     7    1
     7     7     8   ar
     8     8     9   ar
     9     9    10   ar
    10    10     1    1
    11     1     2   am
    12     2     3    2
    13     2     4   am
    14     4    21    1
    15    21    22   ar
    16    22    23   ar
    17    23    33    1
    18    33    34    1
    19    33    35    1
    20    33    36    1
    21    23    24   ar
    22    24    25   ar
    23    25    26    1
    24    26    27   ar
    25    27    28   ar
    26    28    29   ar
    27    29    30    1
    28    29    31   ar
    29    31    32   ar
    30    10    11   ar
    31    11    12   ar
    32    16    17   ar
    33    17    18   ar
    34    18    13   ar
    35    12     7   ar
    36    25    21   ar
    37    32    26   ar
    38     1     5    1
    39     4     6    1
