@<TRIPOS>MOLECULE
*****
 42 46 0 0 0
SMALL
GASTEIGER

@<TRIPOS>ATOM
      1 C           7.6887   -4.9540   26.2705 C.3     1  UNL1        0.1435
      2 C           7.0135   -3.8286   26.9970 C.3     1  UNL1        0.1035
      3 C           6.8121   -3.9079   28.4813 C.2     1  UNL1        0.1173
      4 O           6.1369   -2.7826   29.2078 O.2     1  UNL1       -0.5097
      5 C           7.2860   -5.1125   29.2392 C.2     1  UNL1        0.0905
      6 C           7.9612   -6.2378   28.5127 C.2     1  UNL1        0.3400
      7 O           8.4350   -7.4425   29.2705 O.2     1  UNL1       -0.2451
      8 O           8.1625   -6.1586   27.0283 O.3     1  UNL1       -0.4524
      9 H           5.8409   -2.0301   28.7344 H       1  UNL1        0.2917
     10 C           8.2693   -5.7579   25.1451 C.3     1  UNL1        0.0372
     11 C           8.0097   -7.2101   24.8734 C.3     1  UNL1        0.0035
     12 C           8.7915   -7.6005   23.6542 C.3     1  UNL1        0.0001
     13 C           9.5343   -6.3896   23.1724 C.3     1  UNL1        0.0001
     14 C           9.2115   -5.2508   24.0939 C.3     1  UNL1        0.0035
     15 C           7.4165   -4.0285   25.1218 C.3     1  UNL1        0.0452
     16 C           6.0086   -3.6182   24.8065 C.3     1  UNL1        0.0300
     17 C           4.9128   -2.3648   20.6259 C.ar    1  UNL1        0.0178
     18 C           4.0429   -1.9655   21.7809 C.ar    1  UNL1       -0.0014
     19 C           4.4082   -2.3833   23.1745 C.ar    1  UNL1       -0.0044
     20 C           5.6433   -3.2004   23.4130 C.ar    1  UNL1       -0.0199
     21 C           6.5131   -3.5997   22.2580 C.ar    1  UNL1        0.0251
     22 C           6.1479   -3.1819   20.8644 C.ar    1  UNL1        0.1368
     23 F           7.0178   -3.5812   19.7095 F       1  UNL1       -0.2045
     24 C           4.5475   -1.9470   19.2323 C.3     1  UNL1        0.1001
     25 C           3.9168   -4.4483   18.9227 C.3     1  UNL1        0.0014
     26 C           3.5088   -3.0280   19.1805 C.3     1  UNL1        0.0183
     27 C           4.1821   -1.5293   17.8388 C.1     1  UNL1        0.0753
     28 N           3.8168   -1.1117   16.4452 N.1     1  UNL1       -0.1956
     29 C           5.5861   -0.8660   19.2842 C.3     1  UNL1        0.0183
     30 C           6.6392   -0.7862   18.2191 C.3     1  UNL1        0.0014
     31 C           7.0846   -5.1919   30.7235 C.3     1  UNL1        0.1032
     32 C           7.1264   -3.9434   31.5538 C.ar    1  UNL1        0.1669
     33 N           8.3291   -3.0768   31.7832 N.ar    1  UNL1       -0.1930
     34 C           7.9187   -1.9401   32.6717 C.ar    1  UNL1        0.2536
     35 N           8.6829   -0.7769   33.2309 N.ar    1  UNL1       -0.2143
     36 C           7.9908    0.2224   34.1099 C.ar    1  UNL1        0.0637
     37 C           8.7551    1.3857   34.6691 C.3     1  UNL1        0.0522
     38 C           6.5346    0.0584   34.4296 C.ar    1  UNL1        0.0296
     39 C           5.7703   -1.1049   33.8704 C.ar    1  UNL1        0.0651
     40 C           4.3140   -1.2689   34.1902 C.3     1  UNL1        0.0523
     41 N           6.4623   -2.1041   32.9915 N.ar    1  UNL1       -0.1994
     42 N           5.9727   -3.3422   32.3006 N.ar    1  UNL1       -0.1476
@<TRIPOS>BOND
     1    25    26    1
     2    26    24    1
     3    24    27    1
     4    27    28    3
     5    24    29    1
     6    29    30    1
     7    24    17    1
     8    17    18   ar
     9    18    19   ar
    10    19    20   ar
    11    20    16    1
    12    16    15    1
    13    15     1    1
    14     1    10    1
    15    10    11    1
    16    11    12    1
    17    12    13    1
    18    13    14    1
    19     1     2    1
    20     2     3    1
    21     3     4    1
    22     3     5    2
    23     5    31    1
    24    31    32    1
    25    32    33   ar
    26    33    34   ar
    27    34    35   ar
    28    35    36   ar
    29    36    37    1
    30    36    38   ar
    31    38    39   ar
    32    39    40    1
    33    39    41   ar
    34    41    42   ar
    35     5     6    1
    36     6     7    2
    37     6     8    1
    38    20    21   ar
    39    21    22   ar
    40    22    23    1
    41    22    17   ar
    42     8     1    1
    43    14    10    1
    44    42    32   ar
    45    41    34   ar
    46     4     9    1
@<TRIPOS>MOLECULE
*****
 42 46 0 0 0
SMALL
GASTEIGER

@<TRIPOS>ATOM
      1 C           4.3745   -0.4702   19.4962 C.3     1  UNL1        0.1435
      2 C           4.8984    0.8724   19.9119 C.3     1  UNL1        0.1035
      3 C           4.0783    2.1050   19.6711 C.2     1  UNL1        0.1173
      4 O           4.6022    3.4476   20.0868 O.2     1  UNL1       -0.5097
      5 C           2.7341    1.9950   19.0145 C.2     1  UNL1        0.0905
      6 C           2.2101    0.6524   18.5988 C.2     1  UNL1        0.3400
      7 O           0.8659    0.5423   17.9423 O.2     1  UNL1       -0.2451
      8 O           3.0303   -0.5803   18.8397 O.3     1  UNL1       -0.4524
      9 H           5.4419    3.5164   20.4969 H       1  UNL1        0.2917
     10 C           4.3095   -1.9535   19.2828 C.3     1  UNL1        0.0372
     11 C           5.3647   -2.7976   18.6316 C.3     1  UNL1        0.0035
     12 C           4.8853   -4.2189   18.6294 C.3     1  UNL1        0.0001
     13 C           3.5338   -4.2533   19.2794 C.3     1  UNL1        0.0001
     14 C           3.1780   -2.8531   19.6831 C.3     1  UNL1        0.0035
     15 C           5.6961   -0.8753   20.0787 C.3     1  UNL1        0.0452
     16 C           5.9679   -0.6664   21.5389 C.3     1  UNL1        0.0300
     17 C           7.3897   -4.0996   24.0769 C.ar    1  UNL1        0.0178
     18 C           6.1255   -4.2292   23.2800 C.ar    1  UNL1       -0.0014
     19 C           5.6516   -3.0848   22.4340 C.ar    1  UNL1       -0.0044
     20 C           6.4418   -1.8108   22.3849 C.ar    1  UNL1       -0.0199
     21 C           7.7060   -1.6812   23.1818 C.ar    1  UNL1        0.0251
     22 C           8.1800   -2.8256   24.0278 C.ar    1  UNL1        0.1368
     23 F           9.4442   -2.6959   24.8247 F       1  UNL1       -0.2045
     24 C           7.8636   -5.2440   24.9229 C.3     1  UNL1        0.1001
     25 C           8.7044   -6.9386   23.1420 C.3     1  UNL1        0.0014
     26 C           8.8454   -5.6266   23.8552 C.3     1  UNL1        0.0183
     27 C           8.3377   -6.3884   25.7688 C.1     1  UNL1        0.0753
     28 N           8.8117   -7.5330   26.6146 N.1     1  UNL1       -0.1956
     29 C           6.8819   -4.8614   25.9905 C.3     1  UNL1        0.0183
     30 C           7.3698   -4.2813   27.2848 C.3     1  UNL1        0.0014
     31 C           1.9138    3.2276   18.7737 C.3     1  UNL1        0.1032
     32 C           0.4997    3.2961   19.2691 C.ar    1  UNL1        0.1669
     33 N           0.0474    3.0612   20.6799 N.ar    1  UNL1       -0.1930
     34 C          -1.4423    3.2314   20.7234 C.ar    1  UNL1        0.2536
     35 N          -2.4328    3.1207   21.8444 N.ar    1  UNL1       -0.2143
     36 C          -3.8917    3.3501   21.5815 C.ar    1  UNL1        0.0637
     37 C          -4.8823    3.2393   22.7025 C.3     1  UNL1        0.0522
     38 C          -4.3600    3.6901   20.1977 C.ar    1  UNL1        0.0296
     39 C          -3.3695    3.8009   19.0767 C.ar    1  UNL1        0.0651
     40 C          -3.8379    4.1409   17.6929 C.3     1  UNL1        0.0523
     41 N          -1.9107    3.5715   19.3396 N.ar    1  UNL1       -0.1994
     42 N          -0.7104    3.6114   18.4408 N.ar    1  UNL1       -0.1476
@<TRIPOS>BOND
     1    25    26    1
     2    26    24    1
     3    24    27    1
     4    27    28    3
     5    24    29    1
     6    29    30    1
     7    24    17    1
     8    17    18   ar
     9    18    19   ar
    10    19    20   ar
    11    20    16    1
    12    16    15    1
    13    15     1    1
    14     1    10    1
    15    10    11    1
    16    11    12    1
    17    12    13    1
    18    13    14    1
    19     1     2    1
    20     2     3    1
    21     3     4    1
    22     3     5    2
    23     5    31    1
    24    31    32    1
    25    32    33   ar
    26    33    34   ar
    27    34    35   ar
    28    35    36   ar
    29    36    37    1
    30    36    38   ar
    31    38    39   ar
    32    39    40    1
    33    39    41   ar
    34    41    42   ar
    35     5     6    1
    36     6     7    2
    37     6     8    1
    38    20    21   ar
    39    21    22   ar
    40    22    23    1
    41    22    17   ar
    42     8     1    1
    43    14    10    1
    44    42    32   ar
    45    41    34   ar
    46     4     9    1
@<TRIPOS>MOLECULE
*****
 42 46 0 0 0
SMALL
GASTEIGER

@<TRIPOS>ATOM
      1 C           8.3709   -5.5820   25.7334 C.3     1  UNL1        0.1435
      2 C           8.2390   -4.1455   25.3225 C.3     1  UNL1        0.1035
      3 C           8.3027   -3.7716   23.8712 C.2     1  UNL1        0.1173
      4 O           8.1707   -2.3350   23.4603 O.2     1  UNL1       -0.5097
      5 C           8.4982   -4.8343   22.8308 C.2     1  UNL1        0.0905
      6 C           8.6301   -6.2709   23.2417 C.2     1  UNL1        0.3400
      7 O           8.8256   -7.3336   22.2014 O.2     1  UNL1       -0.2451
      8 O           8.5665   -6.6448   24.6931 O.3     1  UNL1       -0.4524
      9 H           8.0486   -1.6711   24.1102 H       1  UNL1        0.2917
     10 C           8.4437   -6.7959   26.6115 C.3     1  UNL1        0.0372
     11 C           7.5989   -8.0287   26.4834 C.3     1  UNL1        0.0035
     12 C           8.0071   -8.9849   27.5646 C.3     1  UNL1        0.0001
     13 C           9.1043   -8.3430   28.3611 C.3     1  UNL1        0.0001
     14 C           9.3741   -6.9902   27.7720 C.3     1  UNL1        0.0035
     15 C           8.2007   -4.9409   27.0787 C.3     1  UNL1        0.0452
     16 C           6.8779   -4.3486   27.4654 C.3     1  UNL1        0.0300
     17 C           6.4062   -2.3008   31.4445 C.ar    1  UNL1        0.0178
     18 C           6.3716   -1.4970   30.1786 C.ar    1  UNL1       -0.0014
     19 C           6.5289   -2.1796   28.8522 C.ar    1  UNL1       -0.0044
     20 C           6.7207   -3.6660   28.7918 C.ar    1  UNL1       -0.0199
     21 C           6.7553   -4.4699   30.0577 C.ar    1  UNL1        0.0251
     22 C           6.5980   -3.7873   31.3841 C.ar    1  UNL1        0.1368
     23 F           6.6326   -4.5912   32.6501 F       1  UNL1       -0.2045
     24 C           6.2490   -1.6182   32.7709 C.3     1  UNL1        0.1001
     25 C           8.3546   -0.1101   32.9765 C.3     1  UNL1        0.0014
     26 C           7.7386   -1.4739   32.8732 C.3     1  UNL1        0.0183
     27 C           6.0919   -0.9356   34.0973 C.1     1  UNL1        0.0753
     28 N           5.9349   -0.2529   35.4237 N.1     1  UNL1       -0.1956
     29 C           4.7595   -1.7625   32.6686 C.3     1  UNL1        0.0183
     30 C           4.0268   -2.6655   33.6161 C.3     1  UNL1        0.0014
     31 C           8.5618   -4.4605   21.3795 C.3     1  UNL1        0.1032
     32 C           7.4347   -3.6950   20.7521 C.ar    1  UNL1        0.1669
     33 N           7.4203   -2.2225   20.4666 N.ar    1  UNL1       -0.1930
     34 C           6.1008   -1.8852   19.8380 C.ar    1  UNL1        0.2536
     35 N           5.5253   -0.5903   19.3461 N.ar    1  UNL1       -0.2143
     36 C           4.1486   -0.5594   18.7513 C.ar    1  UNL1        0.0637
     37 C           3.5730    0.7355   18.2593 C.3     1  UNL1        0.0522
     38 C           3.3475   -1.8233   18.6484 C.ar    1  UNL1        0.0296
     39 C           3.9231   -3.1182   19.1403 C.ar    1  UNL1        0.0651
     40 C           3.1219   -4.3822   19.0373 C.3     1  UNL1        0.0523
     41 N           5.2997   -3.1491   19.7351 N.ar    1  UNL1       -0.1994
     42 N           6.1241   -4.2677   20.3000 N.ar    1  UNL1       -0.1476
@<TRIPOS>BOND
     1    25    26    1
     2    26    24    1
     3    24    27    1
     4    27    28    3
     5    24    29    1
     6    29    30    1
     7    24    17    1
     8    17    18   ar
     9    18    19   ar
    10    19    20   ar
    11    20    16    1
    12    16    15    1
    13    15     1    1
    14     1    10    1
    15    10    11    1
    16    11    12    1
    17    12    13    1
    18    13    14    1
    19     1     2    1
    20     2     3    1
    21     3     4    1
    22     3     5    2
    23     5    31    1
    24    31    32    1
    25    32    33   ar
    26    33    34   ar
    27    34    35   ar
    28    35    36   ar
    29    36    37    1
    30    36    38   ar
    31    38    39   ar
    32    39    40    1
    33    39    41   ar
    34    41    42   ar
    35     5     6    1
    36     6     7    2
    37     6     8    1
    38    20    21   ar
    39    21    22   ar
    40    22    23    1
    41    22    17   ar
    42     8     1    1
    43    14    10    1
    44    42    32   ar
    45    41    34   ar
    46     4     9    1
@<TRIPOS>MOLECULE
*****
 42 46 0 0 0
SMALL
GASTEIGER

@<TRIPOS>ATOM
      1 C           8.1441   -4.1960   26.6263 C.3     1  UNL1        0.1435
      2 C           8.0964   -2.6969   26.6517 C.3     1  UNL1        0.1035
      3 C           8.4328   -1.9570   27.9123 C.2     1  UNL1        0.1173
      4 O           8.3852   -0.4580   27.9377 O.2     1  UNL1       -0.5097
      5 C           8.8169   -2.7161   29.1478 C.2     1  UNL1        0.0905
      6 C           8.8646   -4.2152   29.1224 C.2     1  UNL1        0.3400
      7 O           9.2486   -4.9743   30.3578 O.2     1  UNL1       -0.2451
      8 O           8.5282   -4.9551   27.8617 O.3     1  UNL1       -0.4524
      9 H           8.1453    0.0162   27.1660 H       1  UNL1        0.2917
     10 C           8.0466   -5.6008   26.1096 C.3     1  UNL1        0.0372
     11 C           7.2182   -6.7024   26.7016 C.3     1  UNL1        0.0035
     12 C           7.4200   -7.9331   25.8681 C.3     1  UNL1        0.0001
     13 C           8.3731   -7.5921   24.7610 C.3     1  UNL1        0.0001
     14 C           8.7603   -6.1507   24.9104 C.3     1  UNL1        0.0035
     15 C           7.7261   -3.9247   25.2115 C.3     1  UNL1        0.0452
     16 C           6.2922   -3.6143   24.8994 C.3     1  UNL1        0.0300
     17 C           5.1000   -2.4516   20.7189 C.ar    1  UNL1        0.0178
     18 C           4.1615   -2.2044   21.8626 C.ar    1  UNL1       -0.0014
     19 C           4.5589   -2.5919   23.2561 C.ar    1  UNL1       -0.0044
     20 C           5.8948   -3.2267   23.5059 C.ar    1  UNL1       -0.0199
     21 C           6.8333   -3.4739   22.3622 C.ar    1  UNL1        0.0251
     22 C           6.4359   -3.0863   20.9687 C.ar    1  UNL1        0.1368
     23 F           7.3745   -3.3336   19.8250 F       1  UNL1       -0.2045
     24 C           4.7026   -2.0640   19.3254 C.3     1  UNL1        0.1001
     25 C           4.1946   -4.5341   18.7004 C.3     1  UNL1        0.0014
     26 C           3.7501   -3.2217   19.2751 C.3     1  UNL1        0.0183
     27 C           4.3051   -1.6765   17.9319 C.1     1  UNL1        0.0753
     28 N           3.9078   -1.2890   16.5383 N.1     1  UNL1       -0.1956
     29 C           5.6551   -0.9063   19.3758 C.3     1  UNL1        0.0183
     30 C           5.1420    0.4754   19.6545 C.3     1  UNL1        0.0014
     31 C           9.1533   -1.9763   30.4085 C.3     1  UNL1        0.1032
     32 C           8.0650   -1.5964   31.3683 C.ar    1  UNL1        0.1669
     33 N           8.2358   -1.3305   32.8346 N.ar    1  UNL1       -0.1930
     34 C           6.8912   -0.9855   33.4028 C.ar    1  UNL1        0.2536
     35 N           6.4496   -0.6302   34.7916 N.ar    1  UNL1       -0.2143
     36 C           5.0061   -0.3275   35.0652 C.ar    1  UNL1        0.0637
     37 C           4.5645    0.0279   36.4541 C.3     1  UNL1        0.0522
     38 C           4.0044   -0.3800   33.9501 C.ar    1  UNL1        0.0296
     39 C           4.4459   -0.7353   32.5613 C.ar    1  UNL1        0.0651
     40 C           3.4441   -0.7879   31.4462 C.3     1  UNL1        0.0523
     41 N           5.8894   -1.0381   32.2877 N.ar    1  UNL1       -0.1994
     42 N           6.6148   -1.4156   31.0303 N.ar    1  UNL1       -0.1476
@<TRIPOS>BOND
     1    25    26    1
     2    26    24    1
     3    24    27    1
     4    27    28    3
     5    24    29    1
     6    29    30    1
     7    24    17    1
     8    17    18   ar
     9    18    19   ar
    10    19    20   ar
    11    20    16    1
    12    16    15    1
    13    15     1    1
    14     1    10    1
    15    10    11    1
    16    11    12    1
    17    12    13    1
    18    13    14    1
    19     1     2    1
    20     2     3    1
    21     3     4    1
    22     3     5    2
    23     5    31    1
    24    31    32    1
    25    32    33   ar
    26    33    34   ar
    27    34    35   ar
    28    35    36   ar
    29    36    37    1
    30    36    38   ar
    31    38    39   ar
    32    39    40    1
    33    39    41   ar
    34    41    42   ar
    35     5     6    1
    36     6     7    2
    37     6     8    1
    38    20    21   ar
    39    21    22   ar
    40    22    23    1
    41    22    17   ar
    42     8     1    1
    43    14    10    1
    44    42    32   ar
    45    41    34   ar
    46     4     9    1
@<TRIPOS>MOLECULE
*****
 42 46 0 0 0
SMALL
GASTEIGER

@<TRIPOS>ATOM
      1 C           0.9648    2.2787   26.7139 C.3     1  UNL1        0.1435
      2 C           0.6716    0.9899   27.4231 C.3     1  UNL1        0.1035
      3 C           0.5241    0.9719   28.9157 C.2     1  UNL1        0.1173
      4 O           0.2309   -0.3169   29.6249 O.2     1  UNL1       -0.5097
      5 C           0.6698    2.2428   29.6992 C.2     1  UNL1        0.0905
      6 C           0.9631    3.5315   28.9900 C.2     1  UNL1        0.3400
      7 O           1.1088    4.8024   29.7734 O.2     1  UNL1       -0.2451
      8 O           1.1106    3.5496   27.4973 O.3     1  UNL1       -0.4524
      9 H           0.1398   -1.1107   29.1356 H       1  UNL1        0.2917
     10 C           1.2407    3.2424   25.5980 C.3     1  UNL1        0.0372
     11 C           0.2802    3.6357   24.5151 C.3     1  UNL1        0.0035
     12 C           0.9714    4.6183   23.6169 C.3     1  UNL1        0.0001
     13 C           2.3591    4.8324   24.1448 C.3     1  UNL1        0.0001
     14 C           2.5255    3.9820   25.3692 C.3     1  UNL1        0.0035
     15 C           0.9149    1.3426   25.5430 C.3     1  UNL1        0.0452
     16 C           2.1318    0.5528   25.1616 C.3     1  UNL1        0.0300
     17 C           3.0361   -0.2333   20.8241 C.ar    1  UNL1        0.0178
     18 C           1.7196    0.3676   21.2189 C.ar    1  UNL1       -0.0014
     19 C           1.4182    0.6297   22.6647 C.ar    1  UNL1       -0.0044
     20 C           2.4333    0.2908   23.7158 C.ar    1  UNL1       -0.0199
     21 C           3.7498   -0.3101   23.3211 C.ar    1  UNL1        0.0251
     22 C           4.0512   -0.5722   21.8752 C.ar    1  UNL1        0.1368
     23 F           5.3677   -1.1731   21.4806 F       1  UNL1       -0.2045
     24 C           3.3376   -0.4954   19.3783 C.3     1  UNL1        0.1001
     25 C           5.3053    1.1382   18.9202 C.3     1  UNL1        0.0014
     26 C           3.8570    0.9044   19.2329 C.3     1  UNL1        0.0183
     27 C           3.6391   -0.7573   17.9324 C.1     1  UNL1        0.0753
     28 N           3.9407   -1.0192   16.4866 N.1     1  UNL1       -0.1956
     29 C           2.8182   -1.8950   19.5237 C.3     1  UNL1        0.0183
     30 C           3.7300   -3.0618   19.2847 C.3     1  UNL1        0.0014
     31 C           0.5223    2.2248   31.1918 C.3     1  UNL1        0.1032
     32 C           1.6035    1.6308   32.0452 C.ar    1  UNL1        0.1669
     33 N           2.0466    2.1370   33.3859 N.ar    1  UNL1       -0.1930
     34 C           3.1482    1.2453   33.8770 C.ar    1  UNL1        0.2536
     35 N           3.9656    1.2595   35.1346 N.ar    1  UNL1       -0.2143
     36 C           5.0208    0.2164   35.3551 C.ar    1  UNL1        0.0637
     37 C           5.8383    0.2306   36.6128 C.3     1  UNL1        0.0522
     38 C           5.2586   -0.8408   34.3180 C.ar    1  UNL1        0.0296
     39 C           4.4412   -0.8550   33.0603 C.ar    1  UNL1        0.0651
     40 C           4.6790   -1.9123   32.0232 C.3     1  UNL1        0.0523
     41 N           3.3860    0.1881   32.8398 N.ar    1  UNL1       -0.1994
     42 N           2.4313    0.4263   31.7077 N.ar    1  UNL1       -0.1476
@<TRIPOS>BOND
     1    25    26    1
     2    26    24    1
     3    24    27    1
     4    27    28    3
     5    24    29    1
     6    29    30    1
     7    24    17    1
     8    17    18   ar
     9    18    19   ar
    10    19    20   ar
    11    20    16    1
    12    16    15    1
    13    15     1    1
    14     1    10    1
    15    10    11    1
    16    11    12    1
    17    12    13    1
    18    13    14    1
    19     1     2    1
    20     2     3    1
    21     3     4    1
    22     3     5    2
    23     5    31    1
    24    31    32    1
    25    32    33   ar
    26    33    34   ar
    27    34    35   ar
    28    35    36   ar
    29    36    37    1
    30    36    38   ar
    31    38    39   ar
    32    39    40    1
    33    39    41   ar
    34    41    42   ar
    35     5     6    1
    36     6     7    2
    37     6     8    1
    38    20    21   ar
    39    21    22   ar
    40    22    23    1
    41    22    17   ar
    42     8     1    1
    43    14    10    1
    44    42    32   ar
    45    41    34   ar
    46     4     9    1
@<TRIPOS>MOLECULE
*****
 42 46 0 0 0
SMALL
GASTEIGER

@<TRIPOS>ATOM
      1 C           5.7720   -2.9549   21.9764 C.3     1  UNL1        0.1435
      2 C           6.2176   -1.8660   22.9068 C.3     1  UNL1        0.1035
      3 C           7.2203   -2.1622   23.9824 C.2     1  UNL1        0.1173
      4 O           7.6659   -1.0734   24.9128 O.2     1  UNL1       -0.5097
      5 C           7.7774   -3.5474   24.1275 C.2     1  UNL1        0.0905
      6 C           7.3318   -4.6363   23.1971 C.2     1  UNL1        0.3400
      7 O           7.8888   -6.0214   23.3421 O.2     1  UNL1       -0.2451
      8 O           6.3290   -4.3401   22.1214 O.3     1  UNL1       -0.4524
      9 H           7.3180   -0.2081   24.8222 H       1  UNL1        0.2917
     10 C           5.0452   -3.6461   20.8610 C.3     1  UNL1        0.0372
     11 C           5.2799   -3.4389   19.3940 C.3     1  UNL1        0.0035
     12 C           4.3359   -4.3306   18.6431 C.3     1  UNL1        0.0001
     13 C           3.5178   -5.0889   19.6461 C.3     1  UNL1        0.0001
     14 C           3.9562   -4.6658   21.0167 C.3     1  UNL1        0.0035
     15 C           4.9625   -1.8098   21.4439 C.3     1  UNL1        0.0452
     16 C           3.6910   -1.4070   22.1302 C.3     1  UNL1        0.0300
     17 C           0.9500    1.5986   20.2058 C.ar    1  UNL1        0.0178
     18 C           0.8620    0.1507   19.8237 C.ar    1  UNL1       -0.0014
     19 C           1.7757   -0.8511   20.4652 C.ar    1  UNL1       -0.0044
     20 C           2.7773   -0.4051   21.4888 C.ar    1  UNL1       -0.0199
     21 C           2.8653    1.0427   21.8709 C.ar    1  UNL1        0.0251
     22 C           1.9516    2.0446   21.2294 C.ar    1  UNL1        0.1368
     23 F           2.0397    3.4924   21.6116 F       1  UNL1       -0.2045
     24 C           0.0363    2.6004   19.5644 C.3     1  UNL1        0.1001
     25 C          -1.3241    3.6519   21.5121 C.3     1  UNL1        0.0014
     26 C          -0.9270    2.4518   20.7046 C.3     1  UNL1        0.0183
     27 C          -0.8775    3.6022   18.9230 C.1     1  UNL1        0.0753
     28 N          -1.7912    4.6040   18.2815 N.1     1  UNL1       -0.1956
     29 C           0.9996    2.7489   18.4242 C.3     1  UNL1        0.0183
     30 C           1.7621    4.0287   18.2486 C.3     1  UNL1        0.0014
     31 C           8.7801   -3.8437   25.2030 C.3     1  UNL1        0.1032
     32 C           8.3400   -3.9352   26.6341 C.ar    1  UNL1        0.1669
     33 N           7.4357   -2.9702   27.3419 N.ar    1  UNL1       -0.1930
     34 C           7.2638   -3.4464   28.7538 C.ar    1  UNL1        0.2536
     35 N           6.4837   -2.8960   29.9107 N.ar    1  UNL1       -0.2143
     36 C           6.5016   -3.6050   31.2325 C.ar    1  UNL1        0.0637
     37 C           5.7214   -3.0546   32.3895 C.3     1  UNL1        0.0522
     38 C           7.2997   -4.8643   31.3974 C.ar    1  UNL1        0.0296
     39 C           8.0798   -5.4147   30.2405 C.ar    1  UNL1        0.0651
     40 C           8.8779   -6.6740   30.4054 C.3     1  UNL1        0.0523
     41 N           8.0619   -4.7058   28.9187 N.ar    1  UNL1       -0.1994
     42 N           8.7270   -5.0079   27.6086 N.ar    1  UNL1       -0.1476
@<TRIPOS>BOND
     1    25    26    1
     2    26    24    1
     3    24    27    1
     4    27    28    3
     5    24    29    1
     6    29    30    1
     7    24    17    1
     8    17    18   ar
     9    18    19   ar
    10    19    20   ar
    11    20    16    1
    12    16    15    1
    13    15     1    1
    14     1    10    1
    15    10    11    1
    16    11    12    1
    17    12    13    1
    18    13    14    1
    19     1     2    1
    20     2     3    1
    21     3     4    1
    22     3     5    2
    23     5    31    1
    24    31    32    1
    25    32    33   ar
    26    33    34   ar
    27    34    35   ar
    28    35    36   ar
    29    36    37    1
    30    36    38   ar
    31    38    39   ar
    32    39    40    1
    33    39    41   ar
    34    41    42   ar
    35     5     6    1
    36     6     7    2
    37     6     8    1
    38    20    21   ar
    39    21    22   ar
    40    22    23    1
    41    22    17   ar
    42     8     1    1
    43    14    10    1
    44    42    32   ar
    45    41    34   ar
    46     4     9    1
@<TRIPOS>MOLECULE
*****
 42 46 0 0 0
SMALL
GASTEIGER

@<TRIPOS>ATOM
      1 C           4.4529   -0.9897   27.6558 C.3     1  UNL1        0.1435
      2 C           2.9873   -0.9630   27.9740 C.3     1  UNL1        0.1035
      3 C           2.5280   -0.6543   29.3681 C.2     1  UNL1        0.1173
      4 O           1.0624   -0.6275   29.6864 O.2     1  UNL1       -0.5097
      5 C           3.5344   -0.3722   30.4442 C.2     1  UNL1        0.0905
      6 C           5.0000   -0.3989   30.1260 C.2     1  UNL1        0.3400
      7 O           6.0063   -0.1169   31.2019 O.2     1  UNL1       -0.2451
      8 O           5.4593   -0.7077   28.7317 O.3     1  UNL1       -0.4524
      9 H           0.4338   -0.8037   29.0142 H       1  UNL1        0.2917
     10 C           5.7221   -1.1315   26.8690 C.3     1  UNL1        0.0372
     11 C           6.2381   -2.3958   26.2482 C.3     1  UNL1        0.0035
     12 C           7.5330   -2.0796   25.5604 C.3     1  UNL1        0.0001
     13 C           7.8174   -0.6198   25.7561 C.3     1  UNL1        0.0001
     14 C           6.6982   -0.0339   26.5649 C.3     1  UNL1        0.0035
     15 C           3.8874   -1.3210   26.3066 C.3     1  UNL1        0.0452
     16 C           3.3692   -0.2266   25.4212 C.3     1  UNL1        0.0300
     17 C           3.6186   -0.6436   20.9475 C.ar    1  UNL1        0.0178
     18 C           2.3376   -0.1992   21.5891 C.ar    1  UNL1       -0.0014
     19 C           2.2545   -0.0602   23.0804 C.ar    1  UNL1       -0.0044
     20 C           3.4523   -0.3656   23.9300 C.ar    1  UNL1       -0.0199
     21 C           4.7333   -0.8101   23.2884 C.ar    1  UNL1        0.0251
     22 C           4.8164   -0.9491   21.7972 C.ar    1  UNL1        0.1368
     23 F           6.0975   -1.3935   21.1556 F       1  UNL1       -0.2045
     24 C           3.7017   -0.7826   19.4563 C.3     1  UNL1        0.1001
     25 C           3.6218    1.7040   18.7076 C.3     1  UNL1        0.0014
     26 C           4.3474    0.5684   19.3664 C.3     1  UNL1        0.0183
     27 C           3.7849   -0.9215   17.9651 C.1     1  UNL1        0.0753
     28 N           3.8679   -1.0603   16.4738 N.1     1  UNL1       -0.1956
     29 C           3.0560   -2.1335   19.5462 C.3     1  UNL1        0.0183
     30 C           3.8580   -3.3685   19.2606 C.3     1  UNL1        0.0014
     31 C           3.0751   -0.0635   31.8384 C.3     1  UNL1        0.1032
     32 C           2.3853    1.2361   32.1303 C.ar    1  UNL1        0.1669
     33 N           1.5540    2.0291   31.1659 N.ar    1  UNL1       -0.1930
     34 C           1.0606    3.2539   31.8774 C.ar    1  UNL1        0.2536
     35 N           0.2000    4.3974   31.4282 N.ar    1  UNL1       -0.2143
     36 C          -0.1342    5.5049   32.3831 C.ar    1  UNL1        0.0637
     37 C          -0.9948    6.6484   31.9338 C.3     1  UNL1        0.0522
     38 C           0.3921    5.4688   33.7872 C.ar    1  UNL1        0.0296
     39 C           1.2527    4.3254   34.2365 C.ar    1  UNL1        0.0651
     40 C           1.7791    4.2894   35.6407 C.3     1  UNL1        0.0523
     41 N           1.5870    3.2179   33.2816 N.ar    1  UNL1       -0.1994
     42 N           2.4057    1.9708   33.4379 N.ar    1  UNL1       -0.1476
@<TRIPOS>BOND
     1    25    26    1
     2    26    24    1
     3    24    27    1
     4    27    28    3
     5    24    29    1
     6    29    30    1
     7    24    17    1
     8    17    18   ar
     9    18    19   ar
    10    19    20   ar
    11    20    16    1
    12    16    15    1
    13    15     1    1
    14     1    10    1
    15    10    11    1
    16    11    12    1
    17    12    13    1
    18    13    14    1
    19     1     2    1
    20     2     3    1
    21     3     4    1
    22     3     5    2
    23     5    31    1
    24    31    32    1
    25    32    33   ar
    26    33    34   ar
    27    34    35   ar
    28    35    36   ar
    29    36    37    1
    30    36    38   ar
    31    38    39   ar
    32    39    40    1
    33    39    41   ar
    34    41    42   ar
    35     5     6    1
    36     6     7    2
    37     6     8    1
    38    20    21   ar
    39    21    22   ar
    40    22    23    1
    41    22    17   ar
    42     8     1    1
    43    14    10    1
    44    42    32   ar
    45    41    34   ar
    46     4     9    1
@<TRIPOS>MOLECULE
*****
 42 46 0 0 0
SMALL
GASTEIGER

@<TRIPOS>ATOM
      1 C           4.1587    0.7262   27.5473 C.3     1  UNL1        0.1435
      2 C           3.4998   -0.3254   28.3899 C.3     1  UNL1        0.1035
      3 C           2.6421    0.0746   29.5536 C.2     1  UNL1        0.1173
      4 O           1.9831   -0.9770   30.3962 O.2     1  UNL1       -0.5097
      5 C           2.4433    1.5262   29.8749 C.2     1  UNL1        0.0905
      6 C           3.1022    2.5778   29.0323 C.2     1  UNL1        0.3400
      7 O           2.9035    4.0295   29.3535 O.2     1  UNL1       -0.2451
      8 O           3.9600    2.1778   27.8685 O.3     1  UNL1       -0.4524
      9 H           2.1073   -1.8838   30.1956 H       1  UNL1        0.2917
     10 C           4.9865    1.3487   26.4624 C.3     1  UNL1        0.0372
     11 C           6.4434    1.0959   26.2100 C.3     1  UNL1        0.0035
     12 C           6.8601    1.9243   25.0309 C.3     1  UNL1        0.0001
     13 C           5.6608    2.6891   24.5547 C.3     1  UNL1        0.0001
     14 C           4.5029    2.3334   25.4394 C.3     1  UNL1        0.0035
     15 C           4.6450   -0.5093   26.8494 C.3     1  UNL1        0.0452
     16 C           3.7010   -1.3163   26.0082 C.3     1  UNL1        0.0300
     17 C           4.1258   -1.3264   21.5284 C.ar    1  UNL1        0.0178
     18 C           5.0718   -2.1272   22.3733 C.ar    1  UNL1       -0.0014
     19 C           4.9302   -2.1238   23.8666 C.ar    1  UNL1       -0.0044
     20 C           3.8426   -1.3197   24.5149 C.ar    1  UNL1       -0.0199
     21 C           2.8965   -0.5189   23.6700 C.ar    1  UNL1        0.0251
     22 C           3.0381   -0.5223   22.1768 C.ar    1  UNL1        0.1368
     23 F           2.0920    0.2785   21.3319 F       1  UNL1       -0.2045
     24 C           4.2674   -1.3298   20.0351 C.3     1  UNL1        0.1001
     25 C           3.5353   -3.7384   19.3926 C.3     1  UNL1        0.0014
     26 C           3.2017   -2.3809   19.9365 C.3     1  UNL1        0.0183
     27 C           4.4089   -1.3333   18.5418 C.1     1  UNL1        0.0753
     28 N           4.5505   -1.3367   17.0485 N.1     1  UNL1       -0.1956
     29 C           5.3330   -0.2788   20.1338 C.3     1  UNL1        0.0183
     30 C           5.0701    1.1061   19.6212 C.3     1  UNL1        0.0014
     31 C           1.5856    1.9263   31.0386 C.3     1  UNL1        0.1032
     32 C           2.1171    1.8115   32.4366 C.ar    1  UNL1        0.1669
     33 N           1.6853    2.6339   33.6143 N.ar    1  UNL1       -0.1930
     34 C           2.4751    2.1847   34.8078 C.ar    1  UNL1        0.2536
     35 N           2.4754    2.6352   36.2386 N.ar    1  UNL1       -0.2143
     36 C           3.3958    1.9857   37.2291 C.ar    1  UNL1        0.0637
     37 C           3.3961    2.4362   38.6600 C.3     1  UNL1        0.0522
     38 C           4.3157    0.8858   36.7890 C.ar    1  UNL1        0.0296
     39 C           4.3153    0.4352   35.3582 C.ar    1  UNL1        0.0651
     40 C           5.2353   -0.6648   34.9181 C.3     1  UNL1        0.0523
     41 N           3.3950    1.0847   34.3677 N.ar    1  UNL1       -0.1994
     42 N           3.1738    0.8540   32.9021 N.ar    1  UNL1       -0.1476
@<TRIPOS>BOND
     1    25    26    1
     2    26    24    1
     3    24    27    1
     4    27    28    3
     5    24    29    1
     6    29    30    1
     7    24    17    1
     8    17    18   ar
     9    18    19   ar
    10    19    20   ar
    11    20    16    1
    12    16    15    1
    13    15     1    1
    14     1    10    1
    15    10    11    1
    16    11    12    1
    17    12    13    1
    18    13    14    1
    19     1     2    1
    20     2     3    1
    21     3     4    1
    22     3     5    2
    23     5    31    1
    24    31    32    1
    25    32    33   ar
    26    33    34   ar
    27    34    35   ar
    28    35    36   ar
    29    36    37    1
    30    36    38   ar
    31    38    39   ar
    32    39    40    1
    33    39    41   ar
    34    41    42   ar
    35     5     6    1
    36     6     7    2
    37     6     8    1
    38    20    21   ar
    39    21    22   ar
    40    22    23    1
    41    22    17   ar
    42     8     1    1
    43    14    10    1
    44    42    32   ar
    45    41    34   ar
    46     4     9    1
@<TRIPOS>MOLECULE
*****
 42 46 0 0 0
SMALL
GASTEIGER

@<TRIPOS>ATOM
      1 C          -1.7309    3.2530   23.6903 C.3     1  UNL1        0.1435
      2 C          -0.2737    2.9080   23.6030 C.3     1  UNL1        0.1035
      3 C           0.3721    2.7137   22.2632 C.2     1  UNL1        0.1173
      4 O           1.8293    2.3687   22.1759 O.2     1  UNL1       -0.5097
      5 C          -0.4392    2.8645   21.0106 C.2     1  UNL1        0.0905
      6 C          -1.8964    3.2096   21.0979 C.2     1  UNL1        0.3400
      7 O          -2.7078    3.3604   19.8453 O.2     1  UNL1       -0.2451
      8 O          -2.5423    3.4038   22.4378 O.3     1  UNL1       -0.4524
      9 H           2.3361    2.2745   22.9584 H       1  UNL1        0.2917
     10 C          -3.0675    3.5858   24.2843 C.3     1  UNL1        0.0372
     11 C          -4.4033    3.2044   23.7185 C.3     1  UNL1        0.0035
     12 C          -5.4643    3.7413   24.6328 C.3     1  UNL1        0.0001
     13 C          -4.7843    4.4545   25.7637 C.3     1  UNL1        0.0001
     14 C          -3.3029    4.3584   25.5483 C.3     1  UNL1        0.0035
     15 C          -1.3837    3.2178   25.1492 C.3     1  UNL1        0.0452
     16 C          -0.6981    2.0159   25.7282 C.3     1  UNL1        0.0300
     17 C           0.7142    2.0716   30.0005 C.ar    1  UNL1        0.0178
     18 C          -0.2429    1.0121   29.5407 C.ar    1  UNL1       -0.0014
     19 C          -0.7137    0.9935   28.1166 C.ar    1  UNL1       -0.0044
     20 C          -0.2273    2.0345   27.1523 C.ar    1  UNL1       -0.0199
     21 C           0.7298    3.0940   27.6121 C.ar    1  UNL1        0.0251
     22 C           1.2006    3.1125   29.0362 C.ar    1  UNL1        0.1368
     23 F           2.1577    4.1721   29.4959 F       1  UNL1       -0.2045
     24 C           1.1849    2.0901   31.4246 C.3     1  UNL1        0.1001
     25 C           3.7024    1.5200   31.1288 C.3     1  UNL1        0.0014
     26 C           2.2620    1.1041   31.0813 C.3     1  UNL1        0.0183
     27 C           1.6558    2.1086   32.8487 C.1     1  UNL1        0.0753
     28 N           2.1268    2.1270   34.2727 N.1     1  UNL1       -0.1956
     29 C           0.1079    3.0761   31.7678 C.3     1  UNL1        0.0183
     30 C           0.4699    4.4078   32.3555 C.3     1  UNL1        0.0014
     31 C           0.2065    2.6703   19.6707 C.3     1  UNL1        0.1032
     32 C           1.1451    1.5212   19.4500 C.ar    1  UNL1        0.1669
     33 N           1.0080    0.1462   20.0335 N.ar    1  UNL1       -0.1930
     34 C           2.1637   -0.6793   19.5512 C.ar    1  UNL1        0.2536
     35 N           2.5509   -2.1068   19.8008 N.ar    1  UNL1       -0.2143
     36 C           3.7895   -2.6695   19.1688 C.ar    1  UNL1        0.0637
     37 C           4.1766   -4.0971   19.4185 C.3     1  UNL1        0.0522
     38 C           4.6409   -1.8047   18.2873 C.ar    1  UNL1        0.0296
     39 C           4.2538   -0.3772   18.0377 C.ar    1  UNL1        0.0651
     40 C           5.1052    0.4876   17.1561 C.3     1  UNL1        0.0523
     41 N           3.0152    0.1855   18.6696 N.ar    1  UNL1       -0.1994
     42 N           2.3856    1.5455   18.6071 N.ar    1  UNL1       -0.1476
@<TRIPOS>BOND
     1    25    26    1
     2    26    24    1
     3    24    27    1
     4    27    28    3
     5    24    29    1
     6    29    30    1
     7    24    17    1
     8    17    18   ar
     9    18    19   ar
    10    19    20   ar
    11    20    16    1
    12    16    15    1
    13    15     1    1
    14     1    10    1
    15    10    11    1
    16    11    12    1
    17    12    13    1
    18    13    14    1
    19     1     2    1
    20     2     3    1
    21     3     4    1
    22     3     5    2
    23     5    31    1
    24    31    32    1
    25    32    33   ar
    26    33    34   ar
    27    34    35   ar
    28    35    36   ar
    29    36    37    1
    30    36    38   ar
    31    38    39   ar
    32    39    40    1
    33    39    41   ar
    34    41    42   ar
    35     5     6    1
    36     6     7    2
    37     6     8    1
    38    20    21   ar
    39    21    22   ar
    40    22    23    1
    41    22    17   ar
    42     8     1    1
    43    14    10    1
    44    42    32   ar
    45    41    34   ar
    46     4     9    1
