@<TRIPOS>MOLECULE
*****
 21 23 0 0 0
SMALL
GASTEIGER

@<TRIPOS>ATOM
      1 C         -11.3486  -15.8607   19.4619 C.3     1  UNL1        0.0998
      2 C         -11.5209  -16.6683   20.7142 C.2     1  UNL1        0.2573
      3 O         -12.7825  -16.5480   21.5165 O.2     1  UNL1       -0.2701
      4 N         -10.4314  -17.5961   21.1642 N.ar    1  UNL1       -0.1978
      5 N          -9.1213  -17.8203   20.4690 N.ar    1  UNL1       -0.1579
      6 C          -8.3411  -18.8253   21.2635 C.ar    1  UNL1        0.1585
      7 C          -9.1690  -19.2221   22.4497 C.ar    1  UNL1        0.0418
      8 C          -8.9134  -20.1771   23.5778 C.ar    1  UNL1        0.0032
      9 C          -9.9497  -20.3723   24.6445 C.ar    1  UNL1        0.0001
     10 C         -11.2416  -19.6126   24.5832 C.ar    1  UNL1        0.0015
     11 C         -11.4972  -18.6576   23.4551 C.ar    1  UNL1        0.0193
     12 C         -10.4609  -18.4624   22.3883 C.ar    1  UNL1        0.0873
     13 C          -6.9732  -19.3427   20.9303 C.ar    1  UNL1        0.2792
     14 N          -5.6757  -18.6368   21.1917 N.ar    1  UNL1       -0.1884
     15 C          -4.5631  -19.5146   20.7002 C.ar    1  UNL1        0.1965
     16 N          -5.1730  -20.7631   20.1350 N.ar    1  UNL1       -0.0587
     17 O          -6.6625  -20.6568   20.2772 O.2     1  UNL1       -0.3311
     18 C          -3.0980  -19.1994   20.7628 C.3     1  UNL1        0.1355
     19 N          -2.1529  -20.1552   21.4286 N.3     1  UNL1       -0.3147
     20 H          -2.3608  -20.1995   22.4262 H       1  UNL1        0.1192
     21 H          -1.1941  -19.8339   21.2950 H       1  UNL1        0.1192
@<TRIPOS>BOND
     1     1     2    1
     2     2     3    2
     3     2     4   am
     4     4     5   ar
     5     5     6   ar
     6     6    13    1
     7    13    14   ar
     8    14    15   ar
     9    15    18    1
    10    18    19    1
    11    15    16   ar
    12    16    17   ar
    13     6     7   ar
    14     7     8   ar
    15     8     9   ar
    16     9    10   ar
    17    10    11   ar
    18    11    12   ar
    19    12     4   ar
    20    17    13   ar
    21    12     7   ar
    22    19    20    1
    23    19    21    1
@<TRIPOS>MOLECULE
*****
 21 23 0 0 0
SMALL
GASTEIGER

@<TRIPOS>ATOM
      1 C          -8.2719  -15.9329   24.7981 C.3     1  UNL1        0.0998
      2 C          -8.8365  -16.6940   23.6352 C.2     1  UNL1        0.2573
      3 O         -10.3131  -16.6757   23.3728 O.2     1  UNL1       -0.2701
      4 N          -7.9242  -17.4732   22.7348 N.ar    1  UNL1       -0.1978
      5 N          -6.4346  -17.5843   22.8714 N.ar    1  UNL1       -0.1579
      6 C          -5.9313  -18.4579   21.7608 C.ar    1  UNL1        0.1585
      7 C          -7.1098  -18.8868   20.9379 C.ar    1  UNL1        0.0418
      8 C          -7.2205  -19.7528   19.7182 C.ar    1  UNL1        0.0032
      9 C          -8.5629  -20.0102   19.1005 C.ar    1  UNL1        0.0001
     10 C          -9.7946  -19.4016   19.7025 C.ar    1  UNL1        0.0015
     11 C          -9.6840  -18.5356   20.9222 C.ar    1  UNL1        0.0193
     12 C          -8.3415  -18.2782   21.5399 C.ar    1  UNL1        0.0873
     13 C          -4.5005  -18.8363   21.5160 C.ar    1  UNL1        0.2792
     14 N          -3.5506  -18.1391   20.5879 N.ar    1  UNL1       -0.1884
     15 C          -2.2315  -18.8502   20.6546 C.ar    1  UNL1        0.1965
     16 N          -2.3663  -19.9869   21.6241 N.ar    1  UNL1       -0.0587
     17 O          -3.7687  -19.9783   22.1564 O.2     1  UNL1       -0.3311
     18 C          -0.9949  -18.4882   19.8868 C.3     1  UNL1        0.1355
     19 N          -1.1092  -17.7564   18.5824 N.3     1  UNL1       -0.3147
     20 H          -1.5673  -18.3554   17.8955 H       1  UNL1        0.1192
     21 H          -0.1777  -17.5078   18.2493 H       1  UNL1        0.1192
@<TRIPOS>BOND
     1     1     2    1
     2     2     3    2
     3     2     4   am
     4     4     5   ar
     5     5     6   ar
     6     6    13    1
     7    13    14   ar
     8    14    15   ar
     9    15    18    1
    10    18    19    1
    11    15    16   ar
    12    16    17   ar
    13     6     7   ar
    14     7     8   ar
    15     8     9   ar
    16     9    10   ar
    17    10    11   ar
    18    11    12   ar
    19    12     4   ar
    20    17    13   ar
    21    12     7   ar
    22    19    20    1
    23    19    21    1
@<TRIPOS>MOLECULE
*****
 21 23 0 0 0
SMALL
GASTEIGER

@<TRIPOS>ATOM
      1 C         -10.9707  -20.0614   21.6413 C.3     1  UNL1        0.0998
      2 C         -10.5809  -18.8600   22.4507 C.2     1  UNL1        0.2573
      3 O         -11.6352  -18.0469   23.1413 O.2     1  UNL1       -0.2701
      4 N          -9.1368  -18.4720   22.5693 N.ar    1  UNL1       -0.1978
      5 N          -7.9776  -19.1849   21.9384 N.ar    1  UNL1       -0.1579
      6 C          -6.7228  -18.4564   22.3189 C.ar    1  UNL1        0.1585
      7 C          -7.1065  -17.2933   23.1849 C.ar    1  UNL1        0.0418
      8 C          -6.2901  -16.2267   23.8526 C.ar    1  UNL1        0.0032
      9 C          -6.9656  -15.1697   24.6750 C.ar    1  UNL1        0.0001
     10 C          -8.4576  -15.1794   24.8298 C.ar    1  UNL1        0.0015
     11 C          -9.2740  -16.2460   24.1621 C.ar    1  UNL1        0.0193
     12 C          -8.5984  -17.3029   23.3397 C.ar    1  UNL1        0.0873
     13 C          -5.3290  -18.8261   21.9059 C.ar    1  UNL1        0.2792
     14 N          -4.6769  -18.4849   20.5989 N.ar    1  UNL1       -0.1884
     15 C          -3.2874  -19.0498   20.6125 C.ar    1  UNL1        0.1965
     16 N          -3.0808  -19.7402   21.9281 N.ar    1  UNL1       -0.0587
     17 O          -4.3425  -19.6020   22.7274 O.2     1  UNL1       -0.3311
     18 C          -2.2813  -18.9431   19.5052 C.3     1  UNL1        0.1355
     19 N          -0.8321  -18.7272   19.8267 N.3     1  UNL1       -0.3147
     20 H          -0.7120  -17.8095   20.2555 H       1  UNL1        0.1192
     21 H          -0.2825  -18.7762   18.9689 H       1  UNL1        0.1192
@<TRIPOS>BOND
     1     1     2    1
     2     2     3    2
     3     2     4   am
     4     4     5   ar
     5     5     6   ar
     6     6    13    1
     7    13    14   ar
     8    14    15   ar
     9    15    18    1
    10    18    19    1
    11    15    16   ar
    12    16    17   ar
    13     6     7   ar
    14     7     8   ar
    15     8     9   ar
    16     9    10   ar
    17    10    11   ar
    18    11    12   ar
    19    12     4   ar
    20    17    13   ar
    21    12     7   ar
    22    19    20    1
    23    19    21    1
@<TRIPOS>MOLECULE
*****
 21 23 0 0 0
SMALL
GASTEIGER

@<TRIPOS>ATOM
      1 C          -4.7574  -15.9222   24.4675 C.3     1  UNL1        0.0998
      2 C          -4.5014  -17.0871   23.5578 C.2     1  UNL1        0.2573
      3 O          -3.1207  -17.6623   23.4464 O.2     1  UNL1       -0.2701
      4 N          -5.6262  -17.6767   22.7595 N.ar    1  UNL1       -0.1978
      5 N          -7.0519  -17.2104   22.7673 N.ar    1  UNL1       -0.1579
      6 C          -7.8296  -18.0816   21.8259 C.ar    1  UNL1        0.1585
      7 C          -6.8846  -19.0863   21.2363 C.ar    1  UNL1        0.0418
      8 C          -7.0881  -20.1967   20.2487 C.ar    1  UNL1        0.0032
      9 C          -5.9299  -21.0568   19.8380 C.ar    1  UNL1        0.0001
     10 C          -4.5681  -20.8065   20.4150 C.ar    1  UNL1        0.0015
     11 C          -4.3646  -19.6961   21.4027 C.ar    1  UNL1        0.0193
     12 C          -5.5228  -18.8360   21.8134 C.ar    1  UNL1        0.0873
     13 C          -9.2950  -17.9681   21.5266 C.ar    1  UNL1        0.2792
     14 N          -9.9880  -16.7662   20.9564 N.ar    1  UNL1       -0.1884
     15 C         -11.4461  -17.0918   20.8223 C.ar    1  UNL1        0.1965
     16 N         -11.6542  -18.4951   21.3098 N.ar    1  UNL1       -0.0587
     17 O         -10.3248  -19.0367   21.7450 O.2     1  UNL1       -0.3311
     18 C         -12.5092  -16.1753   20.2938 C.3     1  UNL1        0.1355
     19 N         -12.3019  -15.4575   18.9930 N.3     1  UNL1       -0.3147
     20 H         -11.5355  -14.7916   19.0905 H       1  UNL1        0.1192
     21 H         -13.1552  -14.9592   18.7398 H       1  UNL1        0.1192
@<TRIPOS>BOND
     1     1     2    1
     2     2     3    2
     3     2     4   am
     4     4     5   ar
     5     5     6   ar
     6     6    13    1
     7    13    14   ar
     8    14    15   ar
     9    15    18    1
    10    18    19    1
    11    15    16   ar
    12    16    17   ar
    13     6     7   ar
    14     7     8   ar
    15     8     9   ar
    16     9    10   ar
    17    10    11   ar
    18    11    12   ar
    19    12     4   ar
    20    17    13   ar
    21    12     7   ar
    22    19    20    1
    23    19    21    1
@<TRIPOS>MOLECULE
*****
 21 23 0 0 0
SMALL
GASTEIGER

@<TRIPOS>ATOM
      1 C          -9.4560   -7.1109   18.5053 C.3     1  UNL1        0.0998
      2 C         -10.4035   -6.0296   18.9333 C.2     1  UNL1        0.2573
      3 O          -9.8768   -4.6761   19.3082 O.2     1  UNL1       -0.2701
      4 N         -11.8776   -6.3019   18.9864 N.ar    1  UNL1       -0.1978
      5 N         -12.5475   -7.5992   18.6426 N.ar    1  UNL1       -0.1579
      6 C         -14.0246   -7.4237   18.8364 C.ar    1  UNL1        0.1585
      7 C         -14.2675   -6.0179   19.2999 C.ar    1  UNL1        0.0418
      8 C         -15.5255   -5.2797   19.6495 C.ar    1  UNL1        0.0032
      9 C         -15.4567   -3.8481   20.0919 C.ar    1  UNL1        0.0001
     10 C         -14.1297   -3.1547   20.1846 C.ar    1  UNL1        0.0015
     11 C         -12.8717   -3.8930   19.8350 C.ar    1  UNL1        0.0193
     12 C         -12.9406   -5.3246   19.3927 C.ar    1  UNL1        0.0873
     13 C         -15.0744   -8.4702   18.6069 C.ar    1  UNL1        0.2792
     14 N         -16.4967   -8.2185   18.2024 N.ar    1  UNL1       -0.1884
     15 C         -17.1876   -9.5449   18.0871 C.ar    1  UNL1        0.1965
     16 N         -16.1922  -10.6164   18.4203 N.ar    1  UNL1       -0.0587
     17 O         -14.8861   -9.9522   18.7416 O.2     1  UNL1       -0.3311
     18 C         -18.6219   -9.7617   17.7056 C.3     1  UNL1        0.1355
     19 N         -19.3448  -10.9903   18.1728 N.3     1  UNL1       -0.3147
     20 H         -18.9271  -11.8151   17.7419 H       1  UNL1        0.1192
     21 H         -20.3275  -10.9284   17.9065 H       1  UNL1        0.1192
@<TRIPOS>BOND
     1     1     2    1
     2     2     3    2
     3     2     4   am
     4     4     5   ar
     5     5     6   ar
     6     6    13    1
     7    13    14   ar
     8    14    15   ar
     9    15    18    1
    10    18    19    1
    11    15    16   ar
    12    16    17   ar
    13     6     7   ar
    14     7     8   ar
    15     8     9   ar
    16     9    10   ar
    17    10    11   ar
    18    11    12   ar
    19    12     4   ar
    20    17    13   ar
    21    12     7   ar
    22    19    20    1
    23    19    21    1
@<TRIPOS>MOLECULE
*****
 21 23 0 0 0
SMALL
GASTEIGER

@<TRIPOS>ATOM
      1 C         -14.7190   -1.8967   19.4466 C.3     1  UNL1        0.0998
      2 C         -13.3605   -2.5212   19.3257 C.2     1  UNL1        0.2573
      3 O         -12.1331   -1.6599   19.3634 O.2     1  UNL1       -0.2701
      4 N         -13.2296   -4.0071   19.1670 N.ar    1  UNL1       -0.1978
      5 N         -14.3605   -4.9910   19.1126 N.ar    1  UNL1       -0.1579
      6 C         -13.7745   -6.3618   18.9468 C.ar    1  UNL1        0.1585
      7 C         -12.2815   -6.2251   18.8987 C.ar    1  UNL1        0.0418
      8 C         -11.1853   -7.2378   18.7487 C.ar    1  UNL1        0.0032
      9 C          -9.7522   -6.7951   18.7346 C.ar    1  UNL1        0.0001
     10 C          -9.4154   -5.3398   18.8707 C.ar    1  UNL1        0.0015
     11 C         -10.5116   -4.3271   19.0208 C.ar    1  UNL1        0.0193
     12 C         -11.9447   -4.7698   19.0348 C.ar    1  UNL1        0.0873
     13 C         -14.5461   -7.6443   18.8467 C.ar    1  UNL1        0.2792
     14 N         -15.9178   -7.8934   19.3999 N.ar    1  UNL1       -0.1884
     15 C         -16.3010   -9.3059   19.0709 C.ar    1  UNL1        0.1965
     16 N         -15.1658   -9.9297   18.3143 N.ar    1  UNL1       -0.0587
     17 O         -14.0813   -8.9027   18.1757 O.2     1  UNL1       -0.3311
     18 C         -17.5923   -9.9767   19.4346 C.3     1  UNL1        0.1355
     19 N         -18.1535  -11.0520   18.5520 N.3     1  UNL1       -0.3147
     20 H         -18.4174  -10.6502   17.6524 H       1  UNL1        0.1192
     21 H         -18.9756  -11.4615   18.9958 H       1  UNL1        0.1192
@<TRIPOS>BOND
     1     1     2    1
     2     2     3    2
     3     2     4   am
     4     4     5   ar
     5     5     6   ar
     6     6    13    1
     7    13    14   ar
     8    14    15   ar
     9    15    18    1
    10    18    19    1
    11    15    16   ar
    12    16    17   ar
    13     6     7   ar
    14     7     8   ar
    15     8     9   ar
    16     9    10   ar
    17    10    11   ar
    18    11    12   ar
    19    12     4   ar
    20    17    13   ar
    21    12     7   ar
    22    19    20    1
    23    19    21    1
@<TRIPOS>MOLECULE
*****
 21 23 0 0 0
SMALL
GASTEIGER

@<TRIPOS>ATOM
      1 C          -5.8009  -15.3540   24.9963 C.3     1  UNL1        0.0998
      2 C          -5.6064  -16.3892   23.9282 C.2     1  UNL1        0.2573
      3 O          -4.2211  -16.7852   23.5111 O.2     1  UNL1       -0.2701
      4 N          -6.7972  -17.0283   23.2775 N.ar    1  UNL1       -0.1978
      5 N          -8.2351  -16.7355   23.5887 N.ar    1  UNL1       -0.1579
      6 C          -9.0857  -17.5987   22.7047 C.ar    1  UNL1        0.1585
      7 C          -8.1736  -18.4250   21.8473 C.ar    1  UNL1        0.0418
      8 C          -8.4482  -19.4529   20.7899 C.ar    1  UNL1        0.0032
      9 C          -7.3085  -20.1282   20.0865 C.ar    1  UNL1        0.0001
     10 C          -5.8941  -19.7757   20.4405 C.ar    1  UNL1        0.0015
     11 C          -5.6195  -18.7479   21.4978 C.ar    1  UNL1        0.0193
     12 C          -6.7592  -18.0725   22.2012 C.ar    1  UNL1        0.0873
     13 C         -10.5852  -17.6300   22.6822 C.ar    1  UNL1        0.2792
     14 N         -11.4770  -17.9895   23.8335 N.ar    1  UNL1       -0.1884
     15 C         -12.8992  -17.8891   23.3673 C.ar    1  UNL1        0.1965
     16 N         -12.8863  -17.4675   21.9278 N.ar    1  UNL1       -0.0587
     17 O         -11.4562  -17.3074   21.5044 O.2     1  UNL1       -0.3311
     18 C         -14.1197  -18.1622   24.1951 C.3     1  UNL1        0.1355
     19 N         -13.9766  -18.5532   25.6363 N.3     1  UNL1       -0.3147
     20 H         -13.5213  -19.4639   25.6979 H       1  UNL1        0.1192
     21 H         -14.8993  -18.6045   26.0679 H       1  UNL1        0.1192
@<TRIPOS>BOND
     1     1     2    1
     2     2     3    2
     3     2     4   am
     4     4     5   ar
     5     5     6   ar
     6     6    13    1
     7    13    14   ar
     8    14    15   ar
     9    15    18    1
    10    18    19    1
    11    15    16   ar
    12    16    17   ar
    13     6     7   ar
    14     7     8   ar
    15     8     9   ar
    16     9    10   ar
    17    10    11   ar
    18    11    12   ar
    19    12     4   ar
    20    17    13   ar
    21    12     7   ar
    22    19    20    1
    23    19    21    1
@<TRIPOS>MOLECULE
*****
 21 23 0 0 0
SMALL
GASTEIGER

@<TRIPOS>ATOM
      1 C         -17.5981   -1.9782   19.7505 C.3     1  UNL1        0.0998
      2 C         -16.1056   -2.0294   19.6083 C.2     1  UNL1        0.2573
      3 O         -15.3046   -0.7619   19.6490 O.2     1  UNL1       -0.2701
      4 N         -15.4144   -3.3480   19.4254 N.ar    1  UNL1       -0.1978
      5 N         -16.0795   -4.6912   19.3653 N.ar    1  UNL1       -0.1579
      6 C         -15.0129   -5.7282   19.1732 C.ar    1  UNL1        0.1585
      7 C         -13.6887   -5.0260   19.1146 C.ar    1  UNL1        0.0418
      8 C         -12.2890   -5.5360   18.9394 C.ar    1  UNL1        0.0032
      9 C         -11.1375   -4.5750   18.9201 C.ar    1  UNL1        0.0001
     10 C         -11.3857   -3.1039   19.0760 C.ar    1  UNL1        0.0015
     11 C         -12.7854   -2.5938   19.2512 C.ar    1  UNL1        0.0193
     12 C         -13.9369   -3.5549   19.2704 C.ar    1  UNL1        0.0873
     13 C         -15.2319   -7.2078   19.0596 C.ar    1  UNL1        0.2792
     14 N         -16.5070   -7.9363   19.3649 N.ar    1  UNL1       -0.1884
     15 C         -16.2776   -9.3974   19.1148 C.ar    1  UNL1        0.1965
     16 N         -14.8605   -9.5718   18.6549 N.ar    1  UNL1       -0.0587
     17 O         -14.2143   -8.2186   18.6208 O.2     1  UNL1       -0.3311
     18 C         -17.2877  -10.4918   19.2933 C.3     1  UNL1        0.1355
     19 N         -16.8915  -11.9216   19.0721 N.3     1  UNL1       -0.3147
     20 H         -16.6597  -12.0619   18.0888 H       1  UNL1        0.1192
     21 H         -17.6664  -12.5328   19.3294 H       1  UNL1        0.1192
@<TRIPOS>BOND
     1     1     2    1
     2     2     3    2
     3     2     4   am
     4     4     5   ar
     5     5     6   ar
     6     6    13    1
     7    13    14   ar
     8    14    15   ar
     9    15    18    1
    10    18    19    1
    11    15    16   ar
    12    16    17   ar
    13     6     7   ar
    14     7     8   ar
    15     8     9   ar
    16     9    10   ar
    17    10    11   ar
    18    11    12   ar
    19    12     4   ar
    20    17    13   ar
    21    12     7   ar
    22    19    20    1
    23    19    21    1
@<TRIPOS>MOLECULE
*****
 21 23 0 0 0
SMALL
GASTEIGER

@<TRIPOS>ATOM
      1 C          -3.8205  -17.3261   23.8166 C.3     1  UNL1        0.0998
      2 C          -4.1491  -18.3776   22.7984 C.2     1  UNL1        0.2573
      3 O          -3.0910  -19.3394   22.3454 O.2     1  UNL1       -0.2701
      4 N          -5.5357  -18.4672   22.2334 N.ar    1  UNL1       -0.1978
      5 N          -6.6915  -17.5794   22.5884 N.ar    1  UNL1       -0.1579
      6 C          -7.8800  -18.0238   21.7885 C.ar    1  UNL1        0.1585
      7 C          -7.4588  -19.1862   20.9391 C.ar    1  UNL1        0.0418
      8 C          -8.2074  -20.0305   19.9508 C.ar    1  UNL1        0.0032
      9 C          -7.5071  -21.1488   19.2375 C.ar    1  UNL1        0.0001
     10 C          -6.0582  -21.4228   19.5124 C.ar    1  UNL1        0.0015
     11 C          -5.3096  -20.5785   20.5007 C.ar    1  UNL1        0.0193
     12 C          -6.0099  -19.4602   21.2140 C.ar    1  UNL1        0.0873
     13 C          -9.2494  -17.4131   21.8306 C.ar    1  UNL1        0.2792
     14 N         -10.4899  -18.0658   22.3643 N.ar    1  UNL1       -0.1884
     15 C         -11.6260  -17.0985   22.2100 C.ar    1  UNL1        0.1965
     16 N         -11.0874  -15.8479   21.5808 N.ar    1  UNL1       -0.0587
     17 O          -9.6187  -16.0422   21.3463 O.2     1  UNL1       -0.3311
     18 C         -13.0502  -17.3395   22.6138 C.3     1  UNL1        0.1355
     19 N         -13.3552  -18.0709   23.8875 N.3     1  UNL1       -0.3147
     20 H         -13.0340  -19.0359   23.8107 H       1  UNL1        0.1192
     21 H         -14.3616  -18.0597   24.0534 H       1  UNL1        0.1192
@<TRIPOS>BOND
     1     1     2    1
     2     2     3    2
     3     2     4   am
     4     4     5   ar
     5     5     6   ar
     6     6    13    1
     7    13    14   ar
     8    14    15   ar
     9    15    18    1
    10    18    19    1
    11    15    16   ar
    12    16    17   ar
    13     6     7   ar
    14     7     8   ar
    15     8     9   ar
    16     9    10   ar
    17    10    11   ar
    18    11    12   ar
    19    12     4   ar
    20    17    13   ar
    21    12     7   ar
    22    19    20    1
    23    19    21    1
