@<TRIPOS>MOLECULE
*****
 39 42 0 0 0
SMALL
GASTEIGER

@<TRIPOS>ATOM
      1 C          -4.7888  -18.8886   21.5181 C.ar    1  UNL1        0.0053
      2 C          -5.0407  -20.3608   21.6568 C.ar    1  UNL1        0.0033
      3 C          -6.4016  -20.8551   22.0484 C.ar    1  UNL1        0.0382
      4 C          -7.5106  -19.8773   22.3014 C.ar    1  UNL1        0.1529
      5 C          -7.2587  -18.4052   22.1627 C.ar    1  UNL1        0.0882
      6 C          -5.8978  -17.9108   21.7710 C.ar    1  UNL1        0.0181
      7 N          -8.3678  -17.4274   22.4156 N.am    1  UNL1       -0.2512
      8 C          -9.7287  -17.9218   22.8072 C.2     1  UNL1        0.2698
      9 O         -10.8377  -16.9440   23.0602 O.2     1  UNL1       -0.2704
     10 C          -9.9806  -19.3940   22.9459 C.3     1  UNL1        0.2197
     11 C         -10.7051  -20.6820   23.2035 C.3     1  UNL1        0.0579
     12 O          -8.8716  -20.3718   22.6930 O.3     1  UNL1       -0.4686
     13 C          -2.7457  -17.3431   21.9511 C.ar    1  UNL1        0.0645
     14 N          -1.3848  -16.8487   21.5595 N.ar    1  UNL1       -0.2183
     15 C          -0.7059  -17.4053   20.3432 C.ar    1  UNL1        0.2145
     16 N           0.6551  -16.9109   19.9516 N.pl3   1  UNL1       -0.3274
     17 N          -1.3879  -18.4564   19.5186 N.ar    1  UNL1       -0.1995
     18 C          -2.7489  -18.9508   19.9102 C.ar    1  UNL1        0.1293
     19 N          -3.4310  -20.0019   19.0856 N.pl3   1  UNL1       -0.3425
     20 C          -3.4278  -18.3942   21.1264 C.ar    1  UNL1        0.0449
     21 H           1.1027  -16.2210   20.4929 H       1  UNL1        0.1452
     22 H           1.1006  -17.2762   19.1534 H       1  UNL1        0.1452
     23 H          -2.9854  -20.3673   18.2873 H       1  UNL1        0.1437
     24 H          -4.3242  -20.3264   19.3426 H       1  UNL1        0.1437
     25 C          -3.5360  -17.6180   24.4108 C.3     1  UNL1        0.0067
     26 C          -3.4247  -16.7864   23.1674 C.3     1  UNL1        0.0460
     27 C         -11.3412  -18.8635   23.2883 C.ar    1  UNL1        0.0219
     28 C         -12.2181  -18.2966   22.2114 C.ar    1  UNL1       -0.0005
     29 C         -13.5787  -17.7661   22.5538 C.ar    1  UNL1       -0.0002
     30 C         -14.0626  -17.8025   23.9731 C.ar    1  UNL1       -0.0000
     31 C         -13.1857  -18.3694   25.0500 C.ar    1  UNL1       -0.0002
     32 C         -11.8251  -18.8999   24.7077 C.ar    1  UNL1       -0.0005
     33 C          -8.1159  -15.9553   22.2769 C.3     1  UNL1        0.1196
     34 C          -7.5126  -15.1871   23.4153 C.3     1  UNL1        0.1113
     35 N          -7.7330  -15.6423   24.8275 N.am    1  UNL1       -0.3026
     36 C          -6.6704  -15.4180   25.8623 C.2     1  UNL1        0.2230
     37 C          -6.8908  -15.8731   27.2744 C.3     1  UNL1        0.0946
     38 O          -5.3875  -14.7386   25.4848 O.2     1  UNL1       -0.2751
     39 H          -8.5750  -16.0882   25.0752 H       1  UNL1        0.1495
@<TRIPOS>BOND
     1    25    26    1
     2    26    13    1
     3    13    14   ar
     4    14    15   ar
     5    15    16    1
     6    15    17   ar
     7    17    18   ar
     8    18    19    1
     9    18    20   ar
    10    20     1    1
    11     1     2   ar
    12     2     3   ar
    13     3     4   ar
    14     4     5   ar
    15     5     6   ar
    16     5     7    1
    17     7    33    1
    18    33    34    1
    19    34    35    1
    20    35    36   am
    21    36    37    1
    22    36    38    2
    23     7     8   am
    24     8     9    2
    25     8    10    1
    26    10    11    1
    27    10    27    1
    28    27    28   ar
    29    28    29   ar
    30    29    30   ar
    31    30    31   ar
    32    31    32   ar
    33    10    12    1
    34    20    13   ar
    35     6     1   ar
    36    32    27   ar
    37    12     4    1
    38    16    21    1
    39    16    22    1
    40    19    23    1
    41    19    24    1
    42    35    39    1
@<TRIPOS>MOLECULE
*****
 39 42 0 0 0
SMALL
GASTEIGER

@<TRIPOS>ATOM
      1 C          -9.7037  -18.9159   22.0848 C.ar    1  UNL1        0.0053
      2 C          -9.6807  -19.7254   20.8223 C.ar    1  UNL1        0.0033
      3 C          -8.3904  -19.9277   20.0845 C.ar    1  UNL1        0.0382
      4 C          -7.1232  -19.3203   20.6093 C.ar    1  UNL1        0.1529
      5 C          -7.1463  -18.5108   21.8718 C.ar    1  UNL1        0.0882
      6 C          -8.4365  -18.3085   22.6096 C.ar    1  UNL1        0.0181
      7 N          -5.8791  -17.9035   22.3966 N.am    1  UNL1       -0.2512
      8 C          -4.5888  -18.1057   21.6588 C.2     1  UNL1        0.2698
      9 O          -3.3216  -17.4984   22.1836 O.2     1  UNL1       -0.2704
     10 C          -4.5657  -18.9153   20.3962 C.3     1  UNL1        0.2197
     11 C          -4.0391  -19.5961   19.1678 C.3     1  UNL1        0.0579
     12 O          -5.8329  -19.5226   19.8715 O.3     1  UNL1       -0.4686
     13 C         -12.1425  -18.0224   22.1494 C.ar    1  UNL1        0.0645
     14 N         -13.4327  -17.8201   22.8872 N.ar    1  UNL1       -0.2183
     15 C         -13.5745  -18.3090   24.2982 C.ar    1  UNL1        0.2145
     16 N         -14.8647  -18.1067   25.0360 N.pl3   1  UNL1       -0.3274
     17 N         -12.4260  -19.0002   24.9714 N.ar    1  UNL1       -0.1995
     18 C         -11.1357  -19.2025   24.2336 C.ar    1  UNL1        0.1293
     19 N          -9.9872  -19.8937   24.9068 N.pl3   1  UNL1       -0.3425
     20 C         -10.9940  -18.7136   22.8226 C.ar    1  UNL1        0.0449
     21 H         -15.6185  -17.6531   24.5941 H       1  UNL1        0.1452
     22 H         -14.9578  -18.4276   25.9621 H       1  UNL1        0.1452
     23 H         -10.0803  -20.2145   25.8329 H       1  UNL1        0.1437
     24 H          -9.1404  -20.0264   24.4226 H       1  UNL1        0.1437
     25 C         -11.5203  -16.1375   20.4731 C.3     1  UNL1        0.0067
     26 C         -12.0007  -17.5335   20.7384 C.3     1  UNL1        0.0460
     27 C          -3.1157  -18.5444   20.4944 C.ar    1  UNL1        0.0219
     28 C          -2.5835  -17.3836   19.7075 C.ar    1  UNL1       -0.0005
     29 C          -1.1334  -17.0127   19.8056 C.ar    1  UNL1       -0.0002
     30 C          -0.2154  -17.8026   20.6906 C.ar    1  UNL1       -0.0000
     31 C          -0.7476  -18.9634   21.4775 C.ar    1  UNL1       -0.0002
     32 C          -2.1977  -19.3344   21.3794 C.ar    1  UNL1       -0.0005
     33 C          -5.9021  -17.0939   23.6591 C.3     1  UNL1        0.1196
     34 C          -6.7350  -15.8488   23.7366 C.3     1  UNL1        0.1113
     35 N          -6.9943  -15.2014   25.0647 N.am    1  UNL1       -0.3026
     36 C          -8.0608  -15.7450   25.9686 C.2     1  UNL1        0.2230
     37 C          -8.3201  -15.0976   27.2966 C.3     1  UNL1        0.0946
     38 O          -8.8680  -16.9361   25.5444 O.2     1  UNL1       -0.2751
     39 H          -6.4645  -14.4196   25.3430 H       1  UNL1        0.1495
@<TRIPOS>BOND
     1    25    26    1
     2    26    13    1
     3    13    14   ar
     4    14    15   ar
     5    15    16    1
     6    15    17   ar
     7    17    18   ar
     8    18    19    1
     9    18    20   ar
    10    20     1    1
    11     1     2   ar
    12     2     3   ar
    13     3     4   ar
    14     4     5   ar
    15     5     6   ar
    16     5     7    1
    17     7    33    1
    18    33    34    1
    19    34    35    1
    20    35    36   am
    21    36    37    1
    22    36    38    2
    23     7     8   am
    24     8     9    2
    25     8    10    1
    26    10    11    1
    27    10    27    1
    28    27    28   ar
    29    28    29   ar
    30    29    30   ar
    31    30    31   ar
    32    31    32   ar
    33    10    12    1
    34    20    13   ar
    35     6     1   ar
    36    32    27   ar
    37    12     4    1
    38    16    21    1
    39    16    22    1
    40    19    23    1
    41    19    24    1
    42    35    39    1
@<TRIPOS>MOLECULE
*****
 39 42 0 0 0
SMALL
GASTEIGER

@<TRIPOS>ATOM
      1 C          -4.9628  -18.9114   21.6600 C.ar    1  UNL1        0.0053
      2 C          -5.1931  -20.3862   21.8076 C.ar    1  UNL1        0.0033
      3 C          -6.5417  -20.8971   22.2204 C.ar    1  UNL1        0.0382
      4 C          -7.6599  -19.9331   22.4855 C.ar    1  UNL1        0.1529
      5 C          -7.4296  -18.4583   22.3380 C.ar    1  UNL1        0.0882
      6 C          -6.0810  -17.9474   21.9252 C.ar    1  UNL1        0.0181
      7 N          -8.5478  -17.4943   22.6031 N.am    1  UNL1       -0.2512
      8 C          -9.8963  -18.0051   23.0159 C.2     1  UNL1        0.2698
      9 O         -11.0146  -17.0411   23.2810 O.2     1  UNL1       -0.2704
     10 C         -10.1267  -19.4800   23.1635 C.3     1  UNL1        0.2197
     11 C         -10.8303  -20.7764   23.4360 C.3     1  UNL1        0.0579
     12 O          -9.0085  -20.4440   22.8983 O.3     1  UNL1       -0.4686
     13 C          -2.9273  -17.3491   22.0674 C.ar    1  UNL1        0.0645
     14 N          -1.5787  -16.8382   21.6547 N.ar    1  UNL1       -0.2183
     15 C          -0.9170  -17.3787   20.4218 C.ar    1  UNL1        0.2145
     16 N           0.4315  -16.8678   20.0091 N.pl3   1  UNL1       -0.3274
     17 N          -1.6040  -18.4301   19.6016 N.ar    1  UNL1       -0.1995
     18 C          -2.9526  -18.9410   20.0144 C.ar    1  UNL1        0.1293
     19 N          -3.6395  -19.9924   19.1942 N.pl3   1  UNL1       -0.3425
     20 C          -3.6142  -18.4005   21.2473 C.ar    1  UNL1        0.0449
     21 H           0.8823  -16.1777   20.5474 H       1  UNL1        0.1452
     22 H           0.8658  -17.2225   19.1999 H       1  UNL1        0.1452
     23 H          -3.2052  -20.3472   18.3850 H       1  UNL1        0.1437
     24 H          -4.5246  -20.3277   19.4651 H       1  UNL1        0.1437
     25 C          -3.5788  -17.6088   24.5691 C.3     1  UNL1        0.0067
     26 C          -3.5890  -16.8086   23.3004 C.3     1  UNL1        0.0460
     27 C         -11.4893  -18.9662   23.5233 C.ar    1  UNL1        0.0219
     28 C         -12.3991  -18.4401   22.4531 C.ar    1  UNL1       -0.0005
     29 C         -13.7617  -17.9263   22.8130 C.ar    1  UNL1       -0.0002
     30 C         -14.2144  -17.9387   24.2429 C.ar    1  UNL1       -0.0000
     31 C         -13.3046  -18.4649   25.3131 C.ar    1  UNL1       -0.0002
     32 C         -11.9420  -18.9786   24.9533 C.ar    1  UNL1       -0.0005
     33 C          -8.3175  -16.0195   22.4555 C.3     1  UNL1        0.1196
     34 C          -8.6849  -15.3273   21.1765 C.3     1  UNL1        0.1113
     35 N         -10.1270  -15.0861   20.8417 N.am    1  UNL1       -0.3026
     36 C         -10.9135  -16.1355   20.1135 C.2     1  UNL1        0.2230
     37 C         -12.3556  -15.8945   19.7787 C.3     1  UNL1        0.0946
     38 O         -10.2578  -17.4260   19.7202 O.2     1  UNL1       -0.2751
     39 H         -10.5574  -14.2391   21.0999 H       1  UNL1        0.1495
@<TRIPOS>BOND
     1    25    26    1
     2    26    13    1
     3    13    14   ar
     4    14    15   ar
     5    15    16    1
     6    15    17   ar
     7    17    18   ar
     8    18    19    1
     9    18    20   ar
    10    20     1    1
    11     1     2   ar
    12     2     3   ar
    13     3     4   ar
    14     4     5   ar
    15     5     6   ar
    16     5     7    1
    17     7    33    1
    18    33    34    1
    19    34    35    1
    20    35    36   am
    21    36    37    1
    22    36    38    2
    23     7     8   am
    24     8     9    2
    25     8    10    1
    26    10    11    1
    27    10    27    1
    28    27    28   ar
    29    28    29   ar
    30    29    30   ar
    31    30    31   ar
    32    31    32   ar
    33    10    12    1
    34    20    13   ar
    35     6     1   ar
    36    32    27   ar
    37    12     4    1
    38    16    21    1
    39    16    22    1
    40    19    23    1
    41    19    24    1
    42    35    39    1
@<TRIPOS>MOLECULE
*****
 39 42 0 0 0
SMALL
GASTEIGER

@<TRIPOS>ATOM
      1 C          -9.6938  -18.8233   21.9533 C.ar    1  UNL1        0.0053
      2 C          -9.6818  -19.5465   20.6392 C.ar    1  UNL1        0.0033
      3 C          -8.3919  -19.7300   19.8960 C.ar    1  UNL1        0.0382
      4 C          -7.1140  -19.1904   20.4668 C.ar    1  UNL1        0.1529
      5 C          -7.1261  -18.4672   21.7809 C.ar    1  UNL1        0.0882
      6 C          -8.4160  -18.2836   22.5241 C.ar    1  UNL1        0.0181
      7 N          -5.8482  -17.9275   22.3518 N.am    1  UNL1       -0.2512
      8 C          -4.5583  -18.1111   21.6086 C.2     1  UNL1        0.2698
      9 O          -3.2805  -17.5714   22.1794 O.2     1  UNL1       -0.2704
     10 C          -4.5462  -18.8343   20.2944 C.3     1  UNL1        0.2197
     11 C          -4.0278  -19.4436   19.0255 C.3     1  UNL1        0.0579
     12 O          -5.8241  -19.3739   19.7236 O.3     1  UNL1       -0.4686
     13 C         -11.0987  -19.0915   24.1223 C.ar    1  UNL1        0.0645
     14 N         -12.3886  -18.9080   24.8655 N.ar    1  UNL1       -0.2183
     15 C         -13.5636  -18.2726   24.1831 C.ar    1  UNL1        0.2145
     16 N         -14.8535  -18.0891   24.9264 N.pl3   1  UNL1       -0.3274
     17 N         -13.4487  -17.8208   22.7574 N.ar    1  UNL1       -0.1995
     18 C         -12.1587  -18.0044   22.0141 C.ar    1  UNL1        0.1293
     19 N         -12.0438  -17.5526   20.5884 N.pl3   1  UNL1       -0.3425
     20 C         -10.9838  -18.6397   22.6965 C.ar    1  UNL1        0.0449
     21 H         -14.9289  -18.3856   25.8621 H       1  UNL1        0.1452
     22 H         -15.6247  -17.6721   24.4785 H       1  UNL1        0.1452
     23 H         -12.8150  -17.1356   20.1405 H       1  UNL1        0.1437
     24 H         -11.1972  -17.6731   20.1005 H       1  UNL1        0.1437
     25 C          -9.6278  -21.1816   24.5895 C.3     1  UNL1        0.0067
     26 C          -9.9236  -19.7269   24.8047 C.3     1  UNL1        0.0460
     27 C          -3.0884  -18.5062   20.4246 C.ar    1  UNL1        0.0219
     28 C          -2.5300  -17.2896   19.7479 C.ar    1  UNL1       -0.0005
     29 C          -1.0721  -16.9615   19.8781 C.ar    1  UNL1       -0.0002
     30 C          -0.1726  -17.8500   20.6850 C.ar    1  UNL1       -0.0000
     31 C          -0.7309  -19.0667   21.3617 C.ar    1  UNL1       -0.0002
     32 C          -2.1888  -19.3948   21.2316 C.ar    1  UNL1       -0.0005
     33 C          -5.8603  -17.2043   23.6658 C.3     1  UNL1        0.1196
     34 C          -6.4822  -15.8431   23.7671 C.3     1  UNL1        0.1113
     35 N          -7.5499  -15.5803   24.7874 N.am    1  UNL1       -0.3026
     36 C          -7.1900  -15.4758   26.2398 C.2     1  UNL1        0.2230
     37 C          -8.2576  -15.2131   27.2601 C.3     1  UNL1        0.0946
     38 O          -5.7623  -15.6341   26.6719 O.2     1  UNL1       -0.2751
     39 H          -8.4869  -15.4764   24.5037 H       1  UNL1        0.1495
@<TRIPOS>BOND
     1    25    26    1
     2    26    13    1
     3    13    14   ar
     4    14    15   ar
     5    15    16    1
     6    15    17   ar
     7    17    18   ar
     8    18    19    1
     9    18    20   ar
    10    20     1    1
    11     1     2   ar
    12     2     3   ar
    13     3     4   ar
    14     4     5   ar
    15     5     6   ar
    16     5     7    1
    17     7    33    1
    18    33    34    1
    19    34    35    1
    20    35    36   am
    21    36    37    1
    22    36    38    2
    23     7     8   am
    24     8     9    2
    25     8    10    1
    26    10    11    1
    27    10    27    1
    28    27    28   ar
    29    28    29   ar
    30    29    30   ar
    31    30    31   ar
    32    31    32   ar
    33    10    12    1
    34    20    13   ar
    35     6     1   ar
    36    32    27   ar
    37    12     4    1
    38    16    21    1
    39    16    22    1
    40    19    23    1
    41    19    24    1
    42    35    39    1
@<TRIPOS>MOLECULE
*****
 39 42 0 0 0
SMALL
GASTEIGER

@<TRIPOS>ATOM
      1 C          -4.8661  -18.7889   21.7285 C.ar    1  UNL1        0.0053
      2 C          -5.0577  -20.2494   22.0111 C.ar    1  UNL1        0.0033
      3 C          -6.4042  -20.7622   22.4285 C.ar    1  UNL1        0.0382
      4 C          -7.5589  -19.8144   22.5631 C.ar    1  UNL1        0.1529
      5 C          -7.3673  -18.3538   22.2805 C.ar    1  UNL1        0.0882
      6 C          -6.0209  -17.8410   21.8632 C.ar    1  UNL1        0.0181
      7 N          -8.5220  -17.4060   22.4152 N.am    1  UNL1       -0.2512
      8 C          -9.8685  -17.9187   22.8325 C.2     1  UNL1        0.2698
      9 O         -11.0232  -16.9709   22.9672 O.2     1  UNL1       -0.2704
     10 C         -10.0602  -19.3794   23.1152 C.3     1  UNL1        0.2197
     11 C         -10.7341  -20.6660   23.4898 C.3     1  UNL1        0.0579
     12 O          -8.9054  -20.3272   22.9805 O.3     1  UNL1       -0.4686
     13 C          -2.9018  -18.7484   20.0285 C.ar    1  UNL1        0.0645
     14 N          -1.5554  -18.2356   19.6112 N.ar    1  UNL1       -0.2183
     15 C          -0.8268  -17.2504   20.4765 C.ar    1  UNL1        0.2145
     16 N           0.5196  -16.7376   20.0591 N.pl3   1  UNL1       -0.3274
     17 N          -1.4446  -16.7781   21.7591 N.ar    1  UNL1       -0.1995
     18 C          -2.7911  -17.2909   22.1764 C.ar    1  UNL1        0.1293
     19 N          -3.4090  -16.8186   23.4590 N.pl3   1  UNL1       -0.3425
     20 C          -3.5196  -18.2760   21.3112 C.ar    1  UNL1        0.0449
     21 H           0.9252  -17.0477   19.2173 H       1  UNL1        0.1452
     22 H           0.9978  -16.0911   20.6270 H       1  UNL1        0.1452
     23 H          -2.9308  -16.1720   24.0270 H       1  UNL1        0.1437
     24 H          -4.2927  -17.1551   23.7330 H       1  UNL1        0.1437
     25 C          -3.5725  -21.1982   19.4820 C.3     1  UNL1        0.0067
     26 C          -3.6304  -19.7336   19.1633 C.3     1  UNL1        0.0460
     27 C         -11.4490  -18.8784   23.3799 C.ar    1  UNL1        0.0219
     28 C         -11.9785  -18.8423   24.7829 C.ar    1  UNL1       -0.0005
     29 C         -13.3674  -18.3413   25.0476 C.ar    1  UNL1       -0.0002
     30 C         -14.2267  -17.8764   23.9096 C.ar    1  UNL1       -0.0000
     31 C         -13.6971  -17.9125   22.5066 C.ar    1  UNL1       -0.0002
     32 C         -12.3083  -18.4135   22.2417 C.ar    1  UNL1       -0.0005
     33 C          -8.3304  -15.9454   22.1326 C.3     1  UNL1        0.1196
     34 C          -8.0894  -14.9882   23.2620 C.3     1  UNL1        0.1113
     35 N          -6.7687  -14.9848   23.9734 N.am    1  UNL1       -0.3026
     36 C          -6.6844  -15.4388   25.4005 C.2     1  UNL1        0.2230
     37 C          -5.3638  -15.4354   26.1119 C.3     1  UNL1        0.0946
     38 O          -7.9208  -15.8961   26.1164 O.2     1  UNL1       -0.2751
     39 H          -5.9573  -14.6847   23.5035 H       1  UNL1        0.1495
@<TRIPOS>BOND
     1    25    26    1
     2    26    13    1
     3    13    14   ar
     4    14    15   ar
     5    15    16    1
     6    15    17   ar
     7    17    18   ar
     8    18    19    1
     9    18    20   ar
    10    20     1    1
    11     1     2   ar
    12     2     3   ar
    13     3     4   ar
    14     4     5   ar
    15     5     6   ar
    16     5     7    1
    17     7    33    1
    18    33    34    1
    19    34    35    1
    20    35    36   am
    21    36    37    1
    22    36    38    2
    23     7     8   am
    24     8     9    2
    25     8    10    1
    26    10    11    1
    27    10    27    1
    28    27    28   ar
    29    28    29   ar
    30    29    30   ar
    31    30    31   ar
    32    31    32   ar
    33    10    12    1
    34    20    13   ar
    35     6     1   ar
    36    32    27   ar
    37    12     4    1
    38    16    21    1
    39    16    22    1
    40    19    23    1
    41    19    24    1
    42    35    39    1
@<TRIPOS>MOLECULE
*****
 39 42 0 0 0
SMALL
GASTEIGER

@<TRIPOS>ATOM
      1 C          -0.1220    2.7996   27.1896 C.ar    1  UNL1        0.0053
      2 C           0.9273    2.5972   26.1371 C.ar    1  UNL1        0.0033
      3 C           0.5833    2.7851   24.6892 C.ar    1  UNL1        0.0382
      4 C          -0.8101    3.1753   24.2940 C.ar    1  UNL1        0.1529
      5 C          -1.8594    3.3776   25.3465 C.ar    1  UNL1        0.0882
      6 C          -1.5154    3.1898   26.7944 C.ar    1  UNL1        0.0181
      7 N          -3.2528    3.7678   24.9512 N.am    1  UNL1       -0.2512
      8 C          -3.5969    3.9557   23.5034 C.2     1  UNL1        0.2698
      9 O          -4.9902    4.3458   23.1081 O.2     1  UNL1       -0.2704
     10 C          -2.5475    3.7533   22.4507 C.3     1  UNL1        0.2197
     11 C          -1.9045    3.6773   21.0977 C.3     1  UNL1        0.0579
     12 O          -1.1541    3.3631   22.8460 O.3     1  UNL1       -0.4686
     13 C           0.1018    1.2556   29.2672 C.ar    1  UNL1        0.0645
     14 N           0.4458    1.0677   30.7150 N.ar    1  UNL1       -0.2183
     15 C           0.9100    2.2360   31.5334 C.ar    1  UNL1        0.2145
     16 N           1.2540    2.0481   32.9812 N.pl3   1  UNL1       -0.3274
     17 N           1.0302    3.5922   30.9038 N.ar    1  UNL1       -0.1995
     18 C           0.6862    3.7800   29.4558 C.ar    1  UNL1        0.1293
     19 N           0.8064    5.1362   28.8263 N.pl3   1  UNL1       -0.3425
     20 C           0.2220    2.6117   28.6376 C.ar    1  UNL1        0.0449
     21 H           1.1751    1.1580   33.3944 H       1  UNL1        0.1452
     22 H           1.5587    2.8149   33.5183 H       1  UNL1        0.1452
     23 H           1.1110    5.9030   29.3633 H       1  UNL1        0.1437
     24 H           0.5806    5.2595   27.8760 H       1  UNL1        0.1437
     25 C          -1.5886   -0.6743   28.8569 C.3     1  UNL1        0.0067
     26 C          -0.3624    0.0872   28.4488 C.3     1  UNL1        0.0460
     27 C          -3.7176    4.1171   21.5856 C.ar    1  UNL1        0.0219
     28 C          -4.5981    3.0407   21.0234 C.ar    1  UNL1       -0.0005
     29 C          -5.7682    3.4045   20.1582 C.ar    1  UNL1       -0.0002
     30 C          -6.0578    4.8446   19.8552 C.ar    1  UNL1       -0.0000
     31 C          -5.1773    5.9211   20.4173 C.ar    1  UNL1       -0.0002
     32 C          -4.0072    5.5574   21.2825 C.ar    1  UNL1       -0.0005
     33 C          -4.3021    3.9702   26.0038 C.3     1  UNL1        0.1196
     34 C          -4.6365    5.3551   26.4731 C.3     1  UNL1        0.1113
     35 N          -4.1435    5.8347   27.8061 N.am    1  UNL1       -0.3026
     36 C          -2.8080    6.5091   27.9135 C.2     1  UNL1        0.2230
     37 C          -2.3150    6.9887   29.2465 C.3     1  UNL1        0.0946
     38 O          -1.9654    6.7039   26.6878 O.2     1  UNL1       -0.2751
     39 H          -4.6965    5.7068   28.6106 H       1  UNL1        0.1495
@<TRIPOS>BOND
     1    25    26    1
     2    26    13    1
     3    13    14   ar
     4    14    15   ar
     5    15    16    1
     6    15    17   ar
     7    17    18   ar
     8    18    19    1
     9    18    20   ar
    10    20     1    1
    11     1     2   ar
    12     2     3   ar
    13     3     4   ar
    14     4     5   ar
    15     5     6   ar
    16     5     7    1
    17     7    33    1
    18    33    34    1
    19    34    35    1
    20    35    36   am
    21    36    37    1
    22    36    38    2
    23     7     8   am
    24     8     9    2
    25     8    10    1
    26    10    11    1
    27    10    27    1
    28    27    28   ar
    29    28    29   ar
    30    29    30   ar
    31    30    31   ar
    32    31    32   ar
    33    10    12    1
    34    20    13   ar
    35     6     1   ar
    36    32    27   ar
    37    12     4    1
    38    16    21    1
    39    16    22    1
    40    19    23    1
    41    19    24    1
    42    35    39    1
@<TRIPOS>MOLECULE
*****
 39 42 0 0 0
SMALL
GASTEIGER

@<TRIPOS>ATOM
      1 C           0.2547    2.4605   26.9970 C.ar    1  UNL1        0.0053
      2 C           1.2264    1.8359   26.0402 C.ar    1  UNL1        0.0033
      3 C           0.9805    1.9157   24.5627 C.ar    1  UNL1        0.0382
      4 C          -0.2371    2.6202   24.0420 C.ar    1  UNL1        0.1529
      5 C          -1.2089    3.2448   24.9988 C.ar    1  UNL1        0.0882
      6 C          -0.9629    3.1650   26.4763 C.ar    1  UNL1        0.0181
      7 N          -2.4265    3.9493   24.4781 N.am    1  UNL1       -0.2512
      8 C          -2.6724    4.0291   23.0006 C.2     1  UNL1        0.2698
      9 O          -3.8900    4.7336   22.4799 O.2     1  UNL1       -0.2704
     10 C          -1.7006    3.4044   22.0437 C.3     1  UNL1        0.2197
     11 C          -1.0765    2.9723   20.7500 C.3     1  UNL1        0.0579
     12 O          -0.4830    2.7000   22.5644 O.3     1  UNL1       -0.4686
     13 C           0.1854    1.1178   29.2202 C.ar    1  UNL1        0.0645
     14 N           0.4313    1.0380   30.6978 N.ar    1  UNL1       -0.2183
     15 C           0.9923    2.2210   31.4298 C.ar    1  UNL1        0.2145
     16 N           1.2381    2.1412   32.9073 N.pl3   1  UNL1       -0.3274
     17 N           1.3074    3.4839   30.6842 N.ar    1  UNL1       -0.1995
     18 C           1.0615    3.5637   29.2066 C.ar    1  UNL1        0.1293
     19 N           1.3767    4.8265   28.4610 N.pl3   1  UNL1       -0.3425
     20 C           0.5005    2.3807   28.4746 C.ar    1  UNL1        0.0449
     21 H           1.0313    1.3123   33.3967 H       1  UNL1        0.1452
     22 H           1.6063    2.9176   33.3877 H       1  UNL1        0.1452
     23 H           1.7449    5.6030   28.9414 H       1  UNL1        0.1437
     24 H           1.2153    4.8789   27.4912 H       1  UNL1        0.1437
     25 C          -1.6848   -0.6597   28.9155 C.3     1  UNL1        0.0067
     26 C          -0.3756   -0.0652   28.4882 C.3     1  UNL1        0.0460
     27 C          -2.7015    3.9588   21.0737 C.ar    1  UNL1        0.0219
     28 C          -2.5083    5.3307   20.4987 C.ar    1  UNL1       -0.0005
     29 C          -3.5092    5.8851   19.5287 C.ar    1  UNL1       -0.0002
     30 C          -4.7032    5.0677   19.1337 C.ar    1  UNL1       -0.0000
     31 C          -4.8964    3.6959   19.7088 C.ar    1  UNL1       -0.0002
     32 C          -3.8956    3.1414   20.6787 C.ar    1  UNL1       -0.0005
     33 C          -3.3982    4.5739   25.4349 C.3     1  UNL1        0.1196
     34 C          -4.6663    3.8564   25.7912 C.3     1  UNL1        0.1113
     35 N          -5.7176    3.6274   24.7460 N.am    1  UNL1       -0.3026
     36 C          -6.7158    4.7038   24.4378 C.2     1  UNL1        0.2230
     37 C          -7.7670    4.4749   23.3926 C.3     1  UNL1        0.0946
     38 O          -6.6628    6.0092   25.1750 O.2     1  UNL1       -0.2751
     39 H          -5.7524    2.7707   24.2622 H       1  UNL1        0.1495
@<TRIPOS>BOND
     1    25    26    1
     2    26    13    1
     3    13    14   ar
     4    14    15   ar
     5    15    16    1
     6    15    17   ar
     7    17    18   ar
     8    18    19    1
     9    18    20   ar
    10    20     1    1
    11     1     2   ar
    12     2     3   ar
    13     3     4   ar
    14     4     5   ar
    15     5     6   ar
    16     5     7    1
    17     7    33    1
    18    33    34    1
    19    34    35    1
    20    35    36   am
    21    36    37    1
    22    36    38    2
    23     7     8   am
    24     8     9    2
    25     8    10    1
    26    10    11    1
    27    10    27    1
    28    27    28   ar
    29    28    29   ar
    30    29    30   ar
    31    30    31   ar
    32    31    32   ar
    33    10    12    1
    34    20    13   ar
    35     6     1   ar
    36    32    27   ar
    37    12     4    1
    38    16    21    1
    39    16    22    1
    40    19    23    1
    41    19    24    1
    42    35    39    1
@<TRIPOS>MOLECULE
*****
 39 42 0 0 0
SMALL
GASTEIGER

@<TRIPOS>ATOM
      1 C           0.6560    1.9778   27.0212 C.ar    1  UNL1        0.0053
      2 C          -0.5773    2.3308   26.2439 C.ar    1  UNL1        0.0033
      3 C          -0.6349    2.0674   24.7684 C.ar    1  UNL1        0.0382
      4 C           0.5409    1.4508   24.0702 C.ar    1  UNL1        0.1529
      5 C           1.7742    1.0978   24.8474 C.ar    1  UNL1        0.0882
      6 C           1.8318    1.3613   26.3229 C.ar    1  UNL1        0.0181
      7 N           2.9499    0.4813   24.1492 N.am    1  UNL1       -0.2512
      8 C           2.8923    0.2178   22.6737 C.2     1  UNL1        0.2698
      9 O           4.0681   -0.3987   21.9754 O.2     1  UNL1       -0.2704
     10 C           1.6589    0.5709   21.8963 C.3     1  UNL1        0.2197
     11 C           0.7207    0.7289   20.7366 C.3     1  UNL1        0.0579
     12 O           0.4832    1.1874   22.5945 O.3     1  UNL1       -0.4686
     13 C           0.3611    1.1532   29.4673 C.ar    1  UNL1        0.0645
     14 N           0.4187    1.4166   30.9428 N.ar    1  UNL1       -0.2183
     15 C           0.8290    2.7681   31.4480 C.ar    1  UNL1        0.2145
     16 N           0.8866    3.0315   32.9235 N.pl3   1  UNL1       -0.3274
     17 N           1.1815    3.8562   30.4775 N.ar    1  UNL1       -0.1995
     18 C           1.1239    3.5927   29.0019 C.ar    1  UNL1        0.1293
     19 N           1.4765    4.6808   28.0315 N.pl3   1  UNL1       -0.3425
     20 C           0.7137    2.2412   28.4968 C.ar    1  UNL1        0.0449
     21 H           0.6552    2.3174   33.5604 H       1  UNL1        0.1452
     22 H           1.1558    3.9185   33.2550 H       1  UNL1        0.1452
     23 H           1.7457    5.5678   28.3630 H       1  UNL1        0.1437
     24 H           1.4387    4.5079   27.0630 H       1  UNL1        0.1437
     25 C          -1.5035   -0.5321   28.8091 C.3     1  UNL1        0.0067
     26 C          -0.0491   -0.1984   28.9621 C.3     1  UNL1        0.0460
     27 C           2.5088    0.0092   20.7953 C.ar    1  UNL1        0.0219
     28 C           2.4992   -1.4649   20.5180 C.ar    1  UNL1       -0.0005
     29 C           3.3491   -2.0265   19.4170 C.ar    1  UNL1       -0.0002
     30 C           4.2087   -1.1141   18.5933 C.ar    1  UNL1       -0.0000
     31 C           4.2183    0.3600   18.8706 C.ar    1  UNL1       -0.0002
     32 C           3.3685    0.9217   19.9716 C.ar    1  UNL1       -0.0005
     33 C           4.1832    0.1282   24.9264 C.3     1  UNL1        0.1196
     34 C           4.3881   -1.2766   25.4107 C.3     1  UNL1        0.1113
     35 N           4.5379   -2.3959   24.4234 N.am    1  UNL1       -0.3026
     36 C           5.8923   -2.7376   23.8768 C.2     1  UNL1        0.2230
     37 C           6.0422   -3.8568   22.8895 C.3     1  UNL1        0.0946
     38 O           7.0969   -1.9599   24.3175 O.2     1  UNL1       -0.2751
     39 H           3.7472   -2.9063   24.1341 H       1  UNL1        0.1495
@<TRIPOS>BOND
     1    25    26    1
     2    26    13    1
     3    13    14   ar
     4    14    15   ar
     5    15    16    1
     6    15    17   ar
     7    17    18   ar
     8    18    19    1
     9    18    20   ar
    10    20     1    1
    11     1     2   ar
    12     2     3   ar
    13     3     4   ar
    14     4     5   ar
    15     5     6   ar
    16     5     7    1
    17     7    33    1
    18    33    34    1
    19    34    35    1
    20    35    36   am
    21    36    37    1
    22    36    38    2
    23     7     8   am
    24     8     9    2
    25     8    10    1
    26    10    11    1
    27    10    27    1
    28    27    28   ar
    29    28    29   ar
    30    29    30   ar
    31    30    31   ar
    32    31    32   ar
    33    10    12    1
    34    20    13   ar
    35     6     1   ar
    36    32    27   ar
    37    12     4    1
    38    16    21    1
    39    16    22    1
    40    19    23    1
    41    19    24    1
    42    35    39    1
@<TRIPOS>MOLECULE
*****
 39 42 0 0 0
SMALL
GASTEIGER

@<TRIPOS>ATOM
      1 C           0.6537    1.9446   26.9378 C.ar    1  UNL1        0.0053
      2 C          -0.5963    2.2873   26.1829 C.ar    1  UNL1        0.0033
      3 C          -0.6718    2.0396   24.7054 C.ar    1  UNL1        0.0382
      4 C           0.5026    1.4491   23.9830 C.ar    1  UNL1        0.1529
      5 C           1.7526    1.1064   24.7379 C.ar    1  UNL1        0.0882
      6 C           1.8282    1.3541   26.2153 C.ar    1  UNL1        0.0181
      7 N           2.9271    0.5159   24.0154 N.am    1  UNL1       -0.2512
      8 C           2.8516    0.2682   22.5380 C.2     1  UNL1        0.2698
      9 O           4.0260   -0.3223   21.8155 O.2     1  UNL1       -0.2704
     10 C           1.6015    0.6109   21.7829 C.3     1  UNL1        0.2197
     11 C           0.6439    0.7675   20.6391 C.3     1  UNL1        0.0579
     12 O           0.4271    1.2014   22.5054 O.3     1  UNL1       -0.4686
     13 C           0.3649    1.1015   29.3783 C.ar    1  UNL1        0.0645
     14 N           0.4405    1.3491   30.8558 N.ar    1  UNL1       -0.2183
     15 C           0.8804    2.6877   31.3703 C.ar    1  UNL1        0.2145
     16 N           0.9560    2.9354   32.8478 N.pl3   1  UNL1       -0.3274
     17 N           1.2448    3.7786   30.4074 N.ar    1  UNL1       -0.1995
     18 C           1.1692    3.5309   28.9299 C.ar    1  UNL1        0.1293
     19 N           1.5335    4.6217   27.9669 N.pl3   1  UNL1       -0.3425
     20 C           0.7293    2.1923   28.4154 C.ar    1  UNL1        0.0449
     21 H           0.7169    2.2194   33.4798 H       1  UNL1        0.1452
     22 H           1.2447    3.8139   33.1855 H       1  UNL1        0.1452
     23 H           1.8223    5.5003   28.3046 H       1  UNL1        0.1437
     24 H           1.4839    4.4592   26.9972 H       1  UNL1        0.1437
     25 C          -1.5334   -0.5864   28.8329 C.3     1  UNL1        0.0067
     26 C          -0.0750   -0.2371   28.8637 C.3     1  UNL1        0.0460
     27 C           2.4434    0.0749   20.6632 C.ar    1  UNL1        0.0219
     28 C           3.2473    1.0138   19.8135 C.ar    1  UNL1       -0.0005
     29 C           4.0893    0.4776   18.6937 C.ar    1  UNL1       -0.0002
     30 C           4.1272   -0.9973   18.4237 C.ar    1  UNL1       -0.0000
     31 C           3.3233   -1.9362   19.2735 C.ar    1  UNL1       -0.0002
     32 C           2.4814   -1.4002   20.3932 C.ar    1  UNL1       -0.0005
     33 C           4.1771    0.1732   24.7704 C.3     1  UNL1        0.1196
     34 C           4.4164   -1.2362   25.2245 C.3     1  UNL1        0.1113
     35 N           5.2833   -1.5022   26.4194 N.am    1  UNL1       -0.3026
     36 C           4.6702   -1.5940   27.7853 C.2     1  UNL1        0.2230
     37 C           5.5370   -1.8600   28.9802 C.3     1  UNL1        0.0946
     38 O           3.1901   -1.4199   27.9563 O.2     1  UNL1       -0.2751
     39 H           6.2547   -1.6165   26.3072 H       1  UNL1        0.1495
@<TRIPOS>BOND
     1    25    26    1
     2    26    13    1
     3    13    14   ar
     4    14    15   ar
     5    15    16    1
     6    15    17   ar
     7    17    18   ar
     8    18    19    1
     9    18    20   ar
    10    20     1    1
    11     1     2   ar
    12     2     3   ar
    13     3     4   ar
    14     4     5   ar
    15     5     6   ar
    16     5     7    1
    17     7    33    1
    18    33    34    1
    19    34    35    1
    20    35    36   am
    21    36    37    1
    22    36    38    2
    23     7     8   am
    24     8     9    2
    25     8    10    1
    26    10    11    1
    27    10    27    1
    28    27    28   ar
    29    28    29   ar
    30    29    30   ar
    31    30    31   ar
    32    31    32   ar
    33    10    12    1
    34    20    13   ar
    35     6     1   ar
    36    32    27   ar
    37    12     4    1
    38    16    21    1
    39    16    22    1
    40    19    23    1
    41    19    24    1
    42    35    39    1
