@<TRIPOS>MOLECULE
*****
 24 26 0 0 0
SMALL
GASTEIGER

@<TRIPOS>ATOM
      1 N          -7.8384  -20.3060   22.5098 N.pl3   1  UNL1       -0.2150
      2 H          -7.9149  -21.1505   23.0101 H       1  UNL1        0.1737
      3 C          -6.5128  -19.8843   21.9484 C.ar    1  UNL1        0.0648
      4 C          -5.9076  -20.6421   20.8041 C.ar    1  UNL1        0.0160
      5 C          -4.5821  -20.2204   20.2428 C.ar    1  UNL1        0.0043
      6 C          -3.8618  -19.0409   20.8257 C.ar    1  UNL1        0.0346
      7 C          -4.4670  -18.2830   21.9700 C.ar    1  UNL1        0.0043
      8 C          -5.7925  -18.7048   22.5313 C.ar    1  UNL1        0.0160
      9 C          -2.5362  -18.6191   20.2643 C.ar    1  UNL1        0.1454
     10 C          -2.3163  -17.9077   18.9622 C.ar    1  UNL1        0.0407
     11 C          -0.8421  -17.6837   18.7996 C.ar    1  UNL1        0.0438
     12 C          -0.1508  -18.2567   20.0012 C.ar    1  UNL1        0.1796
     13 O          -1.1979  -18.8348   20.9065 O.2     1  UNL1       -0.4504
     14 O          -9.2557  -19.3875   23.7933 O.2     1  UNL1       -0.1499
     15 S          -9.0473  -19.4412   22.3088 S.O2    1  UNL1        0.0736
     16 O          -8.8390  -19.4949   20.8243 O.2     1  UNL1       -0.1499
     17 C         -10.2563  -18.5763   22.1078 C.ar    1  UNL1        0.1268
     18 C         -10.3168  -17.6303   20.9453 C.ar    1  UNL1        0.0316
     19 C         -11.5257  -16.7654   20.7442 C.ar    1  UNL1        0.0599
     20 CL        -11.5862  -15.8194   19.5818 Cl      1  UNL1       -0.0822
     21 C         -12.6742  -16.8466   21.7057 C.ar    1  UNL1        0.0229
     22 C         -12.6137  -17.7927   22.8681 C.ar    1  UNL1        0.0599
     23 CL        -13.7623  -17.8738   23.8296 Cl      1  UNL1       -0.0822
     24 C         -11.4048  -18.6575   23.0692 C.ar    1  UNL1        0.0316
@<TRIPOS>BOND
     1    14    15    2
     2    15    16    2
     3    15     1    1
     4     1     3    1
     5     3     4   ar
     6     4     5   ar
     7     5     6   ar
     8     6     9    1
     9     9    10   ar
    10    10    11   ar
    11    11    12   ar
    12    12    13   ar
    13     6     7   ar
    14     7     8   ar
    15    15    17    1
    16    17    18   ar
    17    18    19   ar
    18    19    20    1
    19    19    21   ar
    20    21    22   ar
    21    22    23    1
    22    22    24   ar
    23     8     3   ar
    24    24    17   ar
    25    13     9   ar
    26     1     2    1
@<TRIPOS>MOLECULE
*****
 24 26 0 0 0
SMALL
GASTEIGER

@<TRIPOS>ATOM
      1 N          -7.8453  -20.3001   22.4793 N.pl3   1  UNL1       -0.2150
      2 H          -7.9256  -21.1488   22.9718 H       1  UNL1        0.1737
      3 C          -6.5168  -19.8767   21.9261 C.ar    1  UNL1        0.0648
      4 C          -5.7971  -18.7023   22.5198 C.ar    1  UNL1        0.0160
      5 C          -4.4686  -18.2789   21.9666 C.ar    1  UNL1        0.0043
      6 C          -3.8600  -19.0301   20.8197 C.ar    1  UNL1        0.0346
      7 C          -4.5798  -20.2045   20.2260 C.ar    1  UNL1        0.0043
      8 C          -5.9082  -20.6278   20.7792 C.ar    1  UNL1        0.0160
      9 C          -2.5315  -18.6067   20.2665 C.ar    1  UNL1        0.1454
     10 C          -2.3049  -17.8907   18.9680 C.ar    1  UNL1        0.0407
     11 C          -0.8298  -17.6664   18.8136 C.ar    1  UNL1        0.0438
     12 C          -0.1448  -18.2438   20.0167 C.ar    1  UNL1        0.1796
     13 O          -1.1965  -18.8249   20.9146 O.2     1  UNL1       -0.4504
     14 O          -9.2619  -19.3857   23.7665 O.2     1  UNL1       -0.1499
     15 S          -9.0515  -19.4305   22.2821 S.O2    1  UNL1        0.0736
     16 O          -8.8410  -19.4752   20.7976 O.2     1  UNL1       -0.1499
     17 C         -10.2577  -18.5608   22.0848 C.ar    1  UNL1        0.1268
     18 C         -11.4010  -18.6333   23.0530 C.ar    1  UNL1        0.0316
     19 C         -12.6072  -17.7637   22.8558 C.ar    1  UNL1        0.0599
     20 CL        -13.7505  -17.8362   23.8240 Cl      1  UNL1       -0.0822
     21 C         -12.6700  -16.8216   21.6903 C.ar    1  UNL1        0.0229
     22 C         -11.5266  -16.7491   20.7220 C.ar    1  UNL1        0.0599
     23 CL        -11.5895  -15.8069   19.5565 Cl      1  UNL1       -0.0822
     24 C         -10.3205  -17.6187   20.9193 C.ar    1  UNL1        0.0316
@<TRIPOS>BOND
     1    14    15    2
     2    15    16    2
     3    15     1    1
     4     1     3    1
     5     3     4   ar
     6     4     5   ar
     7     5     6   ar
     8     6     9    1
     9     9    10   ar
    10    10    11   ar
    11    11    12   ar
    12    12    13   ar
    13     6     7   ar
    14     7     8   ar
    15    15    17    1
    16    17    18   ar
    17    18    19   ar
    18    19    20    1
    19    19    21   ar
    20    21    22   ar
    21    22    23    1
    22    22    24   ar
    23     8     3   ar
    24    24    17   ar
    25    13     9   ar
    26     1     2    1
@<TRIPOS>MOLECULE
*****
 24 26 0 0 0
SMALL
GASTEIGER

@<TRIPOS>ATOM
      1 N          -7.2221  -20.1474   19.8947 N.pl3   1  UNL1       -0.2150
      2 H          -7.3348  -20.7463   19.1215 H       1  UNL1        0.1737
      3 C          -8.4044  -19.7924   20.7470 C.ar    1  UNL1        0.0648
      4 C          -9.7334  -19.5167   20.1086 C.ar    1  UNL1        0.0160
      5 C         -10.9156  -19.1617   20.9608 C.ar    1  UNL1        0.0043
      6 C         -10.7687  -19.0825   22.4515 C.ar    1  UNL1        0.0346
      7 C          -9.4397  -19.3583   23.0899 C.ar    1  UNL1        0.0043
      8 C          -8.2575  -19.7132   22.2377 C.ar    1  UNL1        0.0160
      9 C         -11.9510  -18.7276   23.3038 C.ar    1  UNL1        0.1454
     10 C         -13.1382  -17.9188   22.8719 C.ar    1  UNL1        0.0407
     11 C         -14.0746  -17.8104   24.0387 C.ar    1  UNL1        0.0438
     12 C         -13.4660  -18.5522   25.1918 C.ar    1  UNL1        0.1796
     13 O         -12.1536  -19.1190   24.7376 O.2     1  UNL1       -0.4504
     14 O          -5.3030  -20.9790   20.2488 O.2     1  UNL1       -0.1499
     15 S          -5.8683  -19.5899   20.2205 S.O2    1  UNL1        0.0736
     16 O          -6.4335  -18.2008   20.1921 O.2     1  UNL1       -0.1499
     17 C          -4.5144  -19.0323   20.5463 C.ar    1  UNL1        0.1268
     18 C          -3.5278  -18.7681   19.4477 C.ar    1  UNL1        0.0316
     19 C          -2.1740  -18.2105   19.7734 C.ar    1  UNL1        0.0599
     20 CL         -1.1875  -17.9464   18.6748 Cl      1  UNL1       -0.0822
     21 C          -1.8067  -17.9171   21.1978 C.ar    1  UNL1        0.0229
     22 C          -2.7932  -18.1813   22.2964 C.ar    1  UNL1        0.0599
     23 CL         -2.4258  -17.8878   23.7209 Cl      1  UNL1       -0.0822
     24 C          -4.1470  -18.7389   21.9707 C.ar    1  UNL1        0.0316
@<TRIPOS>BOND
     1    14    15    2
     2    15    16    2
     3    15     1    1
     4     1     3    1
     5     3     4   ar
     6     4     5   ar
     7     5     6   ar
     8     6     9    1
     9     9    10   ar
    10    10    11   ar
    11    11    12   ar
    12    12    13   ar
    13     6     7   ar
    14     7     8   ar
    15    15    17    1
    16    17    18   ar
    17    18    19   ar
    18    19    20    1
    19    19    21   ar
    20    21    22   ar
    21    22    23    1
    22    22    24   ar
    23     8     3   ar
    24    24    17   ar
    25    13     9   ar
    26     1     2    1
@<TRIPOS>MOLECULE
*****
 24 26 0 0 0
SMALL
GASTEIGER

@<TRIPOS>ATOM
      1 N          -7.2089  -20.1591   19.8900 N.pl3   1  UNL1       -0.2150
      2 H          -7.3212  -20.7585   19.1170 H       1  UNL1        0.1737
      3 C          -8.3920  -19.8019   20.7402 C.ar    1  UNL1        0.0648
      4 C          -9.7206  -19.5284   20.0998 C.ar    1  UNL1        0.0160
      5 C         -10.9035  -19.1712   20.9501 C.ar    1  UNL1        0.0043
      6 C         -10.7580  -19.0876   22.4406 C.ar    1  UNL1        0.0346
      7 C          -9.4294  -19.3611   23.0810 C.ar    1  UNL1        0.0043
      8 C          -8.2464  -19.7183   22.2308 C.ar    1  UNL1        0.0160
      9 C         -11.9410  -18.7304   23.2909 C.ar    1  UNL1        0.1454
     10 C         -13.1261  -17.9196   22.8568 C.ar    1  UNL1        0.0407
     11 C         -14.0642  -17.8094   24.0220 C.ar    1  UNL1        0.0438
     12 C         -13.4589  -18.5520   25.1763 C.ar    1  UNL1        0.1796
     13 O         -12.1467  -19.1212   24.7244 O.2     1  UNL1       -0.4504
     14 O          -6.4163  -18.2128   20.1788 O.2     1  UNL1       -0.1499
     15 S          -5.8548  -19.6032   20.2174 S.O2    1  UNL1        0.0736
     16 O          -5.2934  -20.9936   20.2561 O.2     1  UNL1       -0.1499
     17 C          -4.5006  -19.0474   20.5449 C.ar    1  UNL1        0.1268
     18 C          -4.1391  -18.7429   21.9685 C.ar    1  UNL1        0.0316
     19 C          -2.7850  -18.1870   22.2960 C.ar    1  UNL1        0.0599
     20 CL         -2.4235  -17.8826   23.7196 Cl      1  UNL1       -0.0822
     21 C          -1.7923  -17.9356   21.1999 C.ar    1  UNL1        0.0229
     22 C          -2.1538  -18.2401   19.7763 C.ar    1  UNL1        0.0599
     23 CL         -1.1611  -17.9886   18.6802 Cl      1  UNL1       -0.0822
     24 C          -3.5080  -18.7959   19.4488 C.ar    1  UNL1        0.0316
@<TRIPOS>BOND
     1    14    15    2
     2    15    16    2
     3    15     1    1
     4     1     3    1
     5     3     4   ar
     6     4     5   ar
     7     5     6   ar
     8     6     9    1
     9     9    10   ar
    10    10    11   ar
    11    11    12   ar
    12    12    13   ar
    13     6     7   ar
    14     7     8   ar
    15    15    17    1
    16    17    18   ar
    17    18    19   ar
    18    19    20    1
    19    19    21   ar
    20    21    22   ar
    21    22    23    1
    22    22    24   ar
    23     8     3   ar
    24    24    17   ar
    25    13     9   ar
    26     1     2    1
@<TRIPOS>MOLECULE
*****
 24 26 0 0 0
SMALL
GASTEIGER

@<TRIPOS>ATOM
      1 N          -7.2921  -16.5242   24.3153 N.pl3   1  UNL1       -0.2150
      2 H          -7.2596  -16.2825   25.2691 H       1  UNL1        0.1737
      3 C          -6.0218  -16.8096   23.5702 C.ar    1  UNL1        0.0648
      4 C          -4.8861  -15.8311   23.6216 C.ar    1  UNL1        0.0160
      5 C          -3.6160  -16.1165   22.8765 C.ar    1  UNL1        0.0043
      6 C          -3.4815  -17.3804   22.0800 C.ar    1  UNL1        0.0346
      7 C          -4.6172  -18.3589   22.0286 C.ar    1  UNL1        0.0043
      8 C          -5.8873  -18.0735   22.7737 C.ar    1  UNL1        0.0160
      9 C          -2.2113  -17.6658   21.3349 C.ar    1  UNL1        0.1454
     10 C          -1.2504  -16.6425   20.8060 C.ar    1  UNL1        0.0407
     11 C          -0.1242  -17.3688   20.1321 C.ar    1  UNL1        0.0438
     12 C          -0.3890  -18.8410   20.2446 C.ar    1  UNL1        0.1796
     13 O          -1.6789  -19.0245   20.9879 O.2     1  UNL1       -0.4504
     14 O          -9.0693  -17.6512   24.5819 O.2     1  UNL1       -0.1499
     15 S          -8.6117  -16.6070   23.6071 S.O2    1  UNL1        0.0736
     16 O          -8.1542  -15.5628   22.6323 O.2     1  UNL1       -0.1499
     17 C          -9.9315  -16.6899   22.8989 C.ar    1  UNL1        0.1268
     18 C         -10.0683  -16.1578   21.5031 C.ar    1  UNL1        0.0316
     19 C         -11.3879  -16.2406   20.7949 C.ar    1  UNL1        0.0599
     20 CL        -11.5247  -15.7086   19.3991 Cl      1  UNL1       -0.0822
     21 C         -12.5708  -16.8555   21.4825 C.ar    1  UNL1        0.0229
     22 C         -12.4340  -17.3875   22.8783 C.ar    1  UNL1        0.0599
     23 CL        -13.6169  -18.0024   23.5658 Cl      1  UNL1       -0.0822
     24 C         -11.1143  -17.3047   23.5865 C.ar    1  UNL1        0.0316
@<TRIPOS>BOND
     1    14    15    2
     2    15    16    2
     3    15     1    1
     4     1     3    1
     5     3     4   ar
     6     4     5   ar
     7     5     6   ar
     8     6     9    1
     9     9    10   ar
    10    10    11   ar
    11    11    12   ar
    12    12    13   ar
    13     6     7   ar
    14     7     8   ar
    15    15    17    1
    16    17    18   ar
    17    18    19   ar
    18    19    20    1
    19    19    21   ar
    20    21    22   ar
    21    22    23    1
    22    22    24   ar
    23     8     3   ar
    24    24    17   ar
    25    13     9   ar
    26     1     2    1
@<TRIPOS>MOLECULE
*****
 24 26 0 0 0
SMALL
GASTEIGER

@<TRIPOS>ATOM
      1 N         -14.4209   -9.0033   18.8900 N.pl3   1  UNL1       -0.2150
      2 H         -13.8423   -9.7935   18.9902 H       1  UNL1        0.1737
      3 C         -13.8106   -7.6453   18.7066 C.ar    1  UNL1        0.0648
      4 C         -12.5267   -7.4966   17.9453 C.ar    1  UNL1        0.0160
      5 C         -11.9165   -6.1387   17.7619 C.ar    1  UNL1        0.0043
      6 C         -12.5902   -4.9295   18.3398 C.ar    1  UNL1        0.0346
      7 C         -13.8740   -5.0781   19.1010 C.ar    1  UNL1        0.0043
      8 C         -14.4842   -6.4360   19.2844 C.ar    1  UNL1        0.0160
      9 C         -11.9799   -3.5715   18.1563 C.ar    1  UNL1        0.1454
     10 C         -12.1534   -2.3960   19.0718 C.ar    1  UNL1        0.0407
     11 C         -11.3698   -1.2486   18.5066 C.ar    1  UNL1        0.0438
     12 C         -10.7119   -1.7151   17.2417 C.ar    1  UNL1        0.1796
     13 O         -11.0891   -3.1507   17.0253 O.2     1  UNL1       -0.4504
     14 O         -15.9809   -8.7849   17.4692 O.2     1  UNL1       -0.1499
     15 S         -15.9126   -9.1572   18.9207 S.O2    1  UNL1        0.0736
     16 O         -15.8443   -9.5295   20.3721 O.2     1  UNL1       -0.1499
     17 C         -17.4044   -9.3111   18.9514 C.ar    1  UNL1        0.1268
     18 C         -18.1123   -9.9860   17.8141 C.ar    1  UNL1        0.0316
     19 C         -19.6040  -10.1400   17.8448 C.ar    1  UNL1        0.0599
     20 CL        -20.3119  -10.8148   16.7075 Cl      1  UNL1       -0.0822
     21 C         -20.3879   -9.6191   19.0128 C.ar    1  UNL1        0.0229
     22 C         -19.6800   -8.9442   20.1501 C.ar    1  UNL1        0.0599
     23 CL        -20.4639   -8.4234   21.3181 Cl      1  UNL1       -0.0822
     24 C         -18.1882   -8.7903   20.1194 C.ar    1  UNL1        0.0316
@<TRIPOS>BOND
     1    14    15    2
     2    15    16    2
     3    15     1    1
     4     1     3    1
     5     3     4   ar
     6     4     5   ar
     7     5     6   ar
     8     6     9    1
     9     9    10   ar
    10    10    11   ar
    11    11    12   ar
    12    12    13   ar
    13     6     7   ar
    14     7     8   ar
    15    15    17    1
    16    17    18   ar
    17    18    19   ar
    18    19    20    1
    19    19    21   ar
    20    21    22   ar
    21    22    23    1
    22    22    24   ar
    23     8     3   ar
    24    24    17   ar
    25    13     9   ar
    26     1     2    1
@<TRIPOS>MOLECULE
*****
 24 26 0 0 0
SMALL
GASTEIGER

@<TRIPOS>ATOM
      1 N          -5.1340  -19.9408   22.3007 N.pl3   1  UNL1       -0.2150
      2 H          -4.9140  -20.7432   22.8271 H       1  UNL1        0.1737
      3 C          -6.5098  -19.3479   22.3768 C.ar    1  UNL1        0.0648
      4 C          -7.7104  -20.2446   22.4428 C.ar    1  UNL1        0.0160
      5 C          -9.0861  -19.6517   22.5188 C.ar    1  UNL1        0.0043
      6 C          -9.2612  -18.1620   22.5288 C.ar    1  UNL1        0.0346
      7 C          -8.0607  -17.2652   22.4627 C.ar    1  UNL1        0.0043
      8 C          -6.6850  -17.8582   22.3867 C.ar    1  UNL1        0.0160
      9 C         -10.6370  -17.5691   22.6048 C.ar    1  UNL1        0.1454
     10 C         -11.8736  -18.2694   23.0849 C.ar    1  UNL1        0.0407
     11 C         -13.0186  -17.3049   22.9909 C.ar    1  UNL1        0.0438
     12 C         -12.4896  -16.0085   22.4528 C.ar    1  UNL1        0.1796
     13 O         -11.0177  -16.1718   22.2142 O.2     1  UNL1       -0.4504
     14 O          -3.3964  -18.7712   22.6361 O.2     1  UNL1       -0.1499
     15 S          -4.0935  -19.3113   21.4227 S.O2    1  UNL1        0.0736
     16 O          -4.7906  -19.8514   20.2094 O.2     1  UNL1       -0.1499
     17 C          -3.0529  -18.6817   20.5446 C.ar    1  UNL1        0.1268
     18 C          -1.6168  -18.6651   20.9772 C.ar    1  UNL1        0.0316
     19 C          -0.5762  -18.0356   20.0992 C.ar    1  UNL1        0.0599
     20 CL          0.8599  -18.0190   20.5318 Cl      1  UNL1       -0.0822
     21 C          -0.9719  -17.4227   18.7886 C.ar    1  UNL1        0.0229
     22 C          -2.4080  -17.4393   18.3560 C.ar    1  UNL1        0.0599
     23 CL         -2.8036  -16.8263   17.0453 Cl      1  UNL1       -0.0822
     24 C          -3.4486  -18.0688   19.2340 C.ar    1  UNL1        0.0316
@<TRIPOS>BOND
     1    14    15    2
     2    15    16    2
     3    15     1    1
     4     1     3    1
     5     3     4   ar
     6     4     5   ar
     7     5     6   ar
     8     6     9    1
     9     9    10   ar
    10    10    11   ar
    11    11    12   ar
    12    12    13   ar
    13     6     7   ar
    14     7     8   ar
    15    15    17    1
    16    17    18   ar
    17    18    19   ar
    18    19    20    1
    19    19    21   ar
    20    21    22   ar
    21    22    23    1
    22    22    24   ar
    23     8     3   ar
    24    24    17   ar
    25    13     9   ar
    26     1     2    1
@<TRIPOS>MOLECULE
*****
 24 26 0 0 0
SMALL
GASTEIGER

@<TRIPOS>ATOM
      1 N          -5.0203  -16.0949   24.0597 N.pl3   1  UNL1       -0.2150
      2 H          -4.6804  -15.5279   24.7892 H       1  UNL1        0.1737
      3 C          -6.4942  -16.3378   23.9231 C.ar    1  UNL1        0.0648
      4 C          -7.0134  -17.1883   22.8019 C.ar    1  UNL1        0.0160
      5 C          -8.4873  -17.4312   22.6653 C.ar    1  UNL1        0.0043
      6 C          -9.4419  -16.8236   23.6499 C.ar    1  UNL1        0.0346
      7 C          -8.9227  -15.9731   24.7711 C.ar    1  UNL1        0.0043
      8 C          -7.4489  -15.7303   24.9077 C.ar    1  UNL1        0.0160
      9 C         -10.9159  -17.0665   23.5133 C.ar    1  UNL1        0.1454
     10 C         -11.8682  -16.2629   22.6783 C.ar    1  UNL1        0.0407
     11 C         -13.2371  -16.8553   22.8366 C.ar    1  UNL1        0.0438
     12 C         -13.1308  -18.0251   23.7695 C.ar    1  UNL1        0.1796
     13 O         -11.6962  -18.1556   24.1878 O.2     1  UNL1       -0.4504
     14 O          -4.2569  -18.0490   23.7452 O.2     1  UNL1       -0.1499
     15 S          -4.0643  -16.7160   23.0849 S.O2    1  UNL1        0.0736
     16 O          -3.8716  -15.3831   22.4246 O.2     1  UNL1       -0.1499
     17 C          -3.1082  -17.3371   22.1100 C.ar    1  UNL1        0.1268
     18 C          -3.3455  -18.7320   21.6120 C.ar    1  UNL1        0.0316
     19 C          -2.3895  -19.3530   20.6372 C.ar    1  UNL1        0.0599
     20 CL         -2.6268  -20.7479   20.1391 Cl      1  UNL1       -0.0822
     21 C          -1.1963  -18.5792   20.1604 C.ar    1  UNL1        0.0229
     22 C          -0.9590  -17.1844   20.6584 C.ar    1  UNL1        0.0599
     23 CL          0.2343  -16.4105   20.1815 Cl      1  UNL1       -0.0822
     24 C          -1.9150  -16.5633   21.6332 C.ar    1  UNL1        0.0316
@<TRIPOS>BOND
     1    14    15    2
     2    15    16    2
     3    15     1    1
     4     1     3    1
     5     3     4   ar
     6     4     5   ar
     7     5     6   ar
     8     6     9    1
     9     9    10   ar
    10    10    11   ar
    11    11    12   ar
    12    12    13   ar
    13     6     7   ar
    14     7     8   ar
    15    15    17    1
    16    17    18   ar
    17    18    19   ar
    18    19    20    1
    19    19    21   ar
    20    21    22   ar
    21    22    23    1
    22    22    24   ar
    23     8     3   ar
    24    24    17   ar
    25    13     9   ar
    26     1     2    1
@<TRIPOS>MOLECULE
*****
 24 26 0 0 0
SMALL
GASTEIGER

@<TRIPOS>ATOM
      1 N          -5.0287  -16.0206   23.8494 N.pl3   1  UNL1       -0.2150
      2 H          -4.6827  -15.3898   24.5214 H       1  UNL1        0.1737
      3 C          -6.5007  -16.2981   23.7690 C.ar    1  UNL1        0.0648
      4 C          -7.0599  -17.0456   22.5949 C.ar    1  UNL1        0.0160
      5 C          -8.5318  -17.3230   22.5145 C.ar    1  UNL1        0.0043
      6 C          -9.4445  -16.8529   23.6081 C.ar    1  UNL1        0.0346
      7 C          -8.8853  -16.1053   24.7821 C.ar    1  UNL1        0.0043
      8 C          -7.4134  -15.8279   24.8626 C.ar    1  UNL1        0.0160
      9 C         -10.9164  -17.1303   23.5277 C.ar    1  UNL1        0.1454
     10 C         -11.6311  -18.2887   24.1581 C.ar    1  UNL1        0.0407
     11 C         -13.0884  -18.1724   23.8228 C.ar    1  UNL1        0.0438
     12 C         -13.2745  -16.9421   22.9850 C.ar    1  UNL1        0.1796
     13 O         -11.9322  -16.2981   22.8026 O.2     1  UNL1       -0.4504
     14 O          -4.5193  -18.0380   23.4368 O.2     1  UNL1       -0.1499
     15 S          -4.0840  -16.7043   22.9061 S.O2    1  UNL1        0.0736
     16 O          -3.6487  -15.3706   22.3754 O.2     1  UNL1       -0.1499
     17 C          -3.1392  -17.3880   21.9626 C.ar    1  UNL1        0.1268
     18 C          -1.8915  -16.6878   21.5122 C.ar    1  UNL1        0.0316
     19 C          -0.9467  -17.3714   20.5688 C.ar    1  UNL1        0.0599
     20 CL          0.3010  -16.6711   20.1184 Cl      1  UNL1       -0.0822
     21 C          -1.2496  -18.7553   20.0759 C.ar    1  UNL1        0.0229
     22 C          -2.4973  -19.4556   20.5264 C.ar    1  UNL1        0.0599
     23 CL         -2.8001  -20.8396   20.0334 Cl      1  UNL1       -0.0822
     24 C          -3.4421  -18.7719   21.4697 C.ar    1  UNL1        0.0316
@<TRIPOS>BOND
     1    14    15    2
     2    15    16    2
     3    15     1    1
     4     1     3    1
     5     3     4   ar
     6     4     5   ar
     7     5     6   ar
     8     6     9    1
     9     9    10   ar
    10    10    11   ar
    11    11    12   ar
    12    12    13   ar
    13     6     7   ar
    14     7     8   ar
    15    15    17    1
    16    17    18   ar
    17    18    19   ar
    18    19    20    1
    19    19    21   ar
    20    21    22   ar
    21    22    23    1
    22    22    24   ar
    23     8     3   ar
    24    24    17   ar
    25    13     9   ar
    26     1     2    1
