@<TRIPOS>MOLECULE
*****
 25 28 0 0 0
SMALL
GASTEIGER

@<TRIPOS>ATOM
      1 C          -7.9650  -18.2406   21.9792 C.2     1  UNL1       -0.0420
      2 C          -8.5562  -16.9117   22.3460 C.2     1  UNL1       -0.0240
      3 C         -10.0416  -16.9965   22.1552 C.ar    1  UNL1       -0.0078
      4 C         -11.1387  -15.9943   22.3603 C.ar    1  UNL1       -0.0006
      5 C         -12.5627  -16.3736   22.0805 C.ar    1  UNL1       -0.0000
      6 C         -12.8896  -17.7549   21.5957 C.ar    1  UNL1       -0.0003
      7 C         -11.7925  -18.7570   21.3906 C.ar    1  UNL1       -0.0040
      8 C         -10.3685  -18.3778   21.6704 C.ar    1  UNL1       -0.0184
      9 C          -9.0851  -19.1467   21.5616 C.3     1  UNL1        0.0480
     10 C          -6.5094  -18.6002   22.0223 C.3     1  UNL1        0.0394
     11 C          -5.8175  -19.0770   20.7798 C.3     1  UNL1        0.0766
     12 F          -0.5866  -18.6305   19.8421 F       1  UNL1       -0.2028
     13 C          -2.0853  -18.6682   19.7955 C.3     1  UNL1        0.2797
     14 F          -1.8945  -18.2528   18.3668 F       1  UNL1       -0.2028
     15 C          -1.9628  -19.0757   21.2339 C.3     1  UNL1        0.0853
     16 C          -3.3460  -19.2785   21.7777 C.3     1  UNL1        0.0779
     17 N          -4.3234  -18.9963   20.6754 N.3     1  UNL1       -0.2677
     18 C          -3.5442  -18.6191   19.4503 C.3     1  UNL1        0.1395
     19 C          -7.7954  -15.7091   22.8204 C.3     1  UNL1        0.0730
     20 C          -7.4185  -15.5826   24.2669 C.ar    1  UNL1        0.0825
     21 C          -8.4568  -15.7753   25.3321 C.ar    1  UNL1        0.1139
     22 N          -8.0800  -15.6489   26.7785 N.ar    1  UNL1       -0.2394
     23 C          -6.6648  -15.3296   27.1596 C.ar    1  UNL1        0.1195
     24 C          -5.6265  -15.1368   26.0943 C.ar    1  UNL1        0.1191
     25 N          -6.0033  -15.2633   24.6480 N.ar    1  UNL1       -0.2446
@<TRIPOS>BOND
     1    12    13    1
     2    13    14    1
     3    13    15    1
     4    15    16    1
     5    16    17    1
     6    17    11    1
     7    11    10    1
     8    10     1    1
     9     1     2    2
    10     2    19    1
    11    19    20    1
    12    20    21   ar
    13    21    22   ar
    14    22    23   ar
    15    23    24   ar
    16    24    25   ar
    17     2     3    1
    18     3     4   ar
    19     4     5   ar
    20     5     6   ar
    21     6     7   ar
    22     7     8   ar
    23     8     9    1
    24    17    18    1
    25    18    13    1
    26     9     1    1
    27    25    20   ar
    28     8     3   ar
@<TRIPOS>MOLECULE
*****
 25 28 0 0 0
SMALL
GASTEIGER

@<TRIPOS>ATOM
      1 C          -6.8265  -18.0925   22.1705 C.2     1  UNL1       -0.0420
      2 C          -8.1293  -17.9086   22.8907 C.2     1  UNL1       -0.0240
      3 C          -7.8982  -16.9646   24.0332 C.ar    1  UNL1       -0.0078
      4 C          -8.8174  -16.4172   25.0846 C.ar    1  UNL1       -0.0006
      5 C          -8.2908  -15.4703   26.1219 C.ar    1  UNL1       -0.0000
      6 C          -6.8450  -15.0708   26.1079 C.ar    1  UNL1       -0.0003
      7 C          -5.9258  -15.6182   25.0565 C.ar    1  UNL1       -0.0040
      8 C          -6.4524  -16.5651   24.0192 C.ar    1  UNL1       -0.0184
      9 C          -5.7901  -17.2622   22.8679 C.3     1  UNL1        0.0480
     10 C          -6.5998  -18.9553   20.9645 C.3     1  UNL1        0.0394
     11 C          -5.4917  -19.9662   20.9632 C.3     1  UNL1        0.0766
     12 F          -0.5776  -18.2643   19.7811 F       1  UNL1       -0.2028
     13 C          -2.0203  -18.6741   19.8032 C.3     1  UNL1        0.2797
     14 F          -1.9948  -18.2681   18.3593 F       1  UNL1       -0.2028
     15 C          -1.7442  -18.9945   21.2423 C.3     1  UNL1        0.0853
     16 C          -3.0110  -19.5175   21.8520 C.3     1  UNL1        0.0779
     17 N          -4.0700  -19.5204   20.7897 N.3     1  UNL1       -0.2677
     18 C          -3.4577  -18.9991   19.5234 C.3     1  UNL1        0.1395
     19 C          -9.4343  -18.5551   22.5314 C.3     1  UNL1        0.0730
     20 C         -10.4752  -17.7776   21.7816 C.ar    1  UNL1        0.0825
     21 C         -11.9146  -18.1946   21.8469 C.ar    1  UNL1        0.1139
     22 N         -12.9555  -17.4172   21.0971 N.ar    1  UNL1       -0.2394
     23 C         -12.5569  -16.2226   20.2821 C.ar    1  UNL1        0.1195
     24 C         -11.1176  -15.8056   20.2168 C.ar    1  UNL1        0.1191
     25 N         -10.0767  -16.5830   20.9666 N.ar    1  UNL1       -0.2446
@<TRIPOS>BOND
     1    12    13    1
     2    13    14    1
     3    13    15    1
     4    15    16    1
     5    16    17    1
     6    17    11    1
     7    11    10    1
     8    10     1    1
     9     1     2    2
    10     2    19    1
    11    19    20    1
    12    20    21   ar
    13    21    22   ar
    14    22    23   ar
    15    23    24   ar
    16    24    25   ar
    17     2     3    1
    18     3     4   ar
    19     4     5   ar
    20     5     6   ar
    21     6     7   ar
    22     7     8   ar
    23     8     9    1
    24    17    18    1
    25    18    13    1
    26     9     1    1
    27    25    20   ar
    28     8     3   ar
@<TRIPOS>MOLECULE
*****
 25 28 0 0 0
SMALL
GASTEIGER

@<TRIPOS>ATOM
      1 C          -7.1286  -18.0478   22.2103 C.2     1  UNL1       -0.0420
      2 C          -7.1122  -19.0285   21.0755 C.2     1  UNL1       -0.0240
      3 C          -5.7022  -19.5085   20.8979 C.ar    1  UNL1       -0.0078
      4 C          -5.0864  -20.4801   19.9353 C.ar    1  UNL1       -0.0006
      5 C          -3.6155  -20.7675   19.9977 C.ar    1  UNL1       -0.0000
      6 C          -2.7605  -20.0834   21.0229 C.ar    1  UNL1       -0.0003
      7 C          -3.3763  -19.1118   21.9855 C.ar    1  UNL1       -0.0040
      8 C          -4.8471  -18.8244   21.9231 C.ar    1  UNL1       -0.0184
      9 C          -5.7287  -17.9216   22.7341 C.3     1  UNL1        0.0480
     10 C          -8.3334  -17.3208   22.7300 C.3     1  UNL1        0.0394
     11 C          -8.1944  -15.9276   23.2681 C.3     1  UNL1        0.0766
     12 F          -6.6366  -15.3018   28.3301 F       1  UNL1       -0.2028
     13 C          -7.3558  -15.5659   27.0406 C.3     1  UNL1        0.2797
     14 F          -8.5061  -15.9183   27.9365 F       1  UNL1       -0.2028
     15 C          -6.0552  -15.1583   26.4142 C.3     1  UNL1        0.0853
     16 C          -6.2111  -15.2442   24.9248 C.3     1  UNL1        0.0779
     17 N          -7.6080  -15.7049   24.6306 N.3     1  UNL1       -0.2677
     18 C          -8.3155  -15.9037   25.9383 C.3     1  UNL1        0.1395
     19 C          -8.2976  -19.4546   20.2611 C.3     1  UNL1        0.0730
     20 C          -9.6584  -18.9058   20.5733 C.ar    1  UNL1        0.0825
     21 C         -10.5126  -19.5661   21.6145 C.ar    1  UNL1        0.1139
     22 N         -11.8732  -19.0174   21.9267 N.ar    1  UNL1       -0.2394
     23 C         -12.3797  -17.8083   21.1977 C.ar    1  UNL1        0.1195
     24 C         -11.5254  -17.1479   20.1564 C.ar    1  UNL1        0.1191
     25 N         -10.1648  -17.6966   19.8442 N.ar    1  UNL1       -0.2446
@<TRIPOS>BOND
     1    12    13    1
     2    13    14    1
     3    13    15    1
     4    15    16    1
     5    16    17    1
     6    17    11    1
     7    11    10    1
     8    10     1    1
     9     1     2    2
    10     2    19    1
    11    19    20    1
    12    20    21   ar
    13    21    22   ar
    14    22    23   ar
    15    23    24   ar
    16    24    25   ar
    17     2     3    1
    18     3     4   ar
    19     4     5   ar
    20     5     6   ar
    21     6     7   ar
    22     7     8   ar
    23     8     9    1
    24    17    18    1
    25    18    13    1
    26     9     1    1
    27    25    20   ar
    28     8     3   ar
@<TRIPOS>MOLECULE
*****
 25 28 0 0 0
SMALL
GASTEIGER

@<TRIPOS>ATOM
      1 C         -14.4357   -7.4954   16.9590 C.2     1  UNL1       -0.0420
      2 C         -15.3959   -6.4864   17.5156 C.2     1  UNL1       -0.0240
      3 C         -16.3511   -7.2058   18.4213 C.ar    1  UNL1       -0.0078
      4 C         -17.5098   -6.7250   19.2435 C.ar    1  UNL1       -0.0006
      5 C         -18.2986   -7.6979   20.0689 C.ar    1  UNL1       -0.0000
      6 C         -17.9286   -9.1515   20.0720 C.ar    1  UNL1       -0.0003
      7 C         -16.7699   -9.6323   19.2498 C.ar    1  UNL1       -0.0040
      8 C         -15.9811   -8.6595   18.4245 C.ar    1  UNL1       -0.0184
      9 C         -14.7973   -8.8384   17.5207 C.3     1  UNL1        0.0480
     10 C         -13.3112   -7.2113   16.0078 C.3     1  UNL1        0.0394
     11 C         -11.9927   -7.9062   16.1762 C.3     1  UNL1        0.0766
     12 F          -8.9286   -5.8564   20.0300 F       1  UNL1       -0.2028
     13 C          -9.9324   -6.1422   18.9527 C.3     1  UNL1        0.2797
     14 F         -10.3777   -4.7335   19.2122 F       1  UNL1       -0.2028
     15 C          -9.2772   -7.4911   18.9184 C.3     1  UNL1        0.0853
     16 C          -9.9693   -8.3161   17.8742 C.3     1  UNL1        0.0779
     17 N         -11.0521   -7.4771   17.2631 N.3     1  UNL1       -0.2677
     18 C         -11.0293   -6.1334   17.9297 C.3     1  UNL1        0.1395
     19 C         -15.4004   -5.0161   17.2187 C.3     1  UNL1        0.0730
     20 C         -14.4309   -4.1074   17.9149 C.ar    1  UNL1        0.0825
     21 C         -13.6327   -3.1144   17.1232 C.ar    1  UNL1        0.1139
     22 N         -12.6633   -2.2057   17.8193 N.ar    1  UNL1       -0.2394
     23 C         -12.4921   -2.2901   19.3071 C.ar    1  UNL1        0.1195
     24 C         -13.2904   -3.2832   20.0987 C.ar    1  UNL1        0.1191
     25 N         -14.2598   -4.1918   19.4027 N.ar    1  UNL1       -0.2446
@<TRIPOS>BOND
     1    12    13    1
     2    13    14    1
     3    13    15    1
     4    15    16    1
     5    16    17    1
     6    17    11    1
     7    11    10    1
     8    10     1    1
     9     1     2    2
    10     2    19    1
    11    19    20    1
    12    20    21   ar
    13    21    22   ar
    14    22    23   ar
    15    23    24   ar
    16    24    25   ar
    17     2     3    1
    18     3     4   ar
    19     4     5   ar
    20     5     6   ar
    21     6     7   ar
    22     7     8   ar
    23     8     9    1
    24    17    18    1
    25    18    13    1
    26     9     1    1
    27    25    20   ar
    28     8     3   ar
@<TRIPOS>MOLECULE
*****
 25 28 0 0 0
SMALL
GASTEIGER

@<TRIPOS>ATOM
      1 C         -14.6171   -6.5723   17.2776 C.2     1  UNL1       -0.0420
      2 C         -15.6386   -6.3279   18.3485 C.2     1  UNL1       -0.0240
      3 C         -16.2412   -7.6491   18.7246 C.ar    1  UNL1       -0.0078
      4 C         -17.2970   -8.0231   19.7222 C.ar    1  UNL1       -0.0006
      5 C         -17.7037   -9.4581   19.8813 C.ar    1  UNL1       -0.0000
      6 C         -17.0546  -10.5191   19.0428 C.ar    1  UNL1       -0.0003
      7 C         -15.9987  -10.1450   18.0452 C.ar    1  UNL1       -0.0040
      8 C         -15.5920   -8.7100   17.8861 C.ar    1  UNL1       -0.0184
      9 C         -14.5883   -8.0445   16.9918 C.3     1  UNL1        0.0480
     10 C         -13.7727   -5.5278   16.6098 C.3     1  UNL1        0.0394
     11 C         -12.3469   -5.8300   16.2555 C.3     1  UNL1        0.0766
     12 F          -8.6393   -6.5160   20.0271 F       1  UNL1       -0.2028
     13 C          -9.6834   -6.6466   18.9582 C.3     1  UNL1        0.2797
     14 F          -9.4680   -8.1190   19.1476 F       1  UNL1       -0.2028
     15 C          -9.6806   -5.1470   18.9923 C.3     1  UNL1        0.0853
     16 C         -10.6780   -4.6586   17.9840 C.3     1  UNL1        0.0779
     17 N         -11.2972   -5.8563   17.3267 N.3     1  UNL1       -0.2677
     18 C         -10.6825   -7.0851   17.9288 C.3     1  UNL1        0.1395
     19 C         -15.9951   -4.9961   18.9396 C.3     1  UNL1        0.0730
     20 C         -14.9858   -3.8864   18.9512 C.ar    1  UNL1        0.0825
     21 C         -13.8751   -3.8932   19.9593 C.ar    1  UNL1        0.1139
     22 N         -12.8659   -2.7836   19.9709 N.ar    1  UNL1       -0.2394
     23 C         -12.9675   -1.6671   18.9744 C.ar    1  UNL1        0.1195
     24 C         -14.0782   -1.6602   17.9663 C.ar    1  UNL1        0.1191
     25 N         -15.0874   -2.7698   17.9546 N.ar    1  UNL1       -0.2446
@<TRIPOS>BOND
     1    12    13    1
     2    13    14    1
     3    13    15    1
     4    15    16    1
     5    16    17    1
     6    17    11    1
     7    11    10    1
     8    10     1    1
     9     1     2    2
    10     2    19    1
    11    19    20    1
    12    20    21   ar
    13    21    22   ar
    14    22    23   ar
    15    23    24   ar
    16    24    25   ar
    17     2     3    1
    18     3     4   ar
    19     4     5   ar
    20     5     6   ar
    21     6     7   ar
    22     7     8   ar
    23     8     9    1
    24    17    18    1
    25    18    13    1
    26     9     1    1
    27    25    20   ar
    28     8     3   ar
@<TRIPOS>MOLECULE
*****
 25 28 0 0 0
SMALL
GASTEIGER

@<TRIPOS>ATOM
      1 C         -16.2231   -5.5979   19.0175 C.2     1  UNL1       -0.0420
      2 C         -15.3348   -6.4794   18.1905 C.2     1  UNL1       -0.0240
      3 C         -15.7897   -7.8971   18.3721 C.ar    1  UNL1       -0.0078
      4 C         -15.2901   -9.1922   17.8036 C.ar    1  UNL1       -0.0006
      5 C         -15.9600  -10.4820   18.1743 C.ar    1  UNL1       -0.0000
      6 C         -17.1295  -10.4768   19.1136 C.ar    1  UNL1       -0.0003
      7 C         -17.6291   -9.1818   19.6822 C.ar    1  UNL1       -0.0040
      8 C         -16.9592   -7.8920   19.3114 C.ar    1  UNL1       -0.0184
      9 C         -17.2270   -6.4710   19.7103 C.3     1  UNL1        0.0480
     10 C         -16.1248   -4.1055   19.1318 C.3     1  UNL1        0.0394
     11 C         -15.0332   -3.4865   19.9534 C.3     1  UNL1        0.0766
     12 F         -11.3197   -0.1981   17.9943 F       1  UNL1       -0.2028
     13 C         -12.1092   -1.2843   18.6624 C.3     1  UNL1        0.2797
     14 F         -10.7597   -1.8020   19.0638 F       1  UNL1       -0.2028
     15 C         -13.2936   -0.5397   18.1215 C.3     1  UNL1        0.0853
     16 C         -14.5331   -1.2740   18.5392 C.3     1  UNL1        0.0779
     17 N         -14.1147   -2.4725   19.3384 N.3     1  UNL1       -0.2677
     18 C         -12.6166   -2.4789   19.4145 C.3     1  UNL1        0.1395
     19 C         -14.1922   -6.0231   17.3324 C.3     1  UNL1        0.0730
     20 C         -12.7963   -6.4802   17.6371 C.ar    1  UNL1        0.0825
     21 C         -12.1910   -7.6112   16.8596 C.ar    1  UNL1        0.1139
     22 N         -10.7952   -8.0683   17.1641 N.ar    1  UNL1       -0.2394
     23 C         -10.0047   -7.3944   18.2463 C.ar    1  UNL1        0.1195
     24 C         -10.6100   -6.2634   19.0238 C.ar    1  UNL1        0.1191
     25 N         -12.0058   -5.8063   18.7192 N.ar    1  UNL1       -0.2446
@<TRIPOS>BOND
     1    12    13    1
     2    13    14    1
     3    13    15    1
     4    15    16    1
     5    16    17    1
     6    17    11    1
     7    11    10    1
     8    10     1    1
     9     1     2    2
    10     2    19    1
    11    19    20    1
    12    20    21   ar
    13    21    22   ar
    14    22    23   ar
    15    23    24   ar
    16    24    25   ar
    17     2     3    1
    18     3     4   ar
    19     4     5   ar
    20     5     6   ar
    21     6     7   ar
    22     7     8   ar
    23     8     9    1
    24    17    18    1
    25    18    13    1
    26     9     1    1
    27    25    20   ar
    28     8     3   ar
@<TRIPOS>MOLECULE
*****
 25 28 0 0 0
SMALL
GASTEIGER

@<TRIPOS>ATOM
      1 C           4.4681   -2.4187   22.9795 C.2     1  UNL1       -0.0420
      2 C           3.7496   -1.9853   21.7362 C.2     1  UNL1       -0.0240
      3 C           2.8029   -0.8829   22.1083 C.ar    1  UNL1       -0.0078
      4 C           1.8366   -0.0728   21.2960 C.ar    1  UNL1       -0.0006
      5 C           1.0037    0.9852   21.9569 C.ar    1  UNL1       -0.0000
      6 C           1.1372    1.2331   23.4303 C.ar    1  UNL1       -0.0003
      7 C           2.1035    0.4231   24.2426 C.ar    1  UNL1       -0.0040
      8 C           2.9363   -0.6350   23.5817 C.ar    1  UNL1       -0.0184
      9 C           3.9655   -1.5841   24.1200 C.3     1  UNL1        0.0480
     10 C           5.5069   -3.4973   23.0669 C.3     1  UNL1        0.0394
     11 C           6.4496   -3.5379   24.2329 C.3     1  UNL1        0.0766
     12 F           8.5770   -8.2887   25.3932 F       1  UNL1       -0.2028
     13 C           8.0961   -7.0114   24.7711 C.3     1  UNL1        0.2797
     14 F           8.7426   -7.5557   23.5317 F       1  UNL1       -0.2028
     15 C           7.5502   -6.7341   26.1404 C.3     1  UNL1        0.0853
     16 C           6.8669   -5.3992   26.1055 C.3     1  UNL1        0.0779
     17 N           6.9906   -4.8514   24.7145 N.3     1  UNL1       -0.2677
     18 C           7.7503   -5.8479   23.8898 C.3     1  UNL1        0.1395
     19 C           3.9436   -2.5544   20.3620 C.3     1  UNL1        0.0730
     20 C           4.8563   -1.8692   19.3884 C.ar    1  UNL1        0.0825
     21 C           5.6900   -2.6817   18.4425 C.ar    1  UNL1        0.1139
     22 N           6.6027   -1.9966   17.4691 N.ar    1  UNL1       -0.2394
     23 C           6.6815   -0.4990   17.4414 C.ar    1  UNL1        0.1195
     24 C           5.8478    0.3136   18.3873 C.ar    1  UNL1        0.1191
     25 N           4.9352   -0.3715   19.3608 N.ar    1  UNL1       -0.2446
@<TRIPOS>BOND
     1    12    13    1
     2    13    14    1
     3    13    15    1
     4    15    16    1
     5    16    17    1
     6    17    11    1
     7    11    10    1
     8    10     1    1
     9     1     2    2
    10     2    19    1
    11    19    20    1
    12    20    21   ar
    13    21    22   ar
    14    22    23   ar
    15    23    24   ar
    16    24    25   ar
    17     2     3    1
    18     3     4   ar
    19     4     5   ar
    20     5     6   ar
    21     6     7   ar
    22     7     8   ar
    23     8     9    1
    24    17    18    1
    25    18    13    1
    26     9     1    1
    27    25    20   ar
    28     8     3   ar
@<TRIPOS>MOLECULE
*****
 25 28 0 0 0
SMALL
GASTEIGER

@<TRIPOS>ATOM
      1 C         -14.6579   -5.9718   17.7609 C.2     1  UNL1       -0.0420
      2 C         -15.5664   -6.0319   18.9529 C.2     1  UNL1       -0.0240
      3 C         -16.0940   -7.4317   19.0636 C.ar    1  UNL1       -0.0078
      4 C         -17.0295   -8.0772   20.0423 C.ar    1  UNL1       -0.0006
      5 C         -17.3825   -9.5279   19.8974 C.ar    1  UNL1       -0.0000
      6 C         -16.7999  -10.3329   18.7738 C.ar    1  UNL1       -0.0003
      7 C         -15.8644   -9.6874   17.7951 C.ar    1  UNL1       -0.0040
      8 C         -15.5114   -8.2368   17.9400 C.ar    1  UNL1       -0.0184
      9 C         -14.6239   -7.3345   17.1349 C.3     1  UNL1        0.0480
     10 C         -13.9139   -4.7615   17.2794 C.3     1  UNL1        0.0394
     11 C         -12.5318   -4.9062   16.7149 C.3     1  UNL1        0.0766
     12 F          -8.8188   -7.7802   19.2438 F       1  UNL1       -0.2028
     13 C          -9.9051   -7.2426   18.3603 C.3     1  UNL1        0.2797
     14 F          -9.8694   -8.6121   17.7491 F       1  UNL1       -0.2028
     15 C          -9.7138   -5.9856   19.1561 C.3     1  UNL1        0.0853
     16 C         -10.6744   -4.9574   18.6366 C.3     1  UNL1        0.0779
     17 N         -11.4595   -5.5789   17.5197 N.3     1  UNL1       -0.2677
     18 C         -10.9840   -6.9913   17.3489 C.3     1  UNL1        0.1395
     19 C         -15.8906   -4.8922   19.8727 C.3     1  UNL1        0.0730
     20 C         -16.9575   -3.9064   19.4984 C.ar    1  UNL1        0.0825
     21 C         -18.2498   -4.3878   18.9083 C.ar    1  UNL1        0.1139
     22 N         -19.3166   -3.4021   18.5340 N.ar    1  UNL1       -0.2394
     23 C         -19.0911   -1.9349   18.7497 C.ar    1  UNL1        0.1195
     24 C         -17.7988   -1.4535   19.3398 C.ar    1  UNL1        0.1191
     25 N         -16.7320   -2.4392   19.7141 N.ar    1  UNL1       -0.2446
@<TRIPOS>BOND
     1    12    13    1
     2    13    14    1
     3    13    15    1
     4    15    16    1
     5    16    17    1
     6    17    11    1
     7    11    10    1
     8    10     1    1
     9     1     2    2
    10     2    19    1
    11    19    20    1
    12    20    21   ar
    13    21    22   ar
    14    22    23   ar
    15    23    24   ar
    16    24    25   ar
    17     2     3    1
    18     3     4   ar
    19     4     5   ar
    20     5     6   ar
    21     6     7   ar
    22     7     8   ar
    23     8     9    1
    24    17    18    1
    25    18    13    1
    26     9     1    1
    27    25    20   ar
    28     8     3   ar
@<TRIPOS>MOLECULE
*****
 25 28 0 0 0
SMALL
GASTEIGER

@<TRIPOS>ATOM
      1 C           3.5261   -2.5115   20.1464 C.2     1  UNL1       -0.0420
      2 C           4.0407   -2.5800   21.5537 C.2     1  UNL1       -0.0240
      3 C           3.4007   -1.4714   22.3357 C.ar    1  UNL1       -0.0078
      4 C           3.5291   -1.0508   23.7698 C.ar    1  UNL1       -0.0006
      5 C           2.7475    0.1234   24.2798 C.ar    1  UNL1       -0.0000
      6 C           1.8374    0.8771   23.3557 C.ar    1  UNL1       -0.0003
      7 C           1.7090    0.4565   21.9217 C.ar    1  UNL1       -0.0040
      8 C           2.4907   -0.7177   21.4117 C.ar    1  UNL1       -0.0184
      9 C           2.5682   -1.3606   20.0586 C.3     1  UNL1        0.0480
     10 C           3.9033   -3.4323   19.0239 C.3     1  UNL1        0.0394
     11 C           5.1834   -3.2144   18.2731 C.3     1  UNL1        0.0766
     12 F           7.1428    1.6005   17.0817 F       1  UNL1       -0.2028
     13 C           6.8819    0.2005   17.5527 C.3     1  UNL1        0.2797
     14 F           8.2825    0.2857   18.0829 F       1  UNL1       -0.2028
     15 C           5.5358    0.4079   16.9240 C.3     1  UNL1        0.0853
     16 C           4.7358   -0.8461   17.1174 C.3     1  UNL1        0.0779
     17 N           5.5873   -1.8285   17.8655 N.3     1  UNL1       -0.2677
     18 C           6.9137   -1.1817   18.1346 C.3     1  UNL1        0.1395
     19 C           5.0227   -3.5812   22.0857 C.3     1  UNL1        0.0730
     20 C           6.4744   -3.4735   21.7234 C.ar    1  UNL1        0.0825
     21 C           7.1595   -2.1396   21.7598 C.ar    1  UNL1        0.1139
     22 N           8.6111   -2.0318   21.3975 N.ar    1  UNL1       -0.2394
     23 C           9.3776   -3.2580   20.9989 C.ar    1  UNL1        0.1195
     24 C           8.6925   -4.5919   20.9626 C.ar    1  UNL1        0.1191
     25 N           7.2409   -4.6997   21.3248 N.ar    1  UNL1       -0.2446
@<TRIPOS>BOND
     1    12    13    1
     2    13    14    1
     3    13    15    1
     4    15    16    1
     5    16    17    1
     6    17    11    1
     7    11    10    1
     8    10     1    1
     9     1     2    2
    10     2    19    1
    11    19    20    1
    12    20    21   ar
    13    21    22   ar
    14    22    23   ar
    15    23    24   ar
    16    24    25   ar
    17     2     3    1
    18     3     4   ar
    19     4     5   ar
    20     5     6   ar
    21     6     7   ar
    22     7     8   ar
    23     8     9    1
    24    17    18    1
    25    18    13    1
    26     9     1    1
    27    25    20   ar
    28     8     3   ar
