@<TRIPOS>MOLECULE
*****
 24 26 0 0 0
SMALL
GASTEIGER

@<TRIPOS>ATOM
      1 C          -8.6042  -19.3442   21.0906 C.2     1  UNL1        0.0936
      2 C          -7.7912  -18.9015   22.2710 C.2     1  UNL1        0.1201
      3 O          -8.4654  -18.6082   23.5784 O.2     1  UNL1       -0.5092
      4 C          -6.3041  -18.7521   22.1439 C.3     1  UNL1        0.0690
      5 C          -5.6299  -19.0455   20.8365 C.3     1  UNL1        0.0375
      6 C          -6.4427  -19.4882   19.6562 C.3     1  UNL1        0.0746
      7 C          -7.9299  -19.6375   19.7832 C.2     1  UNL1        0.1819
      8 O          -8.7428  -20.0802   18.6029 O.2     1  UNL1       -0.2907
      9 H          -9.3944  -18.7015   23.6578 H       1  UNL1        0.2917
     10 C          -4.1428  -18.8961   20.7094 C.ar    1  UNL1       -0.0216
     11 C          -3.5299  -18.6044   19.3717 C.ar    1  UNL1       -0.0043
     12 C          -2.0428  -18.4551   19.2446 C.ar    1  UNL1       -0.0003
     13 C          -1.1685  -18.5973   20.4552 C.ar    1  UNL1       -0.0000
     14 C          -1.7814  -18.8890   21.7928 C.ar    1  UNL1       -0.0003
     15 C          -3.2685  -19.0384   21.9200 C.ar    1  UNL1       -0.0043
     16 S         -10.0912  -19.4936   21.2177 S.3     1  UNL1       -0.0807
     17 C         -11.7152  -17.7936   22.3236 C.ar    1  UNL1        0.0744
     18 C         -12.6015  -16.5879   22.2205 C.ar    1  UNL1        0.0108
     19 C         -12.7505  -15.8766   20.9083 C.ar    1  UNL1        0.0007
     20 C         -12.0130  -16.3709   19.6993 C.ar    1  UNL1        0.0006
     21 C         -11.1266  -17.5765   19.8024 C.ar    1  UNL1        0.0072
     22 C         -10.9777  -18.2879   21.1146 C.ar    1  UNL1        0.0392
     23 N         -11.4173  -19.2163   24.9480 N.1     1  UNL1       -0.1908
     24 C         -11.5662  -18.5049   23.6358 C.1     1  UNL1        0.1009
@<TRIPOS>BOND
     1    23    24    3
     2    24    17    1
     3    17    18   ar
     4    18    19   ar
     5    19    20   ar
     6    20    21   ar
     7    21    22   ar
     8    22    16    1
     9    16     1    1
    10     1     2    2
    11     2     3    1
    12     2     4    1
    13     4     5    1
    14     5    10    1
    15    10    11   ar
    16    11    12   ar
    17    12    13   ar
    18    13    14   ar
    19    14    15   ar
    20     5     6    1
    21     6     7    1
    22     7     8    2
    23    22    17   ar
    24     7     1    1
    25    15    10   ar
    26     3     9    1
@<TRIPOS>MOLECULE
*****
 24 26 0 0 0
SMALL
GASTEIGER

@<TRIPOS>ATOM
      1 C          -5.5953  -18.5749   22.6740 C.2     1  UNL1        0.0936
      2 C          -6.6030  -19.5825   22.2057 C.2     1  UNL1        0.1201
      3 O          -6.1525  -20.9411   21.7572 O.2     1  UNL1       -0.5092
      4 C          -8.0612  -19.2315   22.1860 C.3     1  UNL1        0.0690
      5 C          -8.5118  -17.8729   22.6345 C.3     1  UNL1        0.0375
      6 C          -7.5041  -16.8653   23.1027 C.3     1  UNL1        0.0746
      7 C          -6.0459  -17.2162   23.1225 C.2     1  UNL1        0.1819
      8 O          -5.0382  -16.2086   23.5907 O.2     1  UNL1       -0.2907
      9 H          -5.2416  -21.1604   21.7695 H       1  UNL1        0.2917
     10 C          -9.9700  -17.5219   22.6147 C.ar    1  UNL1       -0.0216
     11 C         -10.4494  -16.3540   21.8047 C.ar    1  UNL1       -0.0043
     12 C         -11.9076  -16.0030   21.7849 C.ar    1  UNL1       -0.0003
     13 C         -12.8864  -16.8199   22.5752 C.ar    1  UNL1       -0.0000
     14 C         -12.4071  -17.9877   23.3853 C.ar    1  UNL1       -0.0003
     15 C         -10.9488  -18.3388   23.4050 C.ar    1  UNL1       -0.0043
     16 S          -4.1371  -18.9258   22.6937 S.3     1  UNL1       -0.0807
     17 C          -2.9629  -18.8177   20.3786 C.ar    1  UNL1        0.0744
     18 C          -2.0156  -18.1408   19.4329 C.ar    1  UNL1        0.0108
     19 C          -1.2954  -16.8950   19.8564 C.ar    1  UNL1        0.0007
     20 C          -1.5224  -16.3262   21.2256 C.ar    1  UNL1        0.0006
     21 C          -2.4696  -17.0031   22.1714 C.ar    1  UNL1        0.0072
     22 C          -3.1899  -18.2489   21.7479 C.ar    1  UNL1        0.0392
     23 N          -4.4033  -21.3093   19.5316 N.1     1  UNL1       -0.1908
     24 C          -3.6831  -20.0635   19.9551 C.1     1  UNL1        0.1009
@<TRIPOS>BOND
     1    23    24    3
     2    24    17    1
     3    17    18   ar
     4    18    19   ar
     5    19    20   ar
     6    20    21   ar
     7    21    22   ar
     8    22    16    1
     9    16     1    1
    10     1     2    2
    11     2     3    1
    12     2     4    1
    13     4     5    1
    14     5    10    1
    15    10    11   ar
    16    11    12   ar
    17    12    13   ar
    18    13    14   ar
    19    14    15   ar
    20     5     6    1
    21     6     7    1
    22     7     8    2
    23    22    17   ar
    24     7     1    1
    25    15    10   ar
    26     3     9    1
@<TRIPOS>MOLECULE
*****
 24 26 0 0 0
SMALL
GASTEIGER

@<TRIPOS>ATOM
      1 C          -8.8714  -18.9546   20.6001 C.2     1  UNL1        0.0936
      2 C          -8.1237  -18.1232   21.6001 C.2     1  UNL1        0.1201
      3 O          -8.8761  -17.2929   22.5974 O.2     1  UNL1       -0.5092
      4 C          -6.6237  -18.1220   21.6027 C.3     1  UNL1        0.0690
      5 C          -5.8713  -18.9522   20.6054 C.3     1  UNL1        0.0375
      6 C          -6.6189  -19.7836   19.6055 C.3     1  UNL1        0.0746
      7 C          -8.1190  -19.7848   19.6028 C.2     1  UNL1        0.1819
      8 O          -8.8665  -20.6162   18.6029 O.2     1  UNL1       -0.2907
      9 H          -9.8131  -17.2937   22.5958 H       1  UNL1        0.2917
     10 C          -4.3714  -18.9510   20.6080 C.ar    1  UNL1       -0.0216
     11 C          -3.6195  -18.5942   19.3600 C.ar    1  UNL1       -0.0043
     12 C          -2.1195  -18.5930   19.3626 C.ar    1  UNL1       -0.0003
     13 C          -1.3714  -18.9487   20.6131 C.ar    1  UNL1       -0.0000
     14 C          -2.1232  -19.3055   21.8611 C.ar    1  UNL1       -0.0003
     15 C          -3.6233  -19.3067   21.8585 C.ar    1  UNL1       -0.0043
     16 S         -10.3713  -18.9557   20.5975 S.3     1  UNL1       -0.0807
     17 C         -12.1637  -17.7488   22.0401 C.ar    1  UNL1        0.0744
     18 C         -12.9160  -17.6121   23.3305 C.ar    1  UNL1        0.0108
     19 C         -12.6283  -18.5455   24.4689 C.ar    1  UNL1        0.0007
     20 C         -11.5884  -19.6157   24.3169 C.ar    1  UNL1        0.0006
     21 C         -10.8360  -19.7524   23.0264 C.ar    1  UNL1        0.0072
     22 C         -11.1237  -18.8190   21.8880 C.ar    1  UNL1        0.0392
     23 N         -12.7390  -15.8820   19.7632 N.1     1  UNL1       -0.1908
     24 C         -12.4514  -16.8154   20.9017 C.1     1  UNL1        0.1009
@<TRIPOS>BOND
     1    23    24    3
     2    24    17    1
     3    17    18   ar
     4    18    19   ar
     5    19    20   ar
     6    20    21   ar
     7    21    22   ar
     8    22    16    1
     9    16     1    1
    10     1     2    2
    11     2     3    1
    12     2     4    1
    13     4     5    1
    14     5    10    1
    15    10    11   ar
    16    11    12   ar
    17    12    13   ar
    18    13    14   ar
    19    14    15   ar
    20     5     6    1
    21     6     7    1
    22     7     8    2
    23    22    17   ar
    24     7     1    1
    25    15    10   ar
    26     3     9    1
@<TRIPOS>MOLECULE
*****
 24 26 0 0 0
SMALL
GASTEIGER

@<TRIPOS>ATOM
      1 C          -5.6347  -18.6135   22.6701 C.2     1  UNL1        0.0936
      2 C          -6.0779  -17.2445   23.0939 C.2     1  UNL1        0.1201
      3 O          -5.0633  -16.2291   23.5294 O.2     1  UNL1       -0.5092
      4 C          -7.5355  -16.8910   23.0823 C.3     1  UNL1        0.0690
      5 C          -8.5501  -17.9063   22.6468 C.3     1  UNL1        0.0375
      6 C          -8.1070  -19.2752   22.2230 C.3     1  UNL1        0.0746
      7 C          -6.6493  -19.6289   22.2346 C.2     1  UNL1        0.1819
      8 O          -6.2063  -20.9978   21.8108 O.2     1  UNL1       -0.2907
      9 H          -4.1527  -16.4500   23.5367 H       1  UNL1        0.2917
     10 C         -10.0078  -17.5528   22.6352 C.ar    1  UNL1       -0.0216
     11 C         -10.9883  -18.3878   23.4043 C.ar    1  UNL1       -0.0043
     12 C         -12.4459  -18.0343   23.3926 C.ar    1  UNL1       -0.0003
     13 C         -12.9232  -16.8457   22.6120 C.ar    1  UNL1       -0.0000
     14 C         -11.9428  -16.0106   21.8430 C.ar    1  UNL1       -0.0003
     15 C         -10.4850  -16.3641   21.8546 C.ar    1  UNL1       -0.0043
     16 S          -4.1771  -18.9671   22.6817 S.3     1  UNL1       -0.0807
     17 C          -2.9586  -18.7811   20.3946 C.ar    1  UNL1        0.0744
     18 C          -2.0056  -18.0640   19.4850 C.ar    1  UNL1        0.0108
     19 C          -1.3181  -16.8156   19.9527 C.ar    1  UNL1        0.0007
     20 C          -1.5836  -16.2843   21.3301 C.ar    1  UNL1        0.0006
     21 C          -2.5366  -17.0015   22.2398 C.ar    1  UNL1        0.0072
     22 C          -3.2240  -18.2499   21.7720 C.ar    1  UNL1        0.0392
     23 N          -4.3336  -21.2780   19.4591 N.1     1  UNL1       -0.1908
     24 C          -3.6461  -20.0296   19.9269 C.1     1  UNL1        0.1009
@<TRIPOS>BOND
     1    23    24    3
     2    24    17    1
     3    17    18   ar
     4    18    19   ar
     5    19    20   ar
     6    20    21   ar
     7    21    22   ar
     8    22    16    1
     9    16     1    1
    10     1     2    2
    11     2     3    1
    12     2     4    1
    13     4     5    1
    14     5    10    1
    15    10    11   ar
    16    11    12   ar
    17    12    13   ar
    18    13    14   ar
    19    14    15   ar
    20     5     6    1
    21     6     7    1
    22     7     8    2
    23    22    17   ar
    24     7     1    1
    25    15    10   ar
    26     3     9    1
@<TRIPOS>MOLECULE
*****
 24 26 0 0 0
SMALL
GASTEIGER

@<TRIPOS>ATOM
      1 C          -5.8579  -19.2054   21.6291 C.2     1  UNL1        0.0936
      2 C          -6.3064  -18.0211   22.4331 C.2     1  UNL1        0.1201
      3 O          -5.3154  -17.2583   23.2614 O.2     1  UNL1       -0.5092
      4 C          -7.7458  -17.5998   22.4089 C.3     1  UNL1        0.0690
      5 C          -8.7367  -18.3627   21.5806 C.3     1  UNL1        0.0375
      6 C          -8.2883  -19.5469   20.7766 C.3     1  UNL1        0.0746
      7 C          -6.8489  -19.9683   20.8008 C.2     1  UNL1        0.1819
      8 O          -6.4005  -21.1525   19.9968 O.2     1  UNL1       -0.2907
      9 H          -4.4163  -17.5215   23.2765 H       1  UNL1        0.2917
     10 C         -10.1761  -17.9414   21.5564 C.ar    1  UNL1       -0.0216
     11 C         -10.6839  -17.0699   20.4461 C.ar    1  UNL1       -0.0043
     12 C         -12.1233  -16.6485   20.4219 C.ar    1  UNL1       -0.0003
     13 C         -13.0549  -17.0986   21.5079 C.ar    1  UNL1       -0.0000
     14 C         -12.5472  -17.9701   22.6182 C.ar    1  UNL1       -0.0003
     15 C         -11.1077  -18.3915   22.6424 C.ar    1  UNL1       -0.0043
     16 S          -4.4185  -19.6268   21.6533 S.3     1  UNL1       -0.0807
     17 C          -2.4147  -17.9926   21.3995 C.ar    1  UNL1        0.0744
     18 C          -1.4130  -17.2905   20.5314 C.ar    1  UNL1        0.0108
     19 C          -1.4134  -17.5203   19.0491 C.ar    1  UNL1        0.0007
     20 C          -2.4154  -18.4522   18.4349 C.ar    1  UNL1        0.0006
     21 C          -3.4171  -19.1543   19.3029 C.ar    1  UNL1        0.0072
     22 C          -3.4168  -18.9245   20.7852 C.ar    1  UNL1        0.0392
     23 N          -2.4140  -17.5331   24.3641 N.1     1  UNL1       -0.1908
     24 C          -2.4144  -17.7628   22.8818 C.1     1  UNL1        0.1009
@<TRIPOS>BOND
     1    23    24    3
     2    24    17    1
     3    17    18   ar
     4    18    19   ar
     5    19    20   ar
     6    20    21   ar
     7    21    22   ar
     8    22    16    1
     9    16     1    1
    10     1     2    2
    11     2     3    1
    12     2     4    1
    13     4     5    1
    14     5    10    1
    15    10    11   ar
    16    11    12   ar
    17    12    13   ar
    18    13    14   ar
    19    14    15   ar
    20     5     6    1
    21     6     7    1
    22     7     8    2
    23    22    17   ar
    24     7     1    1
    25    15    10   ar
    26     3     9    1
@<TRIPOS>MOLECULE
*****
 24 26 0 0 0
SMALL
GASTEIGER

@<TRIPOS>ATOM
      1 C          -5.8873  -19.1470   21.6545 C.2     1  UNL1        0.0936
      2 C          -6.8734  -19.9084   20.8190 C.2     1  UNL1        0.1201
      3 O          -6.4242  -21.1029   20.0308 O.2     1  UNL1       -0.5092
      4 C          -8.3087  -19.4752   20.7718 C.3     1  UNL1        0.0690
      5 C          -8.7579  -18.2806   21.5600 C.3     1  UNL1        0.0375
      6 C          -7.7719  -17.5193   22.3955 C.3     1  UNL1        0.0746
      7 C          -6.3365  -17.9525   22.4427 C.2     1  UNL1        0.1819
      8 O          -5.3505  -17.1911   23.2782 O.2     1  UNL1       -0.2907
      9 H          -5.5276  -21.3735   20.0604 H       1  UNL1        0.2917
     10 C         -10.1932  -17.8474   21.5127 C.ar    1  UNL1       -0.0216
     11 C         -11.1470  -18.2941   22.5808 C.ar    1  UNL1       -0.0043
     12 C         -12.5823  -17.8609   22.5336 C.ar    1  UNL1       -0.0003
     13 C         -13.0639  -16.9810   21.4182 C.ar    1  UNL1       -0.0000
     14 C         -12.1101  -16.5344   20.3502 C.ar    1  UNL1       -0.0003
     15 C         -10.6747  -16.9676   20.3974 C.ar    1  UNL1       -0.0043
     16 S          -4.4520  -19.5802   21.7018 S.3     1  UNL1       -0.0807
     17 C          -2.3860  -18.0288   21.4288 C.ar    1  UNL1        0.0744
     18 C          -1.3712  -17.3594   20.5502 C.ar    1  UNL1        0.0108
     19 C          -1.4077  -17.5719   19.0658 C.ar    1  UNL1        0.0007
     20 C          -2.4589  -18.4539   18.4600 C.ar    1  UNL1        0.0006
     21 C          -3.4737  -19.1233   19.3387 C.ar    1  UNL1        0.0072
     22 C          -3.4372  -18.9107   20.8231 C.ar    1  UNL1        0.0392
     23 N          -2.3130  -17.6036   24.3977 N.1     1  UNL1       -0.1908
     24 C          -2.3495  -17.8162   22.9133 C.1     1  UNL1        0.1009
@<TRIPOS>BOND
     1    23    24    3
     2    24    17    1
     3    17    18   ar
     4    18    19   ar
     5    19    20   ar
     6    20    21   ar
     7    21    22   ar
     8    22    16    1
     9    16     1    1
    10     1     2    2
    11     2     3    1
    12     2     4    1
    13     4     5    1
    14     5    10    1
    15    10    11   ar
    16    11    12   ar
    17    12    13   ar
    18    13    14   ar
    19    14    15   ar
    20     5     6    1
    21     6     7    1
    22     7     8    2
    23    22    17   ar
    24     7     1    1
    25    15    10   ar
    26     3     9    1
@<TRIPOS>MOLECULE
*****
 24 26 0 0 0
SMALL
GASTEIGER

@<TRIPOS>ATOM
      1 C           1.1302    2.3022   19.2969 C.2     1  UNL1        0.0936
      2 C           0.6375    1.0241   19.9083 C.2     1  UNL1        0.1201
      3 O          -0.6695    0.9996   20.6439 O.2     1  UNL1       -0.5092
      4 C           1.4519   -0.2294   19.7841 C.3     1  UNL1        0.0690
      5 C           2.7589   -0.2049   19.0485 C.3     1  UNL1        0.0375
      6 C           3.2516    1.0732   18.4371 C.3     1  UNL1        0.0746
      7 C           2.4372    2.3268   18.5612 C.2     1  UNL1        0.1819
      8 O           2.9298    3.6048   17.9498 O.2     1  UNL1       -0.2907
      9 H          -1.1782    1.7826   20.7215 H       1  UNL1        0.2917
     10 C           3.5733   -1.4584   18.9243 C.ar    1  UNL1       -0.0216
     11 C           4.8658   -1.4408   18.1631 C.ar    1  UNL1       -0.0043
     12 C           5.6801   -2.6943   18.0389 C.ar    1  UNL1       -0.0003
     13 C           5.2021   -3.9655   18.6758 C.ar    1  UNL1       -0.0000
     14 C           3.9097   -3.9831   19.4370 C.ar    1  UNL1       -0.0003
     15 C           3.0953   -2.7295   19.5612 C.ar    1  UNL1       -0.0043
     16 S           0.3158    3.5557   19.4210 S.3     1  UNL1       -0.0807
     17 C          -2.2008    3.8294   18.8363 C.ar    1  UNL1        0.0744
     18 C          -3.2767    4.1271   17.8344 C.ar    1  UNL1        0.0108
     19 C          -2.9120    4.4489   16.4155 C.ar    1  UNL1        0.0007
     20 C          -1.4714    4.4730   15.9984 C.ar    1  UNL1        0.0006
     21 C          -0.3955    4.1752   17.0002 C.ar    1  UNL1        0.0072
     22 C          -0.7602    3.8535   18.4192 C.ar    1  UNL1        0.0392
     23 N          -2.9302    3.1859   21.6742 N.1     1  UNL1       -0.1908
     24 C          -2.5655    3.5077   20.2552 C.1     1  UNL1        0.1009
@<TRIPOS>BOND
     1    23    24    3
     2    24    17    1
     3    17    18   ar
     4    18    19   ar
     5    19    20   ar
     6    20    21   ar
     7    21    22   ar
     8    22    16    1
     9    16     1    1
    10     1     2    2
    11     2     3    1
    12     2     4    1
    13     4     5    1
    14     5    10    1
    15    10    11   ar
    16    11    12   ar
    17    12    13   ar
    18    13    14   ar
    19    14    15   ar
    20     5     6    1
    21     6     7    1
    22     7     8    2
    23    22    17   ar
    24     7     1    1
    25    15    10   ar
    26     3     9    1
@<TRIPOS>MOLECULE
*****
 24 26 0 0 0
SMALL
GASTEIGER

@<TRIPOS>ATOM
      1 C           2.8116    0.5080   20.2665 C.2     1  UNL1        0.0936
      2 C           1.3484    0.7543   20.0462 C.2     1  UNL1        0.1201
      3 O           0.7464    0.5328   18.6903 O.2     1  UNL1       -0.5092
      4 C           0.4872    1.2221   21.1818 C.3     1  UNL1        0.0690
      5 C           1.0892    1.4436   22.5377 C.3     1  UNL1        0.0375
      6 C           2.5523    1.1974   22.7581 C.3     1  UNL1        0.0746
      7 C           3.4135    0.7296   21.6225 C.2     1  UNL1        0.1819
      8 O           4.8767    0.4834   21.8428 O.2     1  UNL1       -0.2907
      9 H           1.2843    0.2405   17.9809 H       1  UNL1        0.2917
     10 C           0.2281    1.9114   23.6733 C.ar    1  UNL1       -0.0216
     11 C           0.3125    1.2320   25.0079 C.ar    1  UNL1       -0.0043
     12 C          -0.5486    1.6997   26.1435 C.ar    1  UNL1       -0.0003
     13 C          -1.4943    2.8470   25.9445 C.ar    1  UNL1       -0.0000
     14 C          -1.5787    3.5265   24.6099 C.ar    1  UNL1       -0.0003
     15 C          -0.7176    3.0587   23.4743 C.ar    1  UNL1       -0.0043
     16 S           3.6727    0.0402   19.1310 S.3     1  UNL1       -0.0807
     17 C           5.2588   -1.8217   18.2550 C.ar    1  UNL1        0.0744
     18 C           5.6139   -3.2739   18.1319 C.ar    1  UNL1        0.0108
     19 C           4.7381   -4.3162   18.7615 C.ar    1  UNL1        0.0007
     20 C           3.5072   -3.9064   19.5144 C.ar    1  UNL1        0.0006
     21 C           3.1520   -2.4542   19.6375 C.ar    1  UNL1        0.0072
     22 C           4.0279   -1.4119   19.0078 C.ar    1  UNL1        0.0392
     23 N           7.0105    0.2629   16.9956 N.1     1  UNL1       -0.1908
     24 C           6.1347   -0.7794   17.6253 C.1     1  UNL1        0.1009
@<TRIPOS>BOND
     1    23    24    3
     2    24    17    1
     3    17    18   ar
     4    18    19   ar
     5    19    20   ar
     6    20    21   ar
     7    21    22   ar
     8    22    16    1
     9    16     1    1
    10     1     2    2
    11     2     3    1
    12     2     4    1
    13     4     5    1
    14     5    10    1
    15    10    11   ar
    16    11    12   ar
    17    12    13   ar
    18    13    14   ar
    19    14    15   ar
    20     5     6    1
    21     6     7    1
    22     7     8    2
    23    22    17   ar
    24     7     1    1
    25    15    10   ar
    26     3     9    1
@<TRIPOS>MOLECULE
*****
 24 26 0 0 0
SMALL
GASTEIGER

@<TRIPOS>ATOM
      1 C           2.7644    0.4989   20.2016 C.2     1  UNL1        0.0936
      2 C           3.3619    0.6768   21.5660 C.2     1  UNL1        0.1201
      3 O           4.8144    0.3788   21.7934 O.2     1  UNL1       -0.5092
      4 C           2.5070    1.1526   22.7030 C.3     1  UNL1        0.0690
      5 C           1.0546    1.4506   22.4756 C.3     1  UNL1        0.0375
      6 C           0.4571    1.2728   21.1114 C.3     1  UNL1        0.0746
      7 C           1.3120    0.7969   19.9743 C.2     1  UNL1        0.1819
      8 O           0.7145    0.6191   18.6100 O.2     1  UNL1       -0.2907
      9 H           5.3484    0.0816   21.0831 H       1  UNL1        0.2917
     10 C           0.1997    1.9264   23.6126 C.ar    1  UNL1       -0.0216
     11 C          -0.7561    3.0641   23.4073 C.ar    1  UNL1       -0.0043
     12 C          -1.6110    3.5399   24.5442 C.ar    1  UNL1       -0.0003
     13 C          -1.5102    2.8781   25.8865 C.ar    1  UNL1       -0.0000
     14 C          -0.5544    1.7404   26.0919 C.ar    1  UNL1       -0.0003
     15 C           0.3006    1.2645   24.9549 C.ar    1  UNL1       -0.0043
     16 S           3.6193    0.0231   19.0647 S.3     1  UNL1       -0.0807
     17 C           5.2451   -1.8275   18.2388 C.ar    1  UNL1        0.0744
     18 C           5.6210   -3.2761   18.1382 C.ar    1  UNL1        0.0108
     19 C           4.7469   -4.3229   18.7630 C.ar    1  UNL1        0.0007
     20 C           3.4969   -3.9210   19.4883 C.ar    1  UNL1        0.0006
     21 C           3.1211   -2.4723   19.5888 C.ar    1  UNL1        0.0072
     22 C           3.9952   -1.4256   18.9641 C.ar    1  UNL1        0.0392
     23 N           6.9933    0.2660   16.9893 N.1     1  UNL1       -0.1908
     24 C           6.1192   -0.7808   17.6140 C.1     1  UNL1        0.1009
@<TRIPOS>BOND
     1    23    24    3
     2    24    17    1
     3    17    18   ar
     4    18    19   ar
     5    19    20   ar
     6    20    21   ar
     7    21    22   ar
     8    22    16    1
     9    16     1    1
    10     1     2    2
    11     2     3    1
    12     2     4    1
    13     4     5    1
    14     5    10    1
    15    10    11   ar
    16    11    12   ar
    17    12    13   ar
    18    13    14   ar
    19    14    15   ar
    20     5     6    1
    21     6     7    1
    22     7     8    2
    23    22    17   ar
    24     7     1    1
    25    15    10   ar
    26     3     9    1
