@<TRIPOS>MOLECULE
*****
 21 22 0 0 0
SMALL
GASTEIGER

@<TRIPOS>ATOM
      1 C          -8.4262  -17.5125   21.9639 C.2     1  UNL1        0.1855
      2 O          -7.3168  -17.7918   20.9937 O.2     1  UNL1       -0.2900
      3 C          -8.1266  -16.8467   23.2743 C.ar    1  UNL1        0.0369
      4 C          -9.2152  -16.6675   24.2906 C.ar    1  UNL1        0.0042
      5 C          -8.9156  -16.0017   25.6009 C.ar    1  UNL1        0.0150
      6 C          -7.5275  -15.5152   25.8949 C.ar    1  UNL1        0.0522
      7 N          -7.2280  -14.8494   27.2053 N.pl3   1  UNL1       -0.3563
      8 C          -6.4390  -15.6944   24.8786 C.ar    1  UNL1        0.0706
      9 CL         -5.0509  -15.2078   25.1726 Cl      1  UNL1       -0.0810
     10 C          -6.7385  -16.3601   23.5683 C.ar    1  UNL1        0.0155
     11 H          -7.9425  -14.7317   27.8723 H       1  UNL1        0.1424
     12 H          -6.3169  -14.5300   27.3983 H       1  UNL1        0.1424
     13 C          -9.8350  -17.8989   21.6237 C.3     1  UNL1        0.0981
     14 C         -11.1553  -18.5690   21.3835 C.3     1  UNL1        0.0233
     15 C         -12.1005  -17.5453   20.8278 C.3     1  UNL1        0.0189
     16 C         -11.3642  -16.2425   20.7246 C.3     1  UNL1        0.0689
     17 N          -9.9641  -16.4611   21.2164 N.3     1  UNL1       -0.2938
     18 H          -9.7803  -15.8566   22.0172 H       1  UNL1        0.1235
     19 C          -9.4114  -19.2560   22.1021 C.3     1  UNL1        0.0219
     20 C          -9.8049  -20.3901   24.4062 C.3     1  UNL1        0.0001
     21 C         -10.2940  -20.0319   23.0342 C.3     1  UNL1        0.0018
@<TRIPOS>BOND
     1    20    21    1
     2    21    19    1
     3    19    13    1
     4    13     1    1
     5     1     2    2
     6     1     3    1
     7     3     4   ar
     8     4     5   ar
     9     5     6   ar
    10     6     7    1
    11     6     8   ar
    12     8     9    1
    13     8    10   ar
    14    13    14    1
    15    14    15    1
    16    15    16    1
    17    16    17    1
    18    17    13    1
    19    10     3   ar
    20     7    11    1
    21     7    12    1
    22    17    18    1
@<TRIPOS>MOLECULE
*****
 21 22 0 0 0
SMALL
GASTEIGER

@<TRIPOS>ATOM
      1 C          -9.5910  -19.2730   20.0632 C.2     1  UNL1        0.1855
      2 O          -9.7849  -20.0395   18.7884 O.2     1  UNL1       -0.2900
      3 C          -8.2253  -19.1678   20.6746 C.ar    1  UNL1        0.0369
      4 C          -7.9894  -18.2377   21.8276 C.ar    1  UNL1        0.0042
      5 C          -6.6237  -18.1324   22.4390 C.ar    1  UNL1        0.0150
      6 C          -5.4940  -18.9573   21.8975 C.ar    1  UNL1        0.0522
      7 N          -4.1283  -18.8520   22.5090 N.pl3   1  UNL1       -0.3563
      8 C          -5.7298  -19.8874   20.7446 C.ar    1  UNL1        0.0706
      9 CL         -4.6001  -20.7122   20.2031 Cl      1  UNL1       -0.0810
     10 C          -7.0955  -19.9926   20.1331 C.ar    1  UNL1        0.0155
     11 H          -3.9734  -18.2416   23.2657 H       1  UNL1        0.1424
     12 H          -3.3867  -19.3934   22.1536 H       1  UNL1        0.1424
     13 C         -10.7627  -18.6119   20.7264 C.3     1  UNL1        0.0981
     14 C         -11.9461  -18.2149   21.5582 C.3     1  UNL1        0.0233
     15 C         -12.3764  -16.8439   21.1275 C.3     1  UNL1        0.0189
     16 C         -11.4589  -16.3937   20.0297 C.3     1  UNL1        0.0689
     17 N         -10.4615  -17.4863   19.7817 N.3     1  UNL1       -0.2938
     18 H          -9.5176  -17.1377   19.9484 H       1  UNL1        0.1235
     19 C         -10.8188  -19.8757   21.5324 C.3     1  UNL1        0.0219
     20 C          -9.9954  -20.3590   23.9487 C.3     1  UNL1        0.0001
     21 C         -11.0337  -19.8104   23.0155 C.3     1  UNL1        0.0018
@<TRIPOS>BOND
     1    20    21    1
     2    21    19    1
     3    19    13    1
     4    13     1    1
     5     1     2    2
     6     1     3    1
     7     3     4   ar
     8     4     5   ar
     9     5     6   ar
    10     6     7    1
    11     6     8   ar
    12     8     9    1
    13     8    10   ar
    14    13    14    1
    15    14    15    1
    16    15    16    1
    17    16    17    1
    18    17    13    1
    19    10     3   ar
    20     7    11    1
    21     7    12    1
    22    17    18    1
@<TRIPOS>MOLECULE
*****
 21 22 0 0 0
SMALL
GASTEIGER

@<TRIPOS>ATOM
      1 C          -9.7277  -17.5669   22.6352 C.2     1  UNL1        0.1855
      2 O          -9.2455  -18.4729   21.5413 O.2     1  UNL1       -0.2900
      3 C          -8.7387  -16.8575   23.5120 C.ar    1  UNL1        0.0369
      4 C          -7.3560  -16.5727   23.0050 C.ar    1  UNL1        0.0042
      5 C          -6.3671  -15.8633   23.8818 C.ar    1  UNL1        0.0150
      6 C          -6.7608  -15.4387   25.2655 C.ar    1  UNL1        0.0522
      7 N          -5.7718  -14.7293   26.1423 N.pl3   1  UNL1       -0.3563
      8 C          -8.1435  -15.7235   25.7725 C.ar    1  UNL1        0.0706
      9 CL         -8.5373  -15.2989   27.1562 Cl      1  UNL1       -0.0810
     10 C          -9.1324  -16.4329   24.8957 C.ar    1  UNL1        0.0155
     11 H          -4.8643  -14.5424   25.8095 H       1  UNL1        0.1424
     12 H          -6.0302  -14.4506   27.0505 H       1  UNL1        0.1424
     13 C         -11.1988  -17.3703   22.8524 C.3     1  UNL1        0.0981
     14 C         -12.6381  -16.9481   22.8542 C.3     1  UNL1        0.0233
     15 C         -13.3722  -17.8077   23.8403 C.3     1  UNL1        0.0189
     16 C         -12.3864  -18.7612   24.4479 C.3     1  UNL1        0.0689
     17 N         -11.0432  -18.4909   23.8373 N.3     1  UNL1       -0.2938
     18 H         -10.7053  -19.3267   23.3602 H       1  UNL1        0.1235
     19 C         -11.0468  -16.2909   21.8220 C.3     1  UNL1        0.0219
     20 C         -11.5019  -15.6872   19.3363 C.3     1  UNL1        0.0001
     21 C         -11.9782  -16.2388   20.6475 C.3     1  UNL1        0.0018
@<TRIPOS>BOND
     1    20    21    1
     2    21    19    1
     3    19    13    1
     4    13     1    1
     5     1     2    2
     6     1     3    1
     7     3     4   ar
     8     4     5   ar
     9     5     6   ar
    10     6     7    1
    11     6     8   ar
    12     8     9    1
    13     8    10   ar
    14    13    14    1
    15    14    15    1
    16    15    16    1
    17    16    17    1
    18    17    13    1
    19    10     3   ar
    20     7    11    1
    21     7    12    1
    22    17    18    1
@<TRIPOS>MOLECULE
*****
 21 22 0 0 0
SMALL
GASTEIGER

@<TRIPOS>ATOM
      1 C          -7.8244  -18.7156   21.1881 C.2     1  UNL1        0.1855
      2 O          -8.6180  -18.9345   19.9342 O.2     1  UNL1       -0.2900
      3 C          -6.3701  -19.0809   21.2286 C.ar    1  UNL1        0.0369
      4 C          -5.8204  -20.0805   20.2547 C.ar    1  UNL1        0.0042
      5 C          -4.3661  -20.4457   20.2953 C.ar    1  UNL1        0.0150
      6 C          -3.4615  -19.8112   21.3097 C.ar    1  UNL1        0.0522
      7 N          -2.0072  -20.1764   21.3502 N.pl3   1  UNL1       -0.3563
      8 C          -4.0111  -18.8115   22.2835 C.ar    1  UNL1        0.0706
      9 CL         -3.1065  -18.1769   23.2979 Cl      1  UNL1       -0.0810
     10 C          -5.4654  -18.4463   22.2430 C.ar    1  UNL1        0.0155
     11 H          -1.6464  -20.8325   20.7110 H       1  UNL1        0.1424
     12 H          -1.4134  -19.7599   22.0159 H       1  UNL1        0.1424
     13 C          -8.4851  -18.1316   22.4015 C.3     1  UNL1        0.0981
     14 C          -9.2074  -17.8469   23.6849 C.3     1  UNL1        0.0233
     15 C          -9.2211  -16.3609   23.8894 C.3     1  UNL1        0.0189
     16 C          -8.5073  -15.7273   22.7323 C.3     1  UNL1        0.0689
     17 N          -8.0524  -16.8216   21.8127 N.3     1  UNL1       -0.2938
     18 H          -7.0364  -16.8002   21.7251 H       1  UNL1        0.1235
     19 C          -8.7797  -19.5637   22.7366 C.3     1  UNL1        0.0219
     20 C         -11.1397  -20.2234   21.8732 C.3     1  UNL1        0.0001
     21 C         -10.1898  -19.9949   23.0115 C.3     1  UNL1        0.0018
@<TRIPOS>BOND
     1    20    21    1
     2    21    19    1
     3    19    13    1
     4    13     1    1
     5     1     2    2
     6     1     3    1
     7     3     4   ar
     8     4     5   ar
     9     5     6   ar
    10     6     7    1
    11     6     8   ar
    12     8     9    1
    13     8    10   ar
    14    13    14    1
    15    14    15    1
    16    15    16    1
    17    16    17    1
    18    17    13    1
    19    10     3   ar
    20     7    11    1
    21     7    12    1
    22    17    18    1
@<TRIPOS>MOLECULE
*****
 21 22 0 0 0
SMALL
GASTEIGER

@<TRIPOS>ATOM
      1 C          -9.8557  -16.5162   21.8855 C.2     1  UNL1        0.1855
      2 O         -10.2088  -15.4706   20.8696 O.2     1  UNL1       -0.2900
      3 C          -8.9571  -16.1710   23.0359 C.ar    1  UNL1        0.0369
      4 C          -9.5425  -15.9017   24.3904 C.ar    1  UNL1        0.0042
      5 C          -8.6439  -15.5565   25.5407 C.ar    1  UNL1        0.0150
      6 C          -7.1599  -15.4805   25.3365 C.ar    1  UNL1        0.0522
      7 N          -6.2612  -15.1352   26.4869 N.pl3   1  UNL1       -0.3563
      8 C          -6.5744  -15.7497   23.9821 C.ar    1  UNL1        0.0706
      9 CL         -5.0903  -15.6737   23.7779 Cl      1  UNL1       -0.0810
     10 C          -7.4730  -16.0949   22.8317 C.ar    1  UNL1        0.0155
     11 H          -6.6455  -14.9585   27.3760 H       1  UNL1        0.1424
     12 H          -5.2872  -15.0853   26.3530 H       1  UNL1        0.1424
     13 C         -10.4011  -17.9070   21.7510 C.3     1  UNL1        0.0981
     14 C         -11.1314  -19.2131   21.8552 C.3     1  UNL1        0.0233
     15 C         -10.5843  -20.1351   20.8060 C.3     1  UNL1        0.0189
     16 C          -9.5160  -19.3987   20.0533 C.3     1  UNL1        0.0689
     17 N          -9.4027  -18.0218   20.6374 N.3     1  UNL1       -0.2938
     18 H          -9.6022  -17.3242   19.9205 H       1  UNL1        0.1235
     19 C         -11.2854  -17.5016   22.8927 C.3     1  UNL1        0.0219
     20 C         -13.6273  -17.8786   23.9526 C.3     1  UNL1        0.0001
     21 C         -12.7765  -17.5848   22.7527 C.3     1  UNL1        0.0018
@<TRIPOS>BOND
     1    20    21    1
     2    21    19    1
     3    19    13    1
     4    13     1    1
     5     1     2    2
     6     1     3    1
     7     3     4   ar
     8     4     5   ar
     9     5     6   ar
    10     6     7    1
    11     6     8   ar
    12     8     9    1
    13     8    10   ar
    14    13    14    1
    15    14    15    1
    16    15    16    1
    17    16    17    1
    18    17    13    1
    19    10     3   ar
    20     7    11    1
    21     7    12    1
    22    17    18    1
@<TRIPOS>MOLECULE
*****
 21 22 0 0 0
SMALL
GASTEIGER

@<TRIPOS>ATOM
      1 C          -8.3075  -18.6627   21.5572 C.2     1  UNL1        0.1855
      2 O          -9.0856  -18.4219   20.2976 O.2     1  UNL1       -0.2900
      3 C          -6.8533  -19.0231   21.4831 C.ar    1  UNL1        0.0369
      4 C          -6.3769  -20.0121   20.4609 C.ar    1  UNL1        0.0042
      5 C          -4.9227  -20.3725   20.3868 C.ar    1  UNL1        0.0150
      6 C          -3.9450  -19.7440   21.3350 C.ar    1  UNL1        0.0522
      7 N          -2.4908  -20.1044   21.2609 N.pl3   1  UNL1       -0.3563
      8 C          -4.4214  -18.7550   22.3572 C.ar    1  UNL1        0.0706
      9 CL         -3.4437  -18.1265   23.3053 Cl      1  UNL1       -0.0810
     10 C          -5.8756  -18.3946   22.4312 C.ar    1  UNL1        0.0155
     11 H          -2.1781  -20.7536   20.5899 H       1  UNL1        0.1424
     12 H          -1.8491  -19.6919   21.8832 H       1  UNL1        0.1424
     13 C          -8.9835  -18.5429   22.8908 C.3     1  UNL1        0.0981
     14 C          -9.6490  -18.1155   24.1653 C.3     1  UNL1        0.0233
     15 C          -9.9691  -19.3485   24.9573 C.3     1  UNL1        0.0189
     16 C          -9.5014  -20.5380   24.1723 C.3     1  UNL1        0.0689
     17 N          -8.8922  -20.0401   22.8952 N.3     1  UNL1       -0.2938
     18 H          -9.4017  -20.4203   22.0974 H       1  UNL1        0.1235
     19 C          -8.9334  -17.0708   22.6077 C.3     1  UNL1        0.0219
     20 C          -7.4273  -15.2074   23.6126 C.3     1  UNL1        0.0001
     21 C          -8.6253  -16.1046   23.7129 C.3     1  UNL1        0.0018
@<TRIPOS>BOND
     1    20    21    1
     2    21    19    1
     3    19    13    1
     4    13     1    1
     5     1     2    2
     6     1     3    1
     7     3     4   ar
     8     4     5   ar
     9     5     6   ar
    10     6     7    1
    11     6     8   ar
    12     8     9    1
    13     8    10   ar
    14    13    14    1
    15    14    15    1
    16    15    16    1
    17    16    17    1
    18    17    13    1
    19    10     3   ar
    20     7    11    1
    21     7    12    1
    22    17    18    1
@<TRIPOS>MOLECULE
*****
 21 22 0 0 0
SMALL
GASTEIGER

@<TRIPOS>ATOM
      1 C          -7.9642  -17.8605   21.6512 C.2     1  UNL1        0.1855
      2 O          -8.1444  -16.3723   21.5996 O.2     1  UNL1       -0.2900
      3 C          -6.5860  -18.4510   21.6076 C.ar    1  UNL1        0.0369
      4 C          -6.2686  -19.5433   20.6299 C.ar    1  UNL1        0.0042
      5 C          -4.8904  -20.1338   20.5863 C.ar    1  UNL1        0.0150
      6 C          -3.8296  -19.6320   21.5206 C.ar    1  UNL1        0.0522
      7 N          -2.4514  -20.2225   21.4770 N.pl3   1  UNL1       -0.3563
      8 C          -4.1470  -18.5397   22.4984 C.ar    1  UNL1        0.0706
      9 CL         -3.0862  -18.0378   23.4326 Cl      1  UNL1       -0.0810
     10 C          -5.5251  -17.9492   22.5419 C.ar    1  UNL1        0.0155
     11 H          -2.2431  -20.9394   20.8353 H       1  UNL1        0.1424
     12 H          -1.7551  -19.8931   22.0902 H       1  UNL1        0.1424
     13 C          -9.1621  -18.7582   21.7464 C.3     1  UNL1        0.0981
     14 C         -10.2819  -19.6733   22.1448 C.3     1  UNL1        0.0233
     15 C         -11.0974  -19.9680   20.9208 C.3     1  UNL1        0.0189
     16 C         -10.4817  -19.2350   19.7660 C.3     1  UNL1        0.0689
     17 N          -9.2856  -18.4873   20.2763 N.3     1  UNL1       -0.2938
     18 H          -9.4090  -17.4873   20.1177 H       1  UNL1        0.1235
     19 C          -8.7882  -18.8414   23.1966 C.3     1  UNL1        0.0219
     20 C          -9.1283  -16.9751   24.9719 C.3     1  UNL1        0.0001
     21 C          -9.6442  -18.1733   24.2314 C.3     1  UNL1        0.0018
@<TRIPOS>BOND
     1    20    21    1
     2    21    19    1
     3    19    13    1
     4    13     1    1
     5     1     2    2
     6     1     3    1
     7     3     4   ar
     8     4     5   ar
     9     5     6   ar
    10     6     7    1
    11     6     8   ar
    12     8     9    1
    13     8    10   ar
    14    13    14    1
    15    14    15    1
    16    15    16    1
    17    16    17    1
    18    17    13    1
    19    10     3   ar
    20     7    11    1
    21     7    12    1
    22    17    18    1
@<TRIPOS>MOLECULE
*****
 21 22 0 0 0
SMALL
GASTEIGER

@<TRIPOS>ATOM
      1 C          -8.3190  -17.4401   22.1809 C.2     1  UNL1        0.1855
      2 O          -9.2246  -16.7998   21.1710 O.2     1  UNL1       -0.2900
      3 C          -8.0291  -16.7429   23.4770 C.ar    1  UNL1        0.0369
      4 C          -9.1465  -16.4341   24.4288 C.ar    1  UNL1        0.0042
      5 C          -8.8566  -15.7369   25.7249 C.ar    1  UNL1        0.0150
      6 C          -7.4492  -15.3484   26.0691 C.ar    1  UNL1        0.0522
      7 N          -7.1593  -14.6511   27.3652 N.pl3   1  UNL1       -0.3563
      8 C          -6.3318  -15.6571   25.1172 C.ar    1  UNL1        0.0706
      9 CL         -4.9245  -15.2686   25.4614 Cl      1  UNL1       -0.0810
     10 C          -6.6217  -16.3544   23.8212 C.ar    1  UNL1        0.0155
     11 H          -7.8927  -14.4485   27.9899 H       1  UNL1        0.1424
     12 H          -6.2357  -14.3961   27.5911 H       1  UNL1        0.1424
     13 C          -7.7033  -18.7776   21.8947 C.3     1  UNL1        0.0981
     14 C          -7.2663  -20.2118   21.8473 C.3     1  UNL1        0.0233
     15 C          -6.2699  -20.3563   20.7354 C.3     1  UNL1        0.0189
     16 C          -6.0911  -19.0115   20.0956 C.3     1  UNL1        0.0689
     17 N          -6.9770  -18.0358   20.8120 N.3     1  UNL1       -0.2938
     18 H          -7.6482  -17.6329   20.1582 H       1  UNL1        0.1235
     19 C          -8.5583  -19.2398   23.0372 C.3     1  UNL1        0.0219
     20 C         -11.0766  -19.5230   23.6100 C.3     1  UNL1        0.0001
     21 C          -9.8878  -19.8800   22.7678 C.3     1  UNL1        0.0018
@<TRIPOS>BOND
     1    20    21    1
     2    21    19    1
     3    19    13    1
     4    13     1    1
     5     1     2    2
     6     1     3    1
     7     3     4   ar
     8     4     5   ar
     9     5     6   ar
    10     6     7    1
    11     6     8   ar
    12     8     9    1
    13     8    10   ar
    14    13    14    1
    15    14    15    1
    16    15    16    1
    17    16    17    1
    18    17    13    1
    19    10     3   ar
    20     7    11    1
    21     7    12    1
    22    17    18    1
@<TRIPOS>MOLECULE
*****
 21 22 0 0 0
SMALL
GASTEIGER

@<TRIPOS>ATOM
      1 C          -6.9143  -18.7356   21.4190 C.2     1  UNL1        0.1855
      2 O          -7.0194  -18.6970   19.9232 O.2     1  UNL1       -0.2900
      3 C          -8.1575  -18.7759   22.2574 C.ar    1  UNL1        0.0369
      4 C          -8.4445  -19.9718   23.1161 C.ar    1  UNL1        0.0042
      5 C          -9.6877  -20.0121   23.9545 C.ar    1  UNL1        0.0150
      6 C         -10.6438  -18.8564   23.9342 C.ar    1  UNL1        0.0522
      7 N         -11.8870  -18.8968   24.7726 N.pl3   1  UNL1       -0.3563
      8 C         -10.3568  -17.6605   23.0755 C.ar    1  UNL1        0.0706
      9 CL        -11.3129  -16.5049   23.0551 Cl      1  UNL1       -0.0810
     10 C          -9.1136  -17.6203   22.2371 C.ar    1  UNL1        0.0155
     11 H         -12.0754  -19.6817   25.3362 H       1  UNL1        0.1424
     12 H         -12.5146  -18.1383   24.7592 H       1  UNL1        0.1424
     13 C          -5.5661  -18.7338   22.0764 C.3     1  UNL1        0.0981
     14 C          -4.1767  -18.9996   22.5755 C.3     1  UNL1        0.0233
     15 C          -3.7964  -17.8844   23.5039 C.3     1  UNL1        0.0189
     16 C          -4.9507  -16.9295   23.5785 C.3     1  UNL1        0.0689
     17 N          -6.0444  -17.4544   22.6963 N.3     1  UNL1       -0.2938
     18 H          -6.2568  -16.7743   21.9663 H       1  UNL1        0.1235
     19 C          -5.3696  -20.0136   21.3191 C.3     1  UNL1        0.0219
     20 C          -3.6570  -19.4625   19.4446 C.3     1  UNL1        0.0001
     21 C          -4.0647  -20.2850   20.6309 C.3     1  UNL1        0.0018
@<TRIPOS>BOND
     1    20    21    1
     2    21    19    1
     3    19    13    1
     4    13     1    1
     5     1     2    2
     6     1     3    1
     7     3     4   ar
     8     4     5   ar
     9     5     6   ar
    10     6     7    1
    11     6     8   ar
    12     8     9    1
    13     8    10   ar
    14    13    14    1
    15    14    15    1
    16    15    16    1
    17    16    17    1
    18    17    13    1
    19    10     3   ar
    20     7    11    1
    21     7    12    1
    22    17    18    1
