@<TRIPOS>MOLECULE
*****
 20 22 0 0 0
SMALL
GASTEIGER

@<TRIPOS>ATOM
      1 C          -6.8225  -19.6062   21.6630 C.ar    1  UNL1        0.0001
      2 C          -6.3058  -20.4375   20.5265 C.ar    1  UNL1        0.0000
      3 C          -4.8641  -20.3433   20.1232 C.ar    1  UNL1        0.0001
      4 C          -3.9392  -19.4177   20.8566 C.ar    1  UNL1        0.0030
      5 C          -2.4974  -19.3235   20.4533 C.ar    1  UNL1        0.0366
      6 C          -1.5725  -18.3979   21.1867 C.ar    1  UNL1        0.1337
      7 O          -0.1308  -18.3037   20.7834 O.3     1  UNL1       -0.5055
      8 C          -2.0893  -17.5666   22.3233 C.ar    1  UNL1        0.0366
      9 C          -3.5310  -17.6608   22.7265 C.ar    1  UNL1        0.0031
     10 C          -4.4559  -18.5864   21.9931 C.ar    1  UNL1        0.0002
     11 C          -5.8976  -18.6806   22.3964 C.ar    1  UNL1        0.0000
     12 H           0.1920  -18.8230   20.0734 H       1  UNL1        0.2922
     13 O         -10.4303  -20.4420   25.3080 O.3     1  UNL1       -0.5055
     14 C         -10.0681  -20.1183   23.8888 C.ar    1  UNL1        0.1337
     15 C         -11.1477  -19.8889   22.8729 C.ar    1  UNL1        0.0366
     16 C         -10.7855  -19.5652   21.4537 C.ar    1  UNL1        0.0031
     17 C          -9.3438  -19.4710   21.0504 C.ar    1  UNL1        0.0002
     18 C          -8.2643  -19.7004   22.0663 C.ar    1  UNL1        0.0030
     19 C          -8.6265  -20.0241   23.4855 C.ar    1  UNL1        0.0366
     20 H         -11.3309  -20.5008   25.5599 H       1  UNL1        0.2922
@<TRIPOS>BOND
     1    13    14    1
     2    14    15   ar
     3    15    16   ar
     4    16    17   ar
     5    17    18   ar
     6    18     1    1
     7     1     2   ar
     8     2     3   ar
     9     3     4   ar
    10     4     5   ar
    11     5     6   ar
    12     6     7    1
    13     6     8   ar
    14     8     9   ar
    15     9    10   ar
    16    10    11   ar
    17    18    19   ar
    18    19    14   ar
    19    11     1   ar
    20    10     4   ar
    21    13    20    1
    22     7    12    1
@<TRIPOS>MOLECULE
*****
 20 22 0 0 0
SMALL
GASTEIGER

@<TRIPOS>ATOM
      1 C          -8.4979  -18.7064   21.4790 C.ar    1  UNL1        0.0001
      2 C          -8.2408  -19.6021   20.3035 C.ar    1  UNL1        0.0000
      3 C          -6.8449  -20.0600   20.0007 C.ar    1  UNL1        0.0001
      4 C          -5.7061  -19.6223   20.8734 C.ar    1  UNL1        0.0030
      5 C          -4.3102  -20.0803   20.5705 C.ar    1  UNL1        0.0366
      6 C          -3.1713  -19.6426   21.4431 C.ar    1  UNL1        0.1337
      7 O          -1.7754  -20.1005   21.1403 O.3     1  UNL1       -0.5055
      8 C          -3.4285  -18.7469   22.6186 C.ar    1  UNL1        0.0366
      9 C          -4.8244  -18.2889   22.9214 C.ar    1  UNL1        0.0031
     10 C          -5.9632  -18.7267   22.0488 C.ar    1  UNL1        0.0002
     11 C          -7.3591  -18.2687   22.3516 C.ar    1  UNL1        0.0000
     12 H          -1.6148  -20.6600   20.4060 H       1  UNL1        0.2922
     13 O         -12.8024  -16.1579   20.0730 O.3     1  UNL1       -0.5055
     14 C         -12.0460  -16.9742   21.0788 C.ar    1  UNL1        0.1337
     15 C         -12.6857  -17.3325   22.3875 C.ar    1  UNL1        0.0366
     16 C         -11.9294  -18.1488   23.3933 C.ar    1  UNL1        0.0031
     17 C         -10.5334  -18.6067   23.0904 C.ar    1  UNL1        0.0002
     18 C          -9.8939  -18.2484   21.7818 C.ar    1  UNL1        0.0030
     19 C         -10.6502  -17.4322   20.7760 C.ar    1  UNL1        0.0366
     20 H         -13.6743  -15.8718   20.2621 H       1  UNL1        0.2922
@<TRIPOS>BOND
     1    13    14    1
     2    14    15   ar
     3    15    16   ar
     4    16    17   ar
     5    17    18   ar
     6    18     1    1
     7     1     2   ar
     8     2     3   ar
     9     3     4   ar
    10     4     5   ar
    11     5     6   ar
    12     6     7    1
    13     6     8   ar
    14     8     9   ar
    15     9    10   ar
    16    10    11   ar
    17    18    19   ar
    18    19    14   ar
    19    11     1   ar
    20    10     4   ar
    21    13    20    1
    22     7    12    1
@<TRIPOS>MOLECULE
*****
 20 22 0 0 0
SMALL
GASTEIGER

@<TRIPOS>ATOM
      1 C          -6.2539  -19.2573   21.0208 C.ar    1  UNL1        0.0001
      2 C          -5.6188  -19.4956   22.3586 C.ar    1  UNL1        0.0000
      3 C          -4.1378  -19.3273   22.5265 C.ar    1  UNL1        0.0001
      4 C          -3.2918  -18.9205   21.3564 C.ar    1  UNL1        0.0030
      5 C          -1.8108  -18.7522   21.5243 C.ar    1  UNL1        0.0366
      6 C          -0.9648  -18.3455   20.3543 C.ar    1  UNL1        0.1337
      7 O           0.5162  -18.1771   20.5221 O.3     1  UNL1       -0.5055
      8 C          -1.5999  -18.1071   19.0164 C.ar    1  UNL1        0.0366
      9 C          -3.0809  -18.2755   18.8486 C.ar    1  UNL1        0.0031
     10 C          -3.9269  -18.6822   20.0186 C.ar    1  UNL1        0.0002
     11 C          -5.4079  -18.8506   19.8508 C.ar    1  UNL1        0.0000
     12 H           0.9129  -18.3260   21.3578 H       1  UNL1        0.2922
     13 O         -11.0048  -19.6224   23.0932 O.3     1  UNL1       -0.5055
     14 C         -10.1104  -19.6082   21.8892 C.ar    1  UNL1        0.1337
     15 C         -10.6971  -19.7624   20.5172 C.ar    1  UNL1        0.0366
     16 C          -9.8026  -19.7482   19.3132 C.ar    1  UNL1        0.0031
     17 C          -8.3215  -19.5798   19.4810 C.ar    1  UNL1        0.0002
     18 C          -7.7350  -19.4257   20.8529 C.ar    1  UNL1        0.0030
     19 C          -8.6294  -19.4399   22.0570 C.ar    1  UNL1        0.0366
     20 H         -11.9300  -19.7276   22.9884 H       1  UNL1        0.2922
@<TRIPOS>BOND
     1    13    14    1
     2    14    15   ar
     3    15    16   ar
     4    16    17   ar
     5    17    18   ar
     6    18     1    1
     7     1     2   ar
     8     2     3   ar
     9     3     4   ar
    10     4     5   ar
    11     5     6   ar
    12     6     7    1
    13     6     8   ar
    14     8     9   ar
    15     9    10   ar
    16    10    11   ar
    17    18    19   ar
    18    19    14   ar
    19    11     1   ar
    20    10     4   ar
    21    13    20    1
    22     7    12    1
@<TRIPOS>MOLECULE
*****
 20 22 0 0 0
SMALL
GASTEIGER

@<TRIPOS>ATOM
      1 C          -6.6295  -19.0063   20.6921 C.ar    1  UNL1        0.0001
      2 C          -7.3602  -19.6781   19.5675 C.ar    1  UNL1        0.0000
      3 C          -8.8535  -19.5726   19.4745 C.ar    1  UNL1        0.0001
      4 C          -9.6162  -18.7953   20.5060 C.ar    1  UNL1        0.0030
      5 C         -11.1097  -18.6898   20.4130 C.ar    1  UNL1        0.0366
      6 C         -11.8723  -17.9125   21.4445 C.ar    1  UNL1        0.1337
      7 O         -13.3657  -17.8070   21.3515 O.3     1  UNL1       -0.5055
      8 C         -11.1416  -17.2407   22.5691 C.ar    1  UNL1        0.0366
      9 C          -9.6482  -17.3462   22.6622 C.ar    1  UNL1        0.0031
     10 C          -8.8855  -18.1235   21.6306 C.ar    1  UNL1        0.0002
     11 C          -7.3922  -18.2290   21.7237 C.ar    1  UNL1        0.0000
     12 H         -13.8222  -18.2267   20.6490 H       1  UNL1        0.2922
     13 O          -1.9403  -18.5408   18.5025 O.3     1  UNL1       -0.5055
     14 C          -2.7915  -18.8790   19.6904 C.ar    1  UNL1        0.1337
     15 C          -2.1492  -19.3227   20.9713 C.ar    1  UNL1        0.0366
     16 C          -3.0005  -19.6609   22.1592 C.ar    1  UNL1        0.0031
     17 C          -4.4939  -19.5554   22.0661 C.ar    1  UNL1        0.0002
     18 C          -5.1361  -19.1118   20.7852 C.ar    1  UNL1        0.0030
     19 C          -4.2848  -18.7735   19.5973 C.ar    1  UNL1        0.0366
     20 H          -1.0074  -18.6066   18.5606 H       1  UNL1        0.2922
@<TRIPOS>BOND
     1    13    14    1
     2    14    15   ar
     3    15    16   ar
     4    16    17   ar
     5    17    18   ar
     6    18     1    1
     7     1     2   ar
     8     2     3   ar
     9     3     4   ar
    10     4     5   ar
    11     5     6   ar
    12     6     7    1
    13     6     8   ar
    14     8     9   ar
    15     9    10   ar
    16    10    11   ar
    17    18    19   ar
    18    19    14   ar
    19    11     1   ar
    20    10     4   ar
    21    13    20    1
    22     7    12    1
@<TRIPOS>MOLECULE
*****
 20 22 0 0 0
SMALL
GASTEIGER

@<TRIPOS>ATOM
      1 C          -7.3680  -19.2970   21.3706 C.ar    1  UNL1        0.0001
      2 C          -8.2680  -19.2555   20.1714 C.ar    1  UNL1        0.0000
      3 C          -9.7391  -19.0203   20.3455 C.ar    1  UNL1        0.0001
      4 C         -10.3102  -18.8265   21.7190 C.ar    1  UNL1        0.0030
      5 C         -11.7815  -18.5912   21.8931 C.ar    1  UNL1        0.0366
      6 C         -12.3526  -18.3975   23.2666 C.ar    1  UNL1        0.1337
      7 O         -13.8237  -18.1622   23.4407 O.3     1  UNL1       -0.5055
      8 C         -11.4525  -18.4390   24.4658 C.ar    1  UNL1        0.0366
      9 C          -9.9813  -18.6742   24.2916 C.ar    1  UNL1        0.0031
     10 C          -9.4102  -18.8680   22.9182 C.ar    1  UNL1        0.0002
     11 C          -7.9391  -19.1033   22.7440 C.ar    1  UNL1        0.0000
     12 H         -14.3859  -18.1363   22.6916 H       1  UNL1        0.2922
     13 O          -2.4572  -18.2942   22.7412 O.3     1  UNL1       -0.5055
     14 C          -3.4414  -19.0309   21.8818 C.ar    1  UNL1        0.1337
     15 C          -2.9544  -20.0028   20.8482 C.ar    1  UNL1        0.0366
     16 C          -3.9386  -20.7394   19.9887 C.ar    1  UNL1        0.0031
     17 C          -5.4098  -20.5042   20.1629 C.ar    1  UNL1        0.0002
     18 C          -5.8968  -19.5323   21.1964 C.ar    1  UNL1        0.0030
     19 C          -4.9126  -18.7956   22.0559 C.ar    1  UNL1        0.0366
     20 H          -1.5382  -18.4412   22.6325 H       1  UNL1        0.2922
@<TRIPOS>BOND
     1    13    14    1
     2    14    15   ar
     3    15    16   ar
     4    16    17   ar
     5    17    18   ar
     6    18     1    1
     7     1     2   ar
     8     2     3   ar
     9     3     4   ar
    10     4     5   ar
    11     5     6   ar
    12     6     7    1
    13     6     8   ar
    14     8     9   ar
    15     9    10   ar
    16    10    11   ar
    17    18    19   ar
    18    19    14   ar
    19    11     1   ar
    20    10     4   ar
    21    13    20    1
    22     7    12    1
@<TRIPOS>MOLECULE
*****
 20 22 0 0 0
SMALL
GASTEIGER

@<TRIPOS>ATOM
      1 C          -8.3893  -18.3229   22.0704 C.ar    1  UNL1        0.0001
      2 C          -7.5398  -17.5053   22.9977 C.ar    1  UNL1        0.0000
      3 C          -6.0536  -17.7058   23.0260 C.ar    1  UNL1        0.0001
      4 C          -5.4168  -18.7237   22.1270 C.ar    1  UNL1        0.0030
      5 C          -3.9305  -18.9241   22.1554 C.ar    1  UNL1        0.0366
      6 C          -3.2937  -19.9421   21.2564 C.ar    1  UNL1        0.1337
      7 O          -1.8074  -20.1426   21.2847 O.3     1  UNL1       -0.5055
      8 C          -4.1432  -20.7597   20.3290 C.ar    1  UNL1        0.0366
      9 C          -5.6295  -20.5593   20.3007 C.ar    1  UNL1        0.0031
     10 C          -6.2663  -19.5413   21.1997 C.ar    1  UNL1        0.0002
     11 C          -7.7525  -19.3409   21.1714 C.ar    1  UNL1        0.0000
     12 H          -1.2768  -19.6319   21.8640 H       1  UNL1        0.2922
     13 O         -12.9888  -18.4112   24.4863 O.3     1  UNL1       -0.5055
     14 C         -12.1753  -18.1666   23.2500 C.ar    1  UNL1        0.1337
     15 C         -12.8482  -17.7217   21.9853 C.ar    1  UNL1        0.0366
     16 C         -12.0348  -17.4772   20.7490 C.ar    1  UNL1        0.0031
     17 C         -10.5484  -17.6776   20.7774 C.ar    1  UNL1        0.0002
     18 C          -9.8756  -18.1225   22.0420 C.ar    1  UNL1        0.0030
     19 C         -10.6891  -18.3670   23.2783 C.ar    1  UNL1        0.0366
     20 H         -13.9172  -18.2860   24.4686 H       1  UNL1        0.2922
@<TRIPOS>BOND
     1    13    14    1
     2    14    15   ar
     3    15    16   ar
     4    16    17   ar
     5    17    18   ar
     6    18     1    1
     7     1     2   ar
     8     2     3   ar
     9     3     4   ar
    10     4     5   ar
    11     5     6   ar
    12     6     7    1
    13     6     8   ar
    14     8     9   ar
    15     9    10   ar
    16    10    11   ar
    17    18    19   ar
    18    19    14   ar
    19    11     1   ar
    20    10     4   ar
    21    13    20    1
    22     7    12    1
@<TRIPOS>MOLECULE
*****
 20 22 0 0 0
SMALL
GASTEIGER

@<TRIPOS>ATOM
      1 C          -7.7677  -17.8270   22.7417 C.ar    1  UNL1        0.0001
      2 C          -7.0698  -16.7328   23.4936 C.ar    1  UNL1        0.0000
      3 C          -5.5710  -16.6779   23.5186 C.ar    1  UNL1        0.0001
      4 C          -4.7702  -17.7173   22.7916 C.ar    1  UNL1        0.0030
      5 C          -3.2714  -17.6624   22.8166 C.ar    1  UNL1        0.0366
      6 C          -2.4706  -18.7017   22.0896 C.ar    1  UNL1        0.1337
      7 O          -0.9719  -18.6469   22.1145 O.3     1  UNL1       -0.5055
      8 C          -3.1687  -19.7960   21.3376 C.ar    1  UNL1        0.0366
      9 C          -4.6675  -19.8508   21.3126 C.ar    1  UNL1        0.0031
     10 C          -5.4682  -18.8115   22.0396 C.ar    1  UNL1        0.0002
     11 C          -6.9670  -18.8663   22.0147 C.ar    1  UNL1        0.0000
     12 H          -0.5358  -17.9634   22.5843 H       1  UNL1        0.2922
     13 O         -12.2607  -16.9922   20.2684 O.3     1  UNL1       -0.5055
     14 C         -11.5130  -17.4645   21.4800 C.ar    1  UNL1        0.1337
     15 C         -12.2642  -17.9917   22.6666 C.ar    1  UNL1        0.0366
     16 C         -11.5165  -18.4639   23.8782 C.ar    1  UNL1        0.0031
     17 C         -10.0177  -18.4090   23.9032 C.ar    1  UNL1        0.0002
     18 C          -9.2666  -17.8819   22.7167 C.ar    1  UNL1        0.0030
     19 C         -10.0143  -17.4096   21.5051 C.ar    1  UNL1        0.0366
     20 H         -13.1969  -17.0265   20.2528 H       1  UNL1        0.2922
@<TRIPOS>BOND
     1    13    14    1
     2    14    15   ar
     3    15    16   ar
     4    16    17   ar
     5    17    18   ar
     6    18     1    1
     7     1     2   ar
     8     2     3   ar
     9     3     4   ar
    10     4     5   ar
    11     5     6   ar
    12     6     7    1
    13     6     8   ar
    14     8     9   ar
    15     9    10   ar
    16    10    11   ar
    17    18    19   ar
    18    19    14   ar
    19    11     1   ar
    20    10     4   ar
    21    13    20    1
    22     7    12    1
@<TRIPOS>MOLECULE
*****
 20 22 0 0 0
SMALL
GASTEIGER

@<TRIPOS>ATOM
      1 C          -8.0756  -18.5940   22.0939 C.ar    1  UNL1        0.0001
      2 C          -7.6264  -19.7096   21.1974 C.ar    1  UNL1        0.0000
      3 C          -6.1624  -19.9693   20.9994 C.ar    1  UNL1        0.0001
      4 C          -5.1477  -19.1136   21.6979 C.ar    1  UNL1        0.0030
      5 C          -3.6836  -19.3734   21.4998 C.ar    1  UNL1        0.0366
      6 C          -2.6688  -18.5176   22.1983 C.ar    1  UNL1        0.1337
      7 O          -1.2049  -18.7773   22.0003 O.3     1  UNL1       -0.5055
      8 C          -3.1181  -17.4020   23.0948 C.ar    1  UNL1        0.0366
      9 C          -4.5821  -17.1422   23.2928 C.ar    1  UNL1        0.0031
     10 C          -5.5969  -17.9980   22.5943 C.ar    1  UNL1        0.0002
     11 C          -7.0608  -17.7382   22.7924 C.ar    1  UNL1        0.0000
     12 H          -0.9242  -19.4742   21.4403 H       1  UNL1        0.2922
     13 O         -12.3259  -18.8346   25.0734 O.3     1  UNL1       -0.5055
     14 C         -11.6648  -18.4545   23.7817 C.ar    1  UNL1        0.1337
     15 C         -12.4677  -17.8146   22.6881 C.ar    1  UNL1        0.0366
     16 C         -11.8065  -17.4346   21.3964 C.ar    1  UNL1        0.0031
     17 C         -10.3425  -17.6944   21.1983 C.ar    1  UNL1        0.0002
     18 C          -9.5397  -18.3342   22.2919 C.ar    1  UNL1        0.0030
     19 C         -10.2008  -18.7143   23.5836 C.ar    1  UNL1        0.0366
     20 H         -13.2404  -18.6723   25.1971 H       1  UNL1        0.2922
@<TRIPOS>BOND
     1    13    14    1
     2    14    15   ar
     3    15    16   ar
     4    16    17   ar
     5    17    18   ar
     6    18     1    1
     7     1     2   ar
     8     2     3   ar
     9     3     4   ar
    10     4     5   ar
    11     5     6   ar
    12     6     7    1
    13     6     8   ar
    14     8     9   ar
    15     9    10   ar
    16    10    11   ar
    17    18    19   ar
    18    19    14   ar
    19    11     1   ar
    20    10     4   ar
    21    13    20    1
    22     7    12    1
@<TRIPOS>MOLECULE
*****
 20 22 0 0 0
SMALL
GASTEIGER

@<TRIPOS>ATOM
      1 C          -6.5727  -18.6594   21.6375 C.ar    1  UNL1        0.0001
      2 C          -6.9898  -17.7351   22.7428 C.ar    1  UNL1        0.0000
      3 C          -8.4354  -17.3721   22.9114 C.ar    1  UNL1        0.0001
      4 C          -9.4638  -17.9333   21.9747 C.ar    1  UNL1        0.0030
      5 C         -10.9094  -17.5702   22.1433 C.ar    1  UNL1        0.0366
      6 C         -11.9379  -18.1314   21.2066 C.ar    1  UNL1        0.1337
      7 O         -13.3834  -17.7684   21.3752 O.3     1  UNL1       -0.5055
      8 C         -11.5207  -19.0557   20.1013 C.ar    1  UNL1        0.0366
      9 C         -10.0751  -19.4187   19.9327 C.ar    1  UNL1        0.0031
     10 C          -9.0467  -18.8575   20.8694 C.ar    1  UNL1        0.0002
     11 C          -7.6011  -19.2206   20.7008 C.ar    1  UNL1        0.0000
     12 H         -13.6440  -17.1910   22.0657 H       1  UNL1        0.2922
     13 O          -1.5944  -18.0634   23.0022 O.3     1  UNL1       -0.5055
     14 C          -2.6379  -18.7245   22.1512 C.ar    1  UNL1        0.1337
     15 C          -2.2358  -19.7486   21.1316 C.ar    1  UNL1        0.0366
     16 C          -3.2793  -20.4096   20.2806 C.ar    1  UNL1        0.0031
     17 C          -4.7249  -20.0465   20.4492 C.ar    1  UNL1        0.0002
     18 C          -5.1270  -19.0225   21.4688 C.ar    1  UNL1        0.0030
     19 C          -4.0835  -18.3614   22.3198 C.ar    1  UNL1        0.0366
     20 H          -0.6914  -18.2902   22.8968 H       1  UNL1        0.2922
@<TRIPOS>BOND
     1    13    14    1
     2    14    15   ar
     3    15    16   ar
     4    16    17   ar
     5    17    18   ar
     6    18     1    1
     7     1     2   ar
     8     2     3   ar
     9     3     4   ar
    10     4     5   ar
    11     5     6   ar
    12     6     7    1
    13     6     8   ar
    14     8     9   ar
    15     9    10   ar
    16    10    11   ar
    17    18    19   ar
    18    19    14   ar
    19    11     1   ar
    20    10     4   ar
    21    13    20    1
    22     7    12    1
