@<TRIPOS>MOLECULE
*****
 33 37 0 0 0
SMALL
GASTEIGER

@<TRIPOS>ATOM
      1 C          -8.4389  -19.5628   20.6467 C.ar    1  UNL1        0.0990
      2 C          -9.4151  -19.5091   19.5091 C.ar    1  UNL1        0.0207
      3 C         -10.7876  -18.9438   19.7247 C.ar    1  UNL1        0.0032
      4 C         -11.1839  -18.4321   21.0779 C.ar    1  UNL1        0.0207
      5 C         -12.5565  -17.8667   21.2935 C.ar    1  UNL1        0.0017
      6 C         -12.9528  -17.3550   22.6467 C.ar    1  UNL1        0.0032
      7 C         -11.9765  -17.4087   23.7843 C.ar    1  UNL1        0.0385
      8 C         -10.6040  -17.9741   23.5687 C.ar    1  UNL1        0.1559
      9 C         -10.2077  -18.4858   22.2155 C.ar    1  UNL1        0.1151
     10 N          -8.8352  -19.0511   21.9999 N.ar    1  UNL1       -0.2408
     11 C          -2.9548  -18.8827   21.6953 C.ar    1  UNL1        0.1432
     12 C          -4.0782  -17.9971   22.1466 C.ar    1  UNL1        0.0560
     13 C          -5.4923  -18.3305   21.7735 C.ar    1  UNL1        0.0846
     14 N          -5.7830  -19.5494   20.9491 N.ar    1  UNL1       -0.2872
     15 C          -7.0663  -20.1281   20.4311 C.ar    1  UNL1        0.1021
     16 C          -6.7360  -21.3714   19.6596 C.ar    1  UNL1        0.1195
     17 N          -5.2486  -21.5611   19.7009 N.ar    1  UNL1       -0.2247
     18 C          -4.6596  -20.4350   20.4979 C.ar    1  UNL1        0.1509
     19 C          -3.2456  -20.1017   20.8709 C.ar    1  UNL1        0.0743
     20 O          -1.5408  -18.5493   22.0684 O.3     1  UNL1       -0.4726
     21 C          -0.7456  -17.6001   21.2218 C.3     1  UNL1        0.2373
     22 C          -0.1333  -18.0737   19.9369 C.3     1  UNL1        0.1894
     23 C          -2.2511  -17.3918   18.5954 C.3     1  UNL1        0.1743
     24 O          -0.9717  -18.1679   18.6966 O.3     1  UNL1       -0.3471
     25 O          -9.6278  -18.0277   24.7062 O.3     1  UNL1       -0.4747
     26 C          -8.6703  -16.8944   24.9269 C.3     1  UNL1        0.2010
     27 C          -8.0557  -16.1923   23.7525 C.3     1  UNL1        0.0635
     28 C          -7.0981  -15.0590   23.9732 C.3     1  UNL1        0.0725
     29 N          -6.7552  -14.6277   25.3683 N.3     1  UNL1       -0.2950
     30 C          -7.3698  -15.3298   26.5428 C.3     1  UNL1        0.1081
     31 C          -8.3273  -16.4632   26.3221 C.3     1  UNL1        0.2161
     32 F          -8.9419  -17.1652   27.4965 F       1  UNL1       -0.2319
     33 H          -7.0144  -13.6442   25.4446 H       1  UNL1        0.1233
@<TRIPOS>BOND
     1    23    24    1
     2    24    22    1
     3    22    21    1
     4    21    20    1
     5    20    11    1
     6    11    12   ar
     7    12    13   ar
     8    13    14   ar
     9    14    15   ar
    10    15     1    1
    11     1     2   ar
    12     2     3   ar
    13     3     4   ar
    14     4     5   ar
    15     5     6   ar
    16     6     7   ar
    17     7     8   ar
    18     8    25    1
    19    26    25    1
    20    26    27    1
    21    27    28    1
    22    28    29    1
    23    29    30    1
    24    30    31    1
    25    31    32    1
    26     8     9   ar
    27     9    10   ar
    28    15    16   ar
    29    16    17   ar
    30    17    18   ar
    31    18    19   ar
    32    19    11   ar
    33    18    14   ar
    34    10     1   ar
    35     9     4   ar
    36    31    26    1
    37    29    33    1
@<TRIPOS>MOLECULE
*****
 33 37 0 0 0
SMALL
GASTEIGER

@<TRIPOS>ATOM
      1 C          -6.2817  -19.5583   20.7204 C.ar    1  UNL1        0.0990
      2 C          -5.3872  -20.7177   20.3957 C.ar    1  UNL1        0.0207
      3 C          -3.9280  -20.6580   20.7379 C.ar    1  UNL1        0.0032
      4 C          -3.3633  -19.4389   21.4048 C.ar    1  UNL1        0.0207
      5 C          -1.9040  -19.3793   21.7471 C.ar    1  UNL1        0.0017
      6 C          -1.3393  -18.1601   22.4140 C.ar    1  UNL1        0.0032
      7 C          -2.2339  -17.0006   22.7387 C.ar    1  UNL1        0.0385
      8 C          -3.6931  -17.0603   22.3965 C.ar    1  UNL1        0.1559
      9 C          -4.2578  -18.2795   21.7296 C.ar    1  UNL1        0.1151
     10 N          -5.7170  -18.3391   21.3873 N.ar    1  UNL1       -0.2408
     11 C         -11.5083  -18.8383   22.6701 C.ar    1  UNL1        0.1432
     12 C         -10.2271  -18.6516   23.4275 C.ar    1  UNL1        0.0560
     13 C          -8.9118  -18.8888   22.7464 C.ar    1  UNL1        0.0846
     14 N          -8.8778  -19.3126   21.3079 N.ar    1  UNL1       -0.2872
     15 C          -7.7410  -19.6179   20.3782 C.ar    1  UNL1        0.1021
     16 C          -8.3196  -19.9933   19.0462 C.ar    1  UNL1        0.1195
     17 N          -9.8140  -19.9200   19.1527 N.ar    1  UNL1       -0.2247
     18 C         -10.1590  -19.4993   20.5506 C.ar    1  UNL1        0.1509
     19 C         -11.4742  -19.2622   21.2316 C.ar    1  UNL1        0.0743
     20 O         -12.8235  -18.6011   23.3511 O.3     1  UNL1       -0.4726
     21 C         -13.4919  -17.2624   23.2460 C.3     1  UNL1        0.2373
     22 C         -12.8838  -16.1850   22.3977 C.3     1  UNL1        0.1894
     23 C         -11.7266  -15.9605   20.0825 C.3     1  UNL1        0.1743
     24 O         -12.9396  -16.2869   20.9022 O.3     1  UNL1       -0.3471
     25 O          -4.5876  -15.9009   22.7213 O.3     1  UNL1       -0.4747
     26 C          -5.4274  -15.9265   23.9638 C.3     1  UNL1        0.2010
     27 C          -4.7711  -15.9392   25.3125 C.3     1  UNL1        0.0635
     28 C          -5.6109  -15.9649   26.5551 C.3     1  UNL1        0.0725
     29 N          -7.1071  -15.9778   26.4490 N.3     1  UNL1       -0.2950
     30 C          -7.7635  -15.9651   25.1003 C.3     1  UNL1        0.1081
     31 C          -6.9237  -15.9394   23.8577 C.3     1  UNL1        0.2161
     32 F          -7.5800  -15.9267   22.5090 F       1  UNL1       -0.2319
     33 H          -7.4448  -15.1552   26.9486 H       1  UNL1        0.1233
@<TRIPOS>BOND
     1    23    24    1
     2    24    22    1
     3    22    21    1
     4    21    20    1
     5    20    11    1
     6    11    12   ar
     7    12    13   ar
     8    13    14   ar
     9    14    15   ar
    10    15     1    1
    11     1     2   ar
    12     2     3   ar
    13     3     4   ar
    14     4     5   ar
    15     5     6   ar
    16     6     7   ar
    17     7     8   ar
    18     8    25    1
    19    26    25    1
    20    26    27    1
    21    27    28    1
    22    28    29    1
    23    29    30    1
    24    30    31    1
    25    31    32    1
    26     8     9   ar
    27     9    10   ar
    28    15    16   ar
    29    16    17   ar
    30    17    18   ar
    31    18    19   ar
    32    19    11   ar
    33    18    14   ar
    34    10     1   ar
    35     9     4   ar
    36    31    26    1
    37    29    33    1
@<TRIPOS>MOLECULE
*****
 33 37 0 0 0
SMALL
GASTEIGER

@<TRIPOS>ATOM
      1 C          -7.5732  -19.3114   21.2006 C.ar    1  UNL1        0.0990
      2 C          -8.1696  -19.4762   19.8342 C.ar    1  UNL1        0.0207
      3 C          -9.5991  -19.0939   19.5888 C.ar    1  UNL1        0.0032
      4 C         -10.4323  -18.5468   20.7098 C.ar    1  UNL1        0.0207
      5 C         -11.8619  -18.1645   20.4643 C.ar    1  UNL1        0.0017
      6 C         -12.6950  -17.6175   21.5853 C.ar    1  UNL1        0.0032
      7 C         -12.0985  -17.4527   22.9518 C.ar    1  UNL1        0.0385
      8 C         -10.6690  -17.8350   23.1972 C.ar    1  UNL1        0.1559
      9 C          -9.8359  -18.3821   22.0762 C.ar    1  UNL1        0.1151
     10 N          -8.4064  -18.7644   22.3216 N.ar    1  UNL1       -0.2408
     11 C          -2.2702  -18.7150   19.4232 C.ar    1  UNL1        0.1432
     12 C          -3.4991  -18.0965   18.8254 C.ar    1  UNL1        0.0560
     13 C          -4.8445  -18.3645   19.4320 C.ar    1  UNL1        0.0846
     14 N          -4.9611  -19.2510   20.6364 N.ar    1  UNL1       -0.2872
     15 C          -6.1436  -19.6937   21.4461 C.ar    1  UNL1        0.1021
     16 C          -5.6456  -20.5859   22.5443 C.ar    1  UNL1        0.1195
     17 N          -4.1553  -20.6945   22.4134 N.ar    1  UNL1       -0.2247
     18 C          -3.7322  -19.8695   21.2342 C.ar    1  UNL1        0.1509
     19 C          -2.3868  -19.6015   20.6276 C.ar    1  UNL1        0.0743
     20 O          -0.9248  -18.4471   18.8166 O.3     1  UNL1       -0.4726
     21 C           0.0801  -17.6159   19.5579 C.3     1  UNL1        0.2373
     22 C          -0.2843  -16.9959   20.8743 C.3     1  UNL1        0.1894
     23 C          -2.4165  -16.2663   22.1670 C.3     1  UNL1        0.1743
     24 O          -1.5048  -16.1309   20.9837 O.3     1  UNL1       -0.3471
     25 O         -10.0726  -17.6702   24.5636 O.3     1  UNL1       -0.4747
     26 C          -8.9977  -16.6498   24.7947 C.3     1  UNL1        0.2010
     27 C          -8.5038  -15.8094   23.6547 C.3     1  UNL1        0.0635
     28 C          -7.4289  -14.7890   23.8859 C.3     1  UNL1        0.0725
     29 N          -6.8480  -14.6090   25.2570 N.3     1  UNL1       -0.2950
     30 C          -7.3420  -15.4494   26.3971 C.3     1  UNL1        0.1081
     31 C          -8.4168  -16.4698   26.1660 C.3     1  UNL1        0.2161
     32 F          -8.9108  -17.3102   27.3060 F       1  UNL1       -0.2319
     33 H          -7.0063  -13.6358   25.5184 H       1  UNL1        0.1233
@<TRIPOS>BOND
     1    23    24    1
     2    24    22    1
     3    22    21    1
     4    21    20    1
     5    20    11    1
     6    11    12   ar
     7    12    13   ar
     8    13    14   ar
     9    14    15   ar
    10    15     1    1
    11     1     2   ar
    12     2     3   ar
    13     3     4   ar
    14     4     5   ar
    15     5     6   ar
    16     6     7   ar
    17     7     8   ar
    18     8    25    1
    19    26    25    1
    20    26    27    1
    21    27    28    1
    22    28    29    1
    23    29    30    1
    24    30    31    1
    25    31    32    1
    26     8     9   ar
    27     9    10   ar
    28    15    16   ar
    29    16    17   ar
    30    17    18   ar
    31    18    19   ar
    32    19    11   ar
    33    18    14   ar
    34    10     1   ar
    35     9     4   ar
    36    31    26    1
    37    29    33    1
@<TRIPOS>MOLECULE
*****
 33 37 0 0 0
SMALL
GASTEIGER

@<TRIPOS>ATOM
      1 C          -5.6434  -19.6090   21.0341 C.ar    1  UNL1        0.0990
      2 C          -5.0582  -20.8898   20.5173 C.ar    1  UNL1        0.0207
      3 C          -5.8260  -21.7221   19.5338 C.ar    1  UNL1        0.0032
      4 C          -7.1792  -21.2737   19.0669 C.ar    1  UNL1        0.0207
      5 C          -7.9471  -22.1062   18.0833 C.ar    1  UNL1        0.0017
      6 C          -9.3002  -21.6578   17.6164 C.ar    1  UNL1        0.0032
      7 C          -9.8854  -20.3769   18.1332 C.ar    1  UNL1        0.0385
      8 C          -9.1176  -19.5445   19.1168 C.ar    1  UNL1        0.1559
      9 C          -7.7644  -19.9930   19.5836 C.ar    1  UNL1        0.1151
     10 N          -6.9965  -19.1606   20.5672 N.ar    1  UNL1       -0.2408
     11 C          -5.9879  -15.4912   24.8501 C.ar    1  UNL1        0.1432
     12 C          -7.1074  -16.0586   24.0287 C.ar    1  UNL1        0.0560
     13 C          -6.8351  -17.1630   23.0508 C.ar    1  UNL1        0.0846
     14 N          -5.4433  -17.6999   22.8944 N.ar    1  UNL1       -0.2872
     15 C          -4.8755  -18.7766   22.0177 C.ar    1  UNL1        0.1021
     16 C          -3.4051  -18.8746   22.2973 C.ar    1  UNL1        0.1195
     17 N          -3.0641  -17.8586   23.3468 N.ar    1  UNL1       -0.2247
     18 C          -4.3238  -17.1326   23.7158 C.ar    1  UNL1        0.1509
     19 C          -4.5961  -16.0283   24.6937 C.ar    1  UNL1        0.0743
     20 O          -6.2602  -14.3869   25.8279 O.3     1  UNL1       -0.4726
     21 C          -6.7541  -14.7109   27.2069 C.3     1  UNL1        0.2373
     22 C          -7.0927  -16.1266   27.5689 C.3     1  UNL1        0.1894
     23 C          -9.1055  -17.4776   26.6344 C.3     1  UNL1        0.1743
     24 O          -8.5274  -16.5536   27.6649 O.3     1  UNL1       -0.3471
     25 O          -9.7028  -18.2638   19.6335 O.3     1  UNL1       -0.4747
     26 C         -10.2514  -18.1987   21.0281 C.3     1  UNL1        0.2010
     27 C         -10.7372  -19.4477   21.7019 C.3     1  UNL1        0.0635
     28 C         -11.2858  -19.3826   23.0965 C.3     1  UNL1        0.0725
     29 N         -11.3487  -18.0686   23.8172 N.3     1  UNL1       -0.2950
     30 C         -10.8629  -16.8196   23.1433 C.3     1  UNL1        0.1081
     31 C         -10.3143  -16.8846   21.7488 C.3     1  UNL1        0.2161
     32 F          -9.8285  -15.6357   21.0749 F       1  UNL1       -0.2319
     33 H         -10.8009  -18.1746   24.6711 H       1  UNL1        0.1233
@<TRIPOS>BOND
     1    23    24    1
     2    24    22    1
     3    22    21    1
     4    21    20    1
     5    20    11    1
     6    11    12   ar
     7    12    13   ar
     8    13    14   ar
     9    14    15   ar
    10    15     1    1
    11     1     2   ar
    12     2     3   ar
    13     3     4   ar
    14     4     5   ar
    15     5     6   ar
    16     6     7   ar
    17     7     8   ar
    18     8    25    1
    19    26    25    1
    20    26    27    1
    21    27    28    1
    22    28    29    1
    23    29    30    1
    24    30    31    1
    25    31    32    1
    26     8     9   ar
    27     9    10   ar
    28    15    16   ar
    29    16    17   ar
    30    17    18   ar
    31    18    19   ar
    32    19    11   ar
    33    18    14   ar
    34    10     1   ar
    35     9     4   ar
    36    31    26    1
    37    29    33    1
@<TRIPOS>MOLECULE
*****
 33 37 0 0 0
SMALL
GASTEIGER

@<TRIPOS>ATOM
      1 C          -0.4623    2.6508   20.6189 C.ar    1  UNL1        0.0990
      2 C          -0.0432    3.3710   19.3717 C.ar    1  UNL1        0.0207
      3 C          -1.0684    4.0697   18.5287 C.ar    1  UNL1        0.0032
      4 C          -2.5128    4.0482   18.9330 C.ar    1  UNL1        0.0207
      5 C          -3.5380    4.7470   18.0899 C.ar    1  UNL1        0.0017
      6 C          -4.9824    4.7255   18.4942 C.ar    1  UNL1        0.0032
      7 C          -5.4014    4.0053   19.7415 C.ar    1  UNL1        0.0385
      8 C          -4.3762    3.3065   20.5845 C.ar    1  UNL1        0.1559
      9 C          -2.9318    3.3280   20.1802 C.ar    1  UNL1        0.1151
     10 N          -1.9066    2.6293   21.0231 N.ar    1  UNL1       -0.2408
     11 C           3.1991   -1.6135   20.8362 C.ar    1  UNL1        0.1432
     12 C           2.2974   -1.2534   19.6928 C.ar    1  UNL1        0.0560
     13 C           1.3767   -0.0747   19.8062 C.ar    1  UNL1        0.0846
     14 N           1.3577    0.7440   21.0629 N.ar    1  UNL1       -0.2872
     15 C           0.5630    1.9520   21.4619 C.ar    1  UNL1        0.1021
     16 C           0.9736    2.3386   22.8519 C.ar    1  UNL1        0.1195
     17 N           2.0220    1.3695   23.3119 N.ar    1  UNL1       -0.2247
     18 C           2.2594    0.3839   22.2063 C.ar    1  UNL1        0.1509
     19 C           3.1801   -0.7947   22.0929 C.ar    1  UNL1        0.0743
     20 O           4.1198   -2.7921   20.7228 O.3     1  UNL1       -0.4726
     21 C           4.2061   -3.5553   19.4343 C.3     1  UNL1        0.2373
     22 C           5.2890   -3.2382   18.4459 C.3     1  UNL1        0.1894
     23 C           5.5992   -0.7555   17.7463 C.3     1  UNL1        0.1743
     24 O           5.0939   -2.1358   17.4476 O.3     1  UNL1       -0.3471
     25 O          -4.7953    2.5863   21.8317 O.3     1  UNL1       -0.4747
     26 C          -4.9652    3.3448   23.1146 C.3     1  UNL1        0.2010
     27 C          -3.8450    3.3938   24.1109 C.3     1  UNL1        0.0635
     28 C          -4.0149    4.1523   25.3938 C.3     1  UNL1        0.0725
     29 N          -5.3050    4.8617   25.6804 N.3     1  UNL1       -0.2950
     30 C          -6.4253    4.8128   24.6841 C.3     1  UNL1        0.1081
     31 C          -6.2554    4.0543   23.4012 C.3     1  UNL1        0.2161
     32 F          -7.3756    4.0053   22.4049 F       1  UNL1       -0.2319
     33 H          -5.0756    5.8461   25.8173 H       1  UNL1        0.1233
@<TRIPOS>BOND
     1    23    24    1
     2    24    22    1
     3    22    21    1
     4    21    20    1
     5    20    11    1
     6    11    12   ar
     7    12    13   ar
     8    13    14   ar
     9    14    15   ar
    10    15     1    1
    11     1     2   ar
    12     2     3   ar
    13     3     4   ar
    14     4     5   ar
    15     5     6   ar
    16     6     7   ar
    17     7     8   ar
    18     8    25    1
    19    26    25    1
    20    26    27    1
    21    27    28    1
    22    28    29    1
    23    29    30    1
    24    30    31    1
    25    31    32    1
    26     8     9   ar
    27     9    10   ar
    28    15    16   ar
    29    16    17   ar
    30    17    18   ar
    31    18    19   ar
    32    19    11   ar
    33    18    14   ar
    34    10     1   ar
    35     9     4   ar
    36    31    26    1
    37    29    33    1
@<TRIPOS>MOLECULE
*****
 33 37 0 0 0
SMALL
GASTEIGER

@<TRIPOS>ATOM
      1 C          -2.4279    3.3695   25.5261 C.ar    1  UNL1        0.0990
      2 C          -3.0628    4.2052   26.5978 C.ar    1  UNL1        0.0207
      3 C          -4.4392    4.7657   26.3949 C.ar    1  UNL1        0.0032
      4 C          -5.1808    4.4905   25.1204 C.ar    1  UNL1        0.0207
      5 C          -6.5573    5.0510   24.9176 C.ar    1  UNL1        0.0017
      6 C          -7.2989    4.7758   23.6431 C.ar    1  UNL1        0.0032
      7 C          -6.6639    3.9400   22.5714 C.ar    1  UNL1        0.0385
      8 C          -5.2874    3.3796   22.7743 C.ar    1  UNL1        0.1559
      9 C          -4.5459    3.6548   24.0488 C.ar    1  UNL1        0.1151
     10 N          -3.1694    3.0943   24.2516 N.ar    1  UNL1       -0.2408
     11 C           0.8103    0.1809   28.8404 C.ar    1  UNL1        0.1432
     12 C          -0.6418    0.5031   29.0347 C.ar    1  UNL1        0.0560
     13 C          -1.3551    1.3763   28.0454 C.ar    1  UNL1        0.0846
     14 N          -0.6165    1.9274   26.8619 N.ar    1  UNL1       -0.2872
     15 C          -1.0513    2.8090   25.7289 C.ar    1  UNL1        0.1021
     16 C           0.1320    3.0317   24.8344 C.ar    1  UNL1        0.1195
     17 N           1.2981    2.2878   25.4145 N.ar    1  UNL1       -0.2247
     18 C           0.8356    1.6052   26.6676 C.ar    1  UNL1        0.1509
     19 C           1.5489    0.7320   27.6568 C.ar    1  UNL1        0.0743
     20 O           1.5236   -0.6923   29.8295 O.3     1  UNL1       -0.4726
     21 C           2.5843   -0.1098   30.7161 C.3     1  UNL1        0.2373
     22 C           2.4274    1.2791   31.2603 C.3     1  UNL1        0.1894
     23 C           1.8143    2.4814   33.4803 C.3     1  UNL1        0.1743
     24 O           1.4499    1.5452   32.3666 O.3     1  UNL1       -0.3471
     25 O          -4.6525    2.5439   21.7026 O.3     1  UNL1       -0.4747
     26 C          -4.0129    3.2038   20.5172 C.3     1  UNL1        0.2010
     27 C          -2.5448    3.5113   20.5315 C.3     1  UNL1        0.0635
     28 C          -1.9052    4.1713   19.3460 C.3     1  UNL1        0.0725
     29 N          -2.7336    4.5238   18.1462 N.3     1  UNL1       -0.2950
     30 C          -4.2017    4.2163   18.1319 C.3     1  UNL1        0.1081
     31 C          -4.8414    3.5563   19.3173 C.3     1  UNL1        0.2161
     32 F          -6.3094    3.2488   19.3030 F       1  UNL1       -0.2319
     33 H          -2.3226    4.0351   17.3508 H       1  UNL1        0.1233
@<TRIPOS>BOND
     1    23    24    1
     2    24    22    1
     3    22    21    1
     4    21    20    1
     5    20    11    1
     6    11    12   ar
     7    12    13   ar
     8    13    14   ar
     9    14    15   ar
    10    15     1    1
    11     1     2   ar
    12     2     3   ar
    13     3     4   ar
    14     4     5   ar
    15     5     6   ar
    16     6     7   ar
    17     7     8   ar
    18     8    25    1
    19    26    25    1
    20    26    27    1
    21    27    28    1
    22    28    29    1
    23    29    30    1
    24    30    31    1
    25    31    32    1
    26     8     9   ar
    27     9    10   ar
    28    15    16   ar
    29    16    17   ar
    30    17    18   ar
    31    18    19   ar
    32    19    11   ar
    33    18    14   ar
    34    10     1   ar
    35     9     4   ar
    36    31    26    1
    37    29    33    1
@<TRIPOS>MOLECULE
*****
 33 37 0 0 0
SMALL
GASTEIGER

@<TRIPOS>ATOM
      1 C          -2.1450    3.3742   20.7086 C.ar    1  UNL1        0.0990
      2 C          -3.5431    3.2132   20.1897 C.ar    1  UNL1        0.0207
      3 C          -4.7067    3.2909   21.1330 C.ar    1  UNL1        0.0032
      4 C          -4.4723    3.5297   22.5952 C.ar    1  UNL1        0.0207
      5 C          -5.6360    3.6074   23.5385 C.ar    1  UNL1        0.0017
      6 C          -5.4016    3.8461   25.0007 C.ar    1  UNL1        0.0032
      7 C          -4.0034    4.0072   25.5196 C.ar    1  UNL1        0.0385
      8 C          -2.8398    3.9294   24.5763 C.ar    1  UNL1        0.1559
      9 C          -3.0742    3.6907   23.1141 C.ar    1  UNL1        0.1151
     10 N          -1.9105    3.6130   22.1708 N.ar    1  UNL1       -0.2408
     11 C           2.2122    0.2497   19.0089 C.ar    1  UNL1        0.1432
     12 C           1.2177   -0.0916   20.0787 C.ar    1  UNL1        0.0560
     13 C           0.1099    0.8654   20.4057 C.ar    1  UNL1        0.0846
     14 N          -0.0034    2.1636   19.6630 N.ar    1  UNL1       -0.2872
     15 C          -0.9812    3.2965   19.7654 C.ar    1  UNL1        0.1021
     16 C          -0.5910    4.3380   18.7589 C.ar    1  UNL1        0.1195
     17 N           0.6280    3.8488   18.0345 N.ar    1  UNL1       -0.2247
     18 C           0.9912    2.5049   18.5933 C.ar    1  UNL1        0.1509
     19 C           2.0989    1.5480   18.2662 C.ar    1  UNL1        0.0743
     20 O           3.3200   -0.7072   18.6819 O.3     1  UNL1       -0.4726
     21 C           4.0300   -0.6106   17.3640 C.3     1  UNL1        0.2373
     22 C           5.5078   -0.3566   17.3251 C.3     1  UNL1        0.1894
     23 C           6.2152   -2.7068   18.1769 C.3     1  UNL1        0.1743
     24 O           6.4668   -1.5098   17.3088 O.3     1  UNL1       -0.3471
     25 O          -1.4417    4.0905   25.0953 O.3     1  UNL1       -0.4747
     26 C          -0.7137    2.9107   25.6681 C.3     1  UNL1        0.2010
     27 C          -1.0886    2.3828   27.0212 C.3     1  UNL1        0.0635
     28 C          -0.3607    1.2030   27.5941 C.3     1  UNL1        0.0725
     29 N           0.7421    0.5510   26.8139 N.3     1  UNL1       -0.2950
     30 C           1.1170    1.0789   25.4607 C.3     1  UNL1        0.1081
     31 C           0.3891    2.2587   24.8879 C.3     1  UNL1        0.2161
     32 F           0.7640    2.7865   23.5348 F       1  UNL1       -0.2319
     33 H           0.4748   -0.4249   26.6855 H       1  UNL1        0.1233
@<TRIPOS>BOND
     1    23    24    1
     2    24    22    1
     3    22    21    1
     4    21    20    1
     5    20    11    1
     6    11    12   ar
     7    12    13   ar
     8    13    14   ar
     9    14    15   ar
    10    15     1    1
    11     1     2   ar
    12     2     3   ar
    13     3     4   ar
    14     4     5   ar
    15     5     6   ar
    16     6     7   ar
    17     7     8   ar
    18     8    25    1
    19    26    25    1
    20    26    27    1
    21    27    28    1
    22    28    29    1
    23    29    30    1
    24    30    31    1
    25    31    32    1
    26     8     9   ar
    27     9    10   ar
    28    15    16   ar
    29    16    17   ar
    30    17    18   ar
    31    18    19   ar
    32    19    11   ar
    33    18    14   ar
    34    10     1   ar
    35     9     4   ar
    36    31    26    1
    37    29    33    1
@<TRIPOS>MOLECULE
*****
 33 37 0 0 0
SMALL
GASTEIGER

@<TRIPOS>ATOM
      1 C           8.2398   -4.9409   22.3079 C.ar    1  UNL1        0.0990
      2 C           9.4934   -4.6317   21.5446 C.ar    1  UNL1        0.0207
      3 C           9.4489   -3.6867   20.3806 C.ar    1  UNL1        0.0032
      4 C           8.1507   -3.0509   19.9799 C.ar    1  UNL1        0.0207
      5 C           8.1062   -2.1059   18.8158 C.ar    1  UNL1        0.0017
      6 C           6.8081   -1.4701   18.4152 C.ar    1  UNL1        0.0032
      7 C           5.5544   -1.7793   19.1786 C.ar    1  UNL1        0.0385
      8 C           5.5989   -2.7243   20.3426 C.ar    1  UNL1        0.1559
      9 C           6.8971   -3.3601   20.7433 C.ar    1  UNL1        0.1151
     10 N           6.9416   -4.3051   21.9073 N.ar    1  UNL1       -0.2408
     11 C           6.8659   -5.6658   27.7139 C.ar    1  UNL1        0.1432
     12 C           6.6063   -4.4533   26.8698 C.ar    1  UNL1        0.0560
     13 C           7.0439   -4.4304   25.4352 C.ar    1  UNL1        0.0846
     14 N           7.7413   -5.6200   24.8448 N.ar    1  UNL1       -0.2872
     15 C           8.2843   -5.8859   23.4720 C.ar    1  UNL1        0.1021
     16 C           8.8795   -7.2628   23.4677 C.ar    1  UNL1        0.1195
     17 N           8.7044   -7.8477   24.8378 N.ar    1  UNL1       -0.2247
     18 C           8.0009   -6.8324   25.6889 C.ar    1  UNL1        0.1509
     19 C           7.5633   -6.8553   27.1234 C.ar    1  UNL1        0.0743
     20 O           6.4283   -5.6887   29.1484 O.3     1  UNL1       -0.4726
     21 C           7.4517   -5.7355   30.2441 C.3     1  UNL1        0.2373
     22 C           7.0566   -5.4089   31.6538 C.3     1  UNL1        0.1894
     23 C           6.2088   -2.9720   31.3497 C.3     1  UNL1        0.1743
     24 O           7.0177   -3.9805   32.1101 O.3     1  UNL1       -0.3471
     25 O           4.3453   -3.0335   21.1060 O.3     1  UNL1       -0.4747
     26 C           3.9579   -2.1908   22.2849 C.3     1  UNL1        0.2010
     27 C           4.5447   -2.4757   23.6356 C.3     1  UNL1        0.0635
     28 C           4.1573   -1.6330   24.8145 C.3     1  UNL1        0.0725
     29 N           3.1832   -0.5054   24.6427 N.3     1  UNL1       -0.2950
     30 C           2.5964   -0.2204   23.2919 C.3     1  UNL1        0.1081
     31 C           2.9838   -1.0631   22.1130 C.3     1  UNL1        0.2161
     32 F           2.3970   -0.7782   20.7623 F       1  UNL1       -0.2319
     33 H           3.6612    0.3447   24.9414 H       1  UNL1        0.1233
@<TRIPOS>BOND
     1    23    24    1
     2    24    22    1
     3    22    21    1
     4    21    20    1
     5    20    11    1
     6    11    12   ar
     7    12    13   ar
     8    13    14   ar
     9    14    15   ar
    10    15     1    1
    11     1     2   ar
    12     2     3   ar
    13     3     4   ar
    14     4     5   ar
    15     5     6   ar
    16     6     7   ar
    17     7     8   ar
    18     8    25    1
    19    26    25    1
    20    26    27    1
    21    27    28    1
    22    28    29    1
    23    29    30    1
    24    30    31    1
    25    31    32    1
    26     8     9   ar
    27     9    10   ar
    28    15    16   ar
    29    16    17   ar
    30    17    18   ar
    31    18    19   ar
    32    19    11   ar
    33    18    14   ar
    34    10     1   ar
    35     9     4   ar
    36    31    26    1
    37    29    33    1
@<TRIPOS>MOLECULE
*****
 33 37 0 0 0
SMALL
GASTEIGER

@<TRIPOS>ATOM
      1 C          -2.4273    3.4897   25.5824 C.ar    1  UNL1        0.0990
      2 C          -3.0396    4.3633   26.6368 C.ar    1  UNL1        0.0207
      3 C          -4.4165    4.9245   26.4391 C.ar    1  UNL1        0.0032
      4 C          -5.1811    4.6122   25.1870 C.ar    1  UNL1        0.0207
      5 C          -6.5580    5.1735   24.9893 C.ar    1  UNL1        0.0017
      6 C          -7.3226    4.8611   23.7372 C.ar    1  UNL1        0.0032
      7 C          -6.7103    3.9874   22.6828 C.ar    1  UNL1        0.0385
      8 C          -5.3334    3.4262   22.8805 C.ar    1  UNL1        0.1559
      9 C          -4.5688    3.7385   24.1326 C.ar    1  UNL1        0.1151
     10 N          -3.1919    3.1773   24.3303 N.ar    1  UNL1       -0.2408
     11 C           0.8118    0.2685   28.8641 C.ar    1  UNL1        0.1432
     12 C          -0.6407    0.5871   29.0608 C.ar    1  UNL1        0.0560
     13 C          -1.3543    1.4703   28.0807 C.ar    1  UNL1        0.0846
     14 N          -0.6154    2.0349   26.9037 N.ar    1  UNL1       -0.2872
     15 C          -1.0503    2.9283   25.7801 C.ar    1  UNL1        0.1021
     16 C           0.1333    3.1619   24.8888 C.ar    1  UNL1        0.1195
     17 N           1.2999    2.4129   25.4616 N.ar    1  UNL1       -0.2247
     18 C           0.8371    1.7163   26.7069 C.ar    1  UNL1        0.1509
     19 C           1.5507    0.8331   27.6870 C.ar    1  UNL1        0.0743
     20 O           1.5254   -0.6147   29.8442 O.3     1  UNL1       -0.4726
     21 C           2.5228   -0.0252   30.7970 C.3     1  UNL1        0.2373
     22 C           3.9753    0.0258   30.4257 C.3     1  UNL1        0.1894
     23 C           4.6042   -1.2263   28.2379 C.3     1  UNL1        0.1743
     24 O           4.6144   -1.1425   29.7355 O.3     1  UNL1       -0.3471
     25 O          -4.7211    2.5525   21.8260 O.3     1  UNL1       -0.4747
     26 C          -4.1999    3.1608   20.5578 C.3     1  UNL1        0.2010
     27 C          -5.1497    3.5277   19.4564 C.3     1  UNL1        0.0635
     28 C          -4.6285    4.1359   18.1881 C.3     1  UNL1        0.0725
     29 N          -3.1575    4.3772   18.0214 N.3     1  UNL1       -0.2950
     30 C          -2.2076    4.0103   19.1229 C.3     1  UNL1        0.1081
     31 C          -2.7288    3.4021   20.3911 C.3     1  UNL1        0.2161
     32 F          -1.7790    3.0352   21.4925 F       1  UNL1       -0.2319
     33 H          -3.0403    5.3763   17.8521 H       1  UNL1        0.1233
@<TRIPOS>BOND
     1    23    24    1
     2    24    22    1
     3    22    21    1
     4    21    20    1
     5    20    11    1
     6    11    12   ar
     7    12    13   ar
     8    13    14   ar
     9    14    15   ar
    10    15     1    1
    11     1     2   ar
    12     2     3   ar
    13     3     4   ar
    14     4     5   ar
    15     5     6   ar
    16     6     7   ar
    17     7     8   ar
    18     8    25    1
    19    26    25    1
    20    26    27    1
    21    27    28    1
    22    28    29    1
    23    29    30    1
    24    30    31    1
    25    31    32    1
    26     8     9   ar
    27     9    10   ar
    28    15    16   ar
    29    16    17   ar
    30    17    18   ar
    31    18    19   ar
    32    19    11   ar
    33    18    14   ar
    34    10     1   ar
    35     9     4   ar
    36    31    26    1
    37    29    33    1
