@<TRIPOS>MOLECULE
*****
 22 24 0 0 0
SMALL
GASTEIGER

@<TRIPOS>ATOM
      1 C          -8.5175  -17.5699   22.1025 C.2     1  UNL1        0.1724
      2 O          -9.6191  -17.4043   21.0981 O.2     1  UNL1       -0.2916
      3 C          -7.2956  -18.3659   21.7512 C.2     1  UNL1        0.0193
      4 C          -7.4101  -19.5543   20.8433 C.2     1  UNL1        0.0301
      5 C          -6.1881  -20.3503   20.4920 C.2     1  UNL1        0.1571
      6 F          -6.3027  -21.5388   19.5840 F       1  UNL1       -0.2026
      7 C          -4.8518  -19.9578   21.0488 C.2     1  UNL1        0.1050
      8 N          -3.4824  -20.5466   20.8811 N.2     1  UNL1       -0.2419
      9 C          -2.5216  -19.7221   21.6854 C.2     1  UNL1        0.0986
     10 C          -3.2972  -18.6236   22.3503 C.2     1  UNL1        0.0183
     11 C          -4.7373  -18.7693   21.9568 C.2     1  UNL1        0.0037
     12 C          -5.9592  -17.9734   22.3080 C.3     1  UNL1        0.0572
     13 C          -8.6377  -16.9395   23.4583 C.3     1  UNL1        0.0982
     14 C          -8.8875  -16.5832   24.8938 C.3     1  UNL1        0.0281
     15 C          -8.3968  -15.1833   25.1161 C.3     1  UNL1        0.0691
     16 N          -7.8437  -14.6744   23.8180 N.3     1  UNL1       -0.2970
     17 C          -7.9926  -15.7597   22.7934 C.3     1  UNL1        0.0783
     18 H          -6.8580  -14.4378   23.9308 H       1  UNL1        0.1233
     19 C          -9.2577  -18.2510   23.8397 C.3     1  UNL1        0.1506
     20 O         -10.5578  -18.2767   24.5876 O.3     1  UNL1       -0.3533
     21 C         -12.5706  -17.6176   23.0829 C.3     1  UNL1        0.0346
     22 C         -11.8249  -18.6492   23.8765 C.3     1  UNL1        0.1423
@<TRIPOS>BOND
     1    21    22    1
     2    22    20    1
     3    20    19    1
     4    19    13    1
     5    13     1    1
     6     1     2    2
     7     1     3    1
     8     3     4    2
     9     4     5    1
    10     5     6    1
    11     5     7    2
    12     7     8    1
    13     8     9    2
    14     9    10    1
    15    10    11    2
    16    11    12    1
    17    13    14    1
    18    14    15    1
    19    15    16    1
    20    16    17    1
    21    17    13    1
    22    12     3    1
    23    11     7    1
    24    16    18    1
@<TRIPOS>MOLECULE
*****
 22 24 0 0 0
SMALL
GASTEIGER

@<TRIPOS>ATOM
      1 C          -8.5409  -19.0160   21.6832 C.2     1  UNL1        0.1724
      2 O          -9.3653  -19.2313   20.4488 O.2     1  UNL1       -0.2916
      3 C          -7.0462  -19.1234   21.6151 C.2     1  UNL1        0.0193
      4 C          -6.4055  -20.0601   20.6344 C.2     1  UNL1        0.0301
      5 C          -4.9108  -20.1675   20.5663 C.2     1  UNL1        0.1571
      6 F          -4.2701  -21.1043   19.5855 F       1  UNL1       -0.2026
      7 C          -4.0570  -19.3381   21.4790 C.2     1  UNL1        0.1050
      8 N          -2.5695  -19.2312   21.6397 N.2     1  UNL1       -0.2419
      9 C          -2.2909  -18.2283   22.7199 C.2     1  UNL1        0.0986
     10 C          -3.6063  -17.7155   23.2267 C.2     1  UNL1        0.0183
     11 C          -4.6978  -18.4014   22.4598 C.2     1  UNL1        0.0037
     12 C          -6.1924  -18.2940   22.5279 C.3     1  UNL1        0.0572
     13 C          -9.2110  -18.6932   22.9858 C.3     1  UNL1        0.0982
     14 C          -9.8990  -18.0808   24.1698 C.3     1  UNL1        0.0281
     15 C         -10.0984  -19.1555   25.1970 C.3     1  UNL1        0.0691
     16 N          -9.5338  -20.4320   24.6479 N.3     1  UNL1       -0.2970
     17 C          -8.9853  -20.1464   23.2814 C.3     1  UNL1        0.0783
     18 H         -10.2684  -21.1369   24.5857 H       1  UNL1        0.1233
     19 C          -9.2966  -17.3075   22.4180 C.3     1  UNL1        0.1506
     20 O         -10.5702  -16.5246   22.5394 O.3     1  UNL1       -0.3533
     21 C         -12.5788  -17.6614   21.3464 C.3     1  UNL1        0.0346
     22 C         -11.5751  -16.5496   21.4260 C.3     1  UNL1        0.1423
@<TRIPOS>BOND
     1    21    22    1
     2    22    20    1
     3    20    19    1
     4    19    13    1
     5    13     1    1
     6     1     2    2
     7     1     3    1
     8     3     4    2
     9     4     5    1
    10     5     6    1
    11     5     7    2
    12     7     8    1
    13     8     9    2
    14     9    10    1
    15    10    11    2
    16    11    12    1
    17    13    14    1
    18    14    15    1
    19    15    16    1
    20    16    17    1
    21    17    13    1
    22    12     3    1
    23    11     7    1
    24    16    18    1
@<TRIPOS>MOLECULE
*****
 22 24 0 0 0
SMALL
GASTEIGER

@<TRIPOS>ATOM
      1 C          -7.9318  -19.0237   20.9554 C.2     1  UNL1        0.1724
      2 O          -8.1915  -19.0637   19.4787 O.2     1  UNL1       -0.2916
      3 C          -9.0813  -19.0125   21.9191 C.2     1  UNL1        0.0193
      4 C          -9.0042  -19.8090   23.1877 C.2     1  UNL1        0.0301
      5 C         -10.1537  -19.7978   24.1514 C.2     1  UNL1        0.1571
      6 F         -10.0765  -20.5943   25.4202 F       1  UNL1       -0.2026
      7 C         -11.3803  -18.9900   23.8463 C.2     1  UNL1        0.1050
      8 N         -12.6611  -18.7865   24.6000 N.2     1  UNL1       -0.2419
      9 C         -13.5298  -17.8642   23.7970 C.2     1  UNL1        0.0986
     10 C         -12.7859  -17.4978   22.5471 C.2     1  UNL1        0.0183
     11 C         -11.4574  -18.1936   22.5776 C.2     1  UNL1        0.0037
     12 C         -10.3079  -18.2048   21.6140 C.3     1  UNL1        0.0572
     13 C          -6.5227  -18.9950   21.4686 C.3     1  UNL1        0.0982
     14 C          -5.2223  -18.7423   22.1724 C.3     1  UNL1        0.0281
     15 C          -4.1926  -19.6634   21.5884 C.3     1  UNL1        0.0691
     16 N          -4.8565  -20.4854   20.5236 N.3     1  UNL1       -0.2970
     17 C          -6.2965  -20.0723   20.4496 C.3     1  UNL1        0.0783
     18 H          -4.7921  -21.4755   20.7602 H       1  UNL1        0.1233
     19 C          -7.0434  -17.9237   22.3803 C.3     1  UNL1        0.1506
     20 O          -6.1006  -16.9169   22.9698 O.3     1  UNL1       -0.3533
     21 C          -8.0487  -15.7828   24.2614 C.3     1  UNL1        0.0346
     22 C          -6.6370  -15.7570   23.7551 C.3     1  UNL1        0.1423
@<TRIPOS>BOND
     1    21    22    1
     2    22    20    1
     3    20    19    1
     4    19    13    1
     5    13     1    1
     6     1     2    2
     7     1     3    1
     8     3     4    2
     9     4     5    1
    10     5     6    1
    11     5     7    2
    12     7     8    1
    13     8     9    2
    14     9    10    1
    15    10    11    2
    16    11    12    1
    17    13    14    1
    18    14    15    1
    19    15    16    1
    20    16    17    1
    21    17    13    1
    22    12     3    1
    23    11     7    1
    24    16    18    1
@<TRIPOS>MOLECULE
*****
 22 24 0 0 0
SMALL
GASTEIGER

@<TRIPOS>ATOM
      1 C          -7.8617  -17.5016   22.0938 C.2     1  UNL1        0.1724
      2 O          -7.7785  -16.1622   21.4239 O.2     1  UNL1       -0.2916
      3 C          -9.1116  -17.9002   22.8211 C.2     1  UNL1        0.0193
      4 C          -9.0540  -18.9482   23.8927 C.2     1  UNL1        0.0301
      5 C         -10.3040  -19.3467   24.6200 C.2     1  UNL1        0.1571
      6 F         -10.2463  -20.3948   25.6916 F       1  UNL1       -0.2026
      7 C         -11.6115  -18.6972   24.2757 C.2     1  UNL1        0.1050
      8 N         -12.9979  -18.8832   24.8171 N.2     1  UNL1       -0.2419
      9 C         -13.9123  -17.9501   24.0801 C.2     1  UNL1        0.0986
     10 C         -13.0911  -17.1874   23.0832 C.2     1  UNL1        0.0183
     11 C         -11.6690  -17.6491   23.2041 C.2     1  UNL1        0.0037
     12 C         -10.4191  -17.2507   22.4768 C.3     1  UNL1        0.0572
     13 C          -6.6950  -18.4427   22.0365 C.3     1  UNL1        0.0982
     14 C          -5.7211  -19.5599   21.8056 C.3     1  UNL1        0.0281
     15 C          -4.4410  -19.2108   22.5050 C.3     1  UNL1        0.0691
     16 N          -4.6237  -17.8779   23.1682 N.3     1  UNL1       -0.2970
     17 C          -6.0167  -17.4031   22.8786 C.3     1  UNL1        0.0783
     18 H          -3.9467  -17.2111   22.7974 H       1  UNL1        0.1233
     19 C          -7.6172  -19.2855   21.2063 C.3     1  UNL1        0.1506
     20 O          -7.6258  -19.1404   19.7133 O.3     1  UNL1       -0.3533
     21 C         -10.1746  -19.6171   19.5513 C.3     1  UNL1        0.0346
     22 C          -8.8132  -19.6023   18.9217 C.3     1  UNL1        0.1423
@<TRIPOS>BOND
     1    21    22    1
     2    22    20    1
     3    20    19    1
     4    19    13    1
     5    13     1    1
     6     1     2    2
     7     1     3    1
     8     3     4    2
     9     4     5    1
    10     5     6    1
    11     5     7    2
    12     7     8    1
    13     8     9    2
    14     9    10    1
    15    10    11    2
    16    11    12    1
    17    13    14    1
    18    14    15    1
    19    15    16    1
    20    16    17    1
    21    17    13    1
    22    12     3    1
    23    11     7    1
    24    16    18    1
@<TRIPOS>MOLECULE
*****
 22 24 0 0 0
SMALL
GASTEIGER

@<TRIPOS>ATOM
      1 C          -8.4677  -17.6732   22.2051 C.2     1  UNL1        0.1724
      2 O          -8.8780  -16.4662   21.4148 O.2     1  UNL1       -0.2916
      3 C          -7.2299  -18.4318   21.8275 C.2     1  UNL1        0.0193
      4 C          -7.3290  -19.6305   20.9314 C.2     1  UNL1        0.0301
      5 C          -6.0912  -20.3891   20.5538 C.2     1  UNL1        0.1571
      6 F          -6.1903  -21.5879   19.6577 F       1  UNL1       -0.2026
      7 C          -4.7543  -19.9487   21.0724 C.2     1  UNL1        0.1050
      8 N          -3.3712  -20.4939   20.8729 N.2     1  UNL1       -0.2419
      9 C          -2.4174  -19.6321   21.6458 C.2     1  UNL1        0.0986
     10 C          -3.2110  -18.5542   22.3229 C.2     1  UNL1        0.0183
     11 C          -4.6553  -18.7499   21.9685 C.2     1  UNL1        0.0037
     12 C          -5.8931  -17.9914   22.3461 C.3     1  UNL1        0.0572
     13 C          -9.2952  -18.1218   23.3730 C.3     1  UNL1        0.0982
     14 C          -9.9451  -18.3686   24.7022 C.3     1  UNL1        0.0281
     15 C         -11.0234  -19.3931   24.5079 C.3     1  UNL1        0.0691
     16 N         -11.0399  -19.7794   23.0586 N.3     1  UNL1       -0.2970
     17 C          -9.9719  -18.9938   22.3572 C.3     1  UNL1        0.0783
     18 H         -11.9508  -19.5639   22.6533 H       1  UNL1        0.1233
     19 C          -8.4456  -17.1561   24.1446 C.3     1  UNL1        0.1506
     20 O          -9.0911  -16.0849   24.9728 O.3     1  UNL1       -0.3533
     21 C          -8.2473  -16.0541   27.4298 C.3     1  UNL1        0.0346
     22 C          -8.3184  -15.4192   26.0726 C.3     1  UNL1        0.1423
@<TRIPOS>BOND
     1    21    22    1
     2    22    20    1
     3    20    19    1
     4    19    13    1
     5    13     1    1
     6     1     2    2
     7     1     3    1
     8     3     4    2
     9     4     5    1
    10     5     6    1
    11     5     7    2
    12     7     8    1
    13     8     9    2
    14     9    10    1
    15    10    11    2
    16    11    12    1
    17    13    14    1
    18    14    15    1
    19    15    16    1
    20    16    17    1
    21    17    13    1
    22    12     3    1
    23    11     7    1
    24    16    18    1
@<TRIPOS>MOLECULE
*****
 22 24 0 0 0
SMALL
GASTEIGER

@<TRIPOS>ATOM
      1 C          -9.1717  -17.1199   22.4914 C.2     1  UNL1        0.1724
      2 O          -9.7269  -15.9510   21.7331 O.2     1  UNL1       -0.2916
      3 C          -7.6923  -17.2379   22.7100 C.2     1  UNL1        0.0193
      4 C          -6.9706  -16.2085   23.5280 C.2     1  UNL1        0.0301
      5 C          -5.4912  -16.3265   23.7465 C.2     1  UNL1        0.1571
      6 F          -4.7695  -15.2970   24.5647 F       1  UNL1       -0.2026
      7 C          -4.7338  -17.4740   23.1469 C.2     1  UNL1        0.1050
      8 N          -3.2825  -17.8507   23.1905 N.2     1  UNL1       -0.2419
      9 C          -3.1074  -19.1130   22.3993 C.2     1  UNL1        0.0986
     10 C          -4.4504  -19.5164   21.8667 C.2     1  UNL1        0.0183
     11 C          -5.4556  -18.5034   22.3288 C.2     1  UNL1        0.0037
     12 C          -6.9349  -18.3853   22.1103 C.3     1  UNL1        0.0572
     13 C         -10.0957  -18.1709   23.0314 C.3     1  UNL1        0.0982
     14 C         -11.1087  -19.2507   23.2721 C.3     1  UNL1        0.0281
     15 C         -11.1159  -19.5607   24.7397 C.3     1  UNL1        0.0691
     16 N         -10.1074  -18.6725   25.4060 N.3     1  UNL1       -0.2970
     17 C          -9.4769  -17.8136   24.3503 C.3     1  UNL1        0.0783
     18 H          -9.3935  -19.2407   25.8619 H       1  UNL1        0.1233
     19 C         -10.5214  -18.3085   21.5997 C.3     1  UNL1        0.1506
     20 O         -10.3452  -19.6167   20.8873 O.3     1  UNL1       -0.3533
     21 C          -8.5139  -19.7470   19.0489 C.3     1  UNL1        0.0346
     22 C          -9.9582  -19.6354   19.4381 C.3     1  UNL1        0.1423
@<TRIPOS>BOND
     1    21    22    1
     2    22    20    1
     3    20    19    1
     4    19    13    1
     5    13     1    1
     6     1     2    2
     7     1     3    1
     8     3     4    2
     9     4     5    1
    10     5     6    1
    11     5     7    2
    12     7     8    1
    13     8     9    2
    14     9    10    1
    15    10    11    2
    16    11    12    1
    17    13    14    1
    18    14    15    1
    19    15    16    1
    20    16    17    1
    21    17    13    1
    22    12     3    1
    23    11     7    1
    24    16    18    1
@<TRIPOS>MOLECULE
*****
 22 24 0 0 0
SMALL
GASTEIGER

@<TRIPOS>ATOM
      1 C         -12.3913   -6.1638   17.4765 C.2     1  UNL1        0.1724
      2 O         -12.3640   -5.5738   16.0978 O.2     1  UNL1       -0.2916
      3 C         -13.7031   -6.4896   18.1272 C.2     1  UNL1        0.0193
      4 C         -14.5013   -5.4061   18.7895 C.2     1  UNL1        0.0301
      5 C         -15.8130   -5.7318   19.4401 C.2     1  UNL1        0.1571
      6 F         -16.6113   -4.6482   20.1025 F       1  UNL1       -0.2026
      7 C         -16.3265   -7.1412   19.4284 C.2     1  UNL1        0.1050
      8 N         -17.5753   -7.7591   19.9838 N.2     1  UNL1       -0.2419
      9 C         -17.5489   -9.2245   19.6647 C.2     1  UNL1        0.0986
     10 C         -16.2837   -9.5123   18.9121 C.2     1  UNL1        0.0183
     11 C         -15.5282   -8.2247   18.7660 C.2     1  UNL1        0.0037
     12 C         -14.2165   -7.8989   18.1154 C.3     1  UNL1        0.0572
     13 C         -11.1069   -6.4281   18.2048 C.3     1  UNL1        0.0982
     14 C          -9.8684   -6.4055   19.0509 C.3     1  UNL1        0.0281
     15 C          -9.1514   -7.7088   18.8579 C.3     1  UNL1        0.0691
     16 N          -9.9466   -8.5368   17.8926 N.3     1  UNL1       -0.2970
     17 C         -11.1552   -7.7454   17.4889 C.3     1  UNL1        0.0783
     18 H         -10.2361   -9.4068   18.3395 H       1  UNL1        0.1233
     19 C         -11.3271   -5.0556   18.7685 C.3     1  UNL1        0.1506
     20 O         -10.2550   -4.0137   18.6461 O.3     1  UNL1       -0.3533
     21 C          -9.0254   -3.8977   16.3604 C.3     1  UNL1        0.0346
     22 C         -10.0187   -3.3314   17.3313 C.3     1  UNL1        0.1423
@<TRIPOS>BOND
     1    21    22    1
     2    22    20    1
     3    20    19    1
     4    19    13    1
     5    13     1    1
     6     1     2    2
     7     1     3    1
     8     3     4    2
     9     4     5    1
    10     5     6    1
    11     5     7    2
    12     7     8    1
    13     8     9    2
    14     9    10    1
    15    10    11    2
    16    11    12    1
    17    13    14    1
    18    14    15    1
    19    15    16    1
    20    16    17    1
    21    17    13    1
    22    12     3    1
    23    11     7    1
    24    16    18    1
@<TRIPOS>MOLECULE
*****
 22 24 0 0 0
SMALL
GASTEIGER

@<TRIPOS>ATOM
      1 C          -5.9814  -19.9128   21.2354 C.2     1  UNL1        0.1724
      2 O          -5.9974  -21.3024   20.6710 O.2     1  UNL1       -0.2916
      3 C          -7.2387  -19.3161   21.7951 C.2     1  UNL1        0.0193
      4 C          -7.6820  -17.9523   21.3554 C.2     1  UNL1        0.0301
      5 C          -8.9393  -17.3555   21.9151 C.2     1  UNL1        0.1571
      6 F          -9.3826  -15.9916   21.4753 F       1  UNL1       -0.2026
      7 C          -9.7532  -18.1227   22.9146 C.2     1  UNL1        0.1050
      8 N         -11.0275  -17.7949   23.6348 N.2     1  UNL1       -0.2419
      9 C         -11.3717  -18.9562   24.5196 C.2     1  UNL1        0.0986
     10 C         -10.3102  -20.0017   24.3463 C.2     1  UNL1        0.0183
     11 C          -9.3099  -19.4866   23.3543 C.2     1  UNL1        0.0037
     12 C          -8.0527  -20.0833   22.7945 C.3     1  UNL1        0.0572
     13 C          -4.7082  -19.1198   21.2402 C.3     1  UNL1        0.0982
     14 C          -3.5296  -18.2384   21.5305 C.3     1  UNL1        0.0281
     15 C          -2.6144  -18.2823   20.3430 C.3     1  UNL1        0.0691
     16 N          -3.2272  -19.1908   19.3187 N.3     1  UNL1       -0.2970
     17 C          -4.5212  -19.7084   19.8732 C.3     1  UNL1        0.0783
     18 H          -2.5972  -19.9694   19.1256 H       1  UNL1        0.1233
     19 C          -5.1613  -18.6970   22.6061 C.3     1  UNL1        0.1506
     20 O          -4.6879  -17.3963   23.1842 O.3     1  UNL1       -0.3533
     21 C          -5.3075  -15.6576   25.0125 C.3     1  UNL1        0.0346
     22 C          -5.6741  -16.4399   23.7863 C.3     1  UNL1        0.1423
@<TRIPOS>BOND
     1    21    22    1
     2    22    20    1
     3    20    19    1
     4    19    13    1
     5    13     1    1
     6     1     2    2
     7     1     3    1
     8     3     4    2
     9     4     5    1
    10     5     6    1
    11     5     7    2
    12     7     8    1
    13     8     9    2
    14     9    10    1
    15    10    11    2
    16    11    12    1
    17    13    14    1
    18    14    15    1
    19    15    16    1
    20    16    17    1
    21    17    13    1
    22    12     3    1
    23    11     7    1
    24    16    18    1
@<TRIPOS>MOLECULE
*****
 22 24 0 0 0
SMALL
GASTEIGER

@<TRIPOS>ATOM
      1 C         -12.9722   -6.6650   17.5591 C.2     1  UNL1        0.1724
      2 O         -13.0986   -5.7083   16.4109 O.2     1  UNL1       -0.2916
      3 C         -14.1636   -7.4568   18.0103 C.2     1  UNL1        0.0193
      4 C         -14.2318   -8.9302   17.7380 C.2     1  UNL1        0.0301
      5 C         -15.4233   -9.7220   18.1892 C.2     1  UNL1        0.1571
      6 F         -15.4915  -11.1956   17.9169 F       1  UNL1       -0.2026
      7 C         -16.5465   -9.0402   18.9128 C.2     1  UNL1        0.1050
      8 N         -17.8386   -9.5560   19.4737 N.2     1  UNL1       -0.2419
      9 C         -18.5689   -8.4012   20.0926 C.2     1  UNL1        0.0986
     10 C         -17.7282   -7.1718   19.9143 C.2     1  UNL1        0.0183
     11 C         -16.4783   -7.5667   19.1851 C.2     1  UNL1        0.0037
     12 C         -15.2869   -6.7750   18.7339 C.3     1  UNL1        0.0572
     13 C         -11.6543   -6.8301   18.2563 C.3     1  UNL1        0.0982
     14 C         -10.4488   -6.7760   19.1474 C.3     1  UNL1        0.0281
     15 C          -9.4415   -7.7566   18.6244 C.3     1  UNL1        0.0691
     16 N         -10.0243   -8.4167   17.4101 N.3     1  UNL1       -0.2970
     17 C         -11.3919   -7.8442   17.1826 C.3     1  UNL1        0.0783
     18 H         -10.0912   -9.4231   17.5619 H       1  UNL1        0.1233
     19 C         -12.1923   -5.7815   19.1842 C.3     1  UNL1        0.1506
     20 O         -11.6909   -4.3707   19.0931 O.3     1  UNL1       -0.3533
     21 C         -13.6645   -3.4399   20.5032 C.3     1  UNL1        0.0346
     22 C         -12.5838   -3.2307   19.4842 C.3     1  UNL1        0.1423
@<TRIPOS>BOND
     1    21    22    1
     2    22    20    1
     3    20    19    1
     4    19    13    1
     5    13     1    1
     6     1     2    2
     7     1     3    1
     8     3     4    2
     9     4     5    1
    10     5     6    1
    11     5     7    2
    12     7     8    1
    13     8     9    2
    14     9    10    1
    15    10    11    2
    16    11    12    1
    17    13    14    1
    18    14    15    1
    19    15    16    1
    20    16    17    1
    21    17    13    1
    22    12     3    1
    23    11     7    1
    24    16    18    1
