@<TRIPOS>MOLECULE
*****
 12 13 0 0 0
SMALL
GASTEIGER

@<TRIPOS>ATOM
      1 C         -10.3564  -19.1779   24.9799 C.3     1  UNL1        0.0316
      2 C         -11.0103  -18.2196   24.0292 C.ar    1  UNL1       -0.0153
      3 C         -12.4137  -18.3142   23.5082 C.ar    1  UNL1        0.0032
      4 C         -12.6465  -17.1515   22.5894 C.ar    1  UNL1        0.0351
      5 S         -11.3869  -16.3384   22.5427 S.2     1  UNL1       -0.0867
      6 C         -10.3757  -16.9985   23.4325 C.ar    1  UNL1        0.0270
      7 C          -8.9756  -16.5212   23.6818 C.ar    1  UNL1        0.0249
      8 C          -8.6808  -15.6466   24.8641 C.ar    1  UNL1        0.0036
      9 C          -7.2807  -15.1694   25.1134 C.ar    1  UNL1        0.0207
     10 C          -6.1756  -15.5668   24.1803 C.ar    1  UNL1        0.0989
     11 N          -6.4704  -16.4415   22.9979 N.ar    1  UNL1       -0.2423
     12 C          -7.8704  -16.9187   22.7487 C.ar    1  UNL1        0.0993
@<TRIPOS>BOND
     1     1     2    1
     2     2     3   ar
     3     3     4   ar
     4     4     5   ar
     5     5     6   ar
     6     6     7    1
     7     7     8   ar
     8     8     9   ar
     9     9    10   ar
    10    10    11   ar
    11    11    12   ar
    12     6     2   ar
    13    12     7   ar
@<TRIPOS>MOLECULE
*****
 12 13 0 0 0
SMALL
GASTEIGER

@<TRIPOS>ATOM
      1 C         -12.5507  -16.8199   20.9382 C.3     1  UNL1        0.0316
      2 C         -12.2597  -17.6346   22.1635 C.ar    1  UNL1       -0.0153
      3 C         -13.0612  -17.6372   23.4314 C.ar    1  UNL1        0.0032
      4 C         -12.4130  -18.5940   24.3877 C.ar    1  UNL1        0.0351
      5 S         -11.2109  -19.1828   23.7108 S.2     1  UNL1       -0.0867
      6 C         -11.1161  -18.5899   22.3362 C.ar    1  UNL1        0.0270
      7 C         -10.0627  -18.8981   21.3137 C.ar    1  UNL1        0.0249
      8 C         -10.4162  -19.6842   20.0861 C.ar    1  UNL1        0.0036
      9 C          -9.3628  -19.9924   19.0637 C.ar    1  UNL1        0.0207
     10 C          -7.9559  -19.5145   19.2690 C.ar    1  UNL1        0.0989
     11 N          -7.6023  -18.7285   20.4966 N.ar    1  UNL1       -0.2423
     12 C          -8.6557  -18.4203   21.5189 C.ar    1  UNL1        0.0993
@<TRIPOS>BOND
     1     1     2    1
     2     2     3   ar
     3     3     4   ar
     4     4     5   ar
     5     5     6   ar
     6     6     7    1
     7     7     8   ar
     8     8     9   ar
     9     9    10   ar
    10    10    11   ar
    11    11    12   ar
    12     6     2   ar
    13    12     7   ar
@<TRIPOS>MOLECULE
*****
 12 13 0 0 0
SMALL
GASTEIGER

@<TRIPOS>ATOM
      1 C          -9.4258  -20.3109   24.0446 C.3     1  UNL1        0.0316
      2 C         -10.0234  -19.5960   22.8692 C.ar    1  UNL1       -0.0153
      3 C         -10.9916  -20.1781   21.8824 C.ar    1  UNL1        0.0032
      4 C         -11.3244  -19.1154   20.8774 C.ar    1  UNL1        0.0351
      5 S         -10.5619  -17.8765   21.2432 S.2     1  UNL1       -0.0867
      6 C          -9.7579  -18.1736   22.4741 C.ar    1  UNL1        0.0270
      7 C          -8.8480  -17.2162   23.1852 C.ar    1  UNL1        0.0249
      8 C          -9.3682  -16.3953   24.3277 C.ar    1  UNL1        0.0036
      9 C          -8.4583  -15.4379   25.0388 C.ar    1  UNL1        0.0207
     10 C          -7.0282  -15.3015   24.6072 C.ar    1  UNL1        0.0989
     11 N          -6.5080  -16.1224   23.4647 N.ar    1  UNL1       -0.2423
     12 C          -7.4179  -17.0797   22.7537 C.ar    1  UNL1        0.0993
@<TRIPOS>BOND
     1     1     2    1
     2     2     3   ar
     3     3     4   ar
     4     4     5   ar
     5     5     6   ar
     6     6     7    1
     7     7     8   ar
     8     8     9   ar
     9     9    10   ar
    10    10    11   ar
    11    11    12   ar
    12     6     2   ar
    13    12     7   ar
@<TRIPOS>MOLECULE
*****
 12 13 0 0 0
SMALL
GASTEIGER

@<TRIPOS>ATOM
      1 C          -8.4448  -15.6127   27.0440 C.3     1  UNL1        0.0316
      2 C          -7.6218  -15.7045   25.7933 C.ar    1  UNL1       -0.0153
      3 C          -6.2269  -15.1822   25.6155 C.ar    1  UNL1        0.0032
      4 C          -5.7921  -15.4896   24.2131 C.ar    1  UNL1        0.0351
      5 S          -6.9183  -16.2017   23.5243 S.2     1  UNL1       -0.0867
      6 C          -8.0491  -16.3346   24.5009 C.ar    1  UNL1        0.0270
      7 C          -9.3745  -16.9836   24.2323 C.ar    1  UNL1        0.0249
      8 C          -9.7428  -18.2562   24.9357 C.ar    1  UNL1        0.0036
      9 C         -11.0682  -18.9051   24.6670 C.ar    1  UNL1        0.0207
     10 C         -12.0253  -18.2814   23.6949 C.ar    1  UNL1        0.0989
     11 N         -11.6570  -17.0089   22.9914 N.ar    1  UNL1       -0.2423
     12 C         -10.3316  -16.3599   23.2601 C.ar    1  UNL1        0.0993
@<TRIPOS>BOND
     1     1     2    1
     2     2     3   ar
     3     3     4   ar
     4     4     5   ar
     5     5     6   ar
     6     6     7    1
     7     7     8   ar
     8     8     9   ar
     9     9    10   ar
    10    10    11   ar
    11    11    12   ar
    12     6     2   ar
    13    12     7   ar
@<TRIPOS>MOLECULE
*****
 12 13 0 0 0
SMALL
GASTEIGER

@<TRIPOS>ATOM
      1 C          -9.6006  -20.0688   24.1981 C.3     1  UNL1        0.0316
      2 C          -9.8063  -19.8143   22.7342 C.ar    1  UNL1       -0.0153
      3 C         -11.0738  -20.0511   21.9678 C.ar    1  UNL1        0.0032
      4 C         -10.8316  -19.6615   20.5396 C.ar    1  UNL1        0.0351
      5 S          -9.4144  -19.1840   20.4234 S.2     1  UNL1       -0.0867
      6 C          -8.7807  -19.2785   21.7798 C.ar    1  UNL1        0.0270
      7 C          -7.3692  -18.9029   22.1216 C.ar    1  UNL1        0.0249
      8 C          -6.2601  -19.8924   21.9199 C.ar    1  UNL1        0.0036
      9 C          -4.8487  -19.5168   22.2618 C.ar    1  UNL1        0.0207
     10 C          -4.5465  -18.1518   22.8052 C.ar    1  UNL1        0.0989
     11 N          -5.6556  -17.1624   23.0069 N.ar    1  UNL1       -0.2423
     12 C          -7.0670  -17.5379   22.6651 C.ar    1  UNL1        0.0993
@<TRIPOS>BOND
     1     1     2    1
     2     2     3   ar
     3     3     4   ar
     4     4     5   ar
     5     5     6   ar
     6     6     7    1
     7     7     8   ar
     8     8     9   ar
     9     9    10   ar
    10    10    11   ar
    11    11    12   ar
    12     6     2   ar
    13    12     7   ar
@<TRIPOS>MOLECULE
*****
 12 13 0 0 0
SMALL
GASTEIGER

@<TRIPOS>ATOM
      1 C         -13.0291  -17.7895   23.5176 C.3     1  UNL1        0.0316
      2 C         -11.9427  -17.8690   22.4865 C.ar    1  UNL1       -0.0153
      3 C         -12.1289  -18.1861   21.0323 C.ar    1  UNL1        0.0032
      4 C         -10.7806  -18.1585   20.3754 C.ar    1  UNL1        0.0351
      5 S          -9.7611  -17.8244   21.4238 S.2     1  UNL1       -0.0867
      6 C         -10.4793  -17.6454   22.7285 C.ar    1  UNL1        0.0270
      7 C          -9.8454  -17.3030   24.0442 C.ar    1  UNL1        0.0249
      8 C          -9.2452  -15.9449   24.2566 C.ar    1  UNL1        0.0036
      9 C          -8.6113  -15.6026   25.5723 C.ar    1  UNL1        0.0207
     10 C          -8.5777  -16.6184   26.6755 C.ar    1  UNL1        0.0989
     11 N          -9.1780  -17.9765   26.4630 N.ar    1  UNL1       -0.2423
     12 C          -9.8118  -18.3188   25.1474 C.ar    1  UNL1        0.0993
@<TRIPOS>BOND
     1     1     2    1
     2     2     3   ar
     3     3     4   ar
     4     4     5   ar
     5     5     6   ar
     6     6     7    1
     7     7     8   ar
     8     8     9   ar
     9     9    10   ar
    10    10    11   ar
    11    11    12   ar
    12     6     2   ar
    13    12     7   ar
@<TRIPOS>MOLECULE
*****
 12 13 0 0 0
SMALL
GASTEIGER

@<TRIPOS>ATOM
      1 C         -10.1910  -19.2083   25.1329 C.3     1  UNL1        0.0316
      2 C          -9.5607  -17.8528   25.2562 C.ar    1  UNL1       -0.0153
      3 C          -8.8259  -17.3278   26.4539 C.ar    1  UNL1        0.0032
      4 C          -8.3655  -15.9348   26.1414 C.ar    1  UNL1        0.0351
      5 S          -8.8158  -15.5988   24.7506 S.2     1  UNL1       -0.0867
      6 C          -9.5545  -16.7842   24.2035 C.ar    1  UNL1        0.0270
      7 C         -10.1776  -16.8835   22.8426 C.ar    1  UNL1        0.0249
      8 C         -11.5435  -16.3134   22.5997 C.ar    1  UNL1        0.0036
      9 C         -12.1665  -16.4127   21.2388 C.ar    1  UNL1        0.0207
     10 C         -11.4236  -17.0823   20.1209 C.ar    1  UNL1        0.0989
     11 N         -10.0576  -17.6524   20.3638 N.ar    1  UNL1       -0.2423
     12 C          -9.4346  -17.5531   21.7247 C.ar    1  UNL1        0.0993
@<TRIPOS>BOND
     1     1     2    1
     2     2     3   ar
     3     3     4   ar
     4     4     5   ar
     5     5     6   ar
     6     6     7    1
     7     7     8   ar
     8     8     9   ar
     9     9    10   ar
    10    10    11   ar
    11    11    12   ar
    12     6     2   ar
    13    12     7   ar
@<TRIPOS>MOLECULE
*****
 12 13 0 0 0
SMALL
GASTEIGER

@<TRIPOS>ATOM
      1 C          -7.6069  -17.9554   22.0041 C.3     1  UNL1        0.0316
      2 C          -7.6015  -16.9384   23.1065 C.ar    1  UNL1       -0.0153
      3 C          -6.4079  -16.1699   23.5912 C.ar    1  UNL1        0.0032
      4 C          -6.8573  -15.2677   24.7022 C.ar    1  UNL1        0.0351
      5 S          -8.3286  -15.4787   24.9041 S.2     1  UNL1       -0.0867
      6 C          -8.7885  -16.5112   23.9179 C.ar    1  UNL1        0.0270
      7 C         -10.1896  -17.0260   23.7692 C.ar    1  UNL1        0.0249
      8 C         -11.1551  -16.3220   22.8626 C.ar    1  UNL1        0.0036
      9 C         -12.5561  -16.8369   22.7139 C.ar    1  UNL1        0.0207
     10 C         -12.9915  -18.0558   23.4720 C.ar    1  UNL1        0.0989
     11 N         -12.0260  -18.7598   24.3787 N.ar    1  UNL1       -0.2423
     12 C         -10.6251  -18.2449   24.5273 C.ar    1  UNL1        0.0993
@<TRIPOS>BOND
     1     1     2    1
     2     2     3   ar
     3     3     4   ar
     4     4     5   ar
     5     5     6   ar
     6     6     7    1
     7     7     8   ar
     8     8     9   ar
     9     9    10   ar
    10    10    11   ar
    11    11    12   ar
    12     6     2   ar
    13    12     7   ar
@<TRIPOS>MOLECULE
*****
 12 13 0 0 0
SMALL
GASTEIGER

@<TRIPOS>ATOM
      1 C         -11.2417  -16.1781   21.4700 C.3     1  UNL1        0.0316
      2 C         -10.8848  -17.5807   21.8642 C.ar    1  UNL1       -0.0153
      3 C         -11.6108  -18.8254   21.4475 C.ar    1  UNL1        0.0032
      4 C         -10.9140  -19.9989   22.0701 C.ar    1  UNL1        0.0351
      5 S          -9.7574  -19.4793   22.8715 S.2     1  UNL1       -0.0867
      6 C          -9.7393  -17.9848   22.7442 C.ar    1  UNL1        0.0270
      7 C          -8.7495  -17.0573   23.3846 C.ar    1  UNL1        0.0249
      8 C          -9.1467  -16.2484   24.5837 C.ar    1  UNL1        0.0036
      9 C          -8.1569  -15.3210   25.2241 C.ar    1  UNL1        0.0207
     10 C          -6.7699  -15.2024   24.6653 C.ar    1  UNL1        0.0989
     11 N          -6.3727  -16.0113   23.4662 N.ar    1  UNL1       -0.2423
     12 C          -7.3625  -16.9388   22.8259 C.ar    1  UNL1        0.0993
@<TRIPOS>BOND
     1     1     2    1
     2     2     3   ar
     3     3     4   ar
     4     4     5   ar
     5     5     6   ar
     6     6     7    1
     7     7     8   ar
     8     8     9   ar
     9     9    10   ar
    10    10    11   ar
    11    11    12   ar
    12     6     2   ar
    13    12     7   ar
