@<TRIPOS>MOLECULE
*****
 24 26 0 0 0
SMALL
GASTEIGER

@<TRIPOS>ATOM
      1 N          -8.6157  -15.8846   23.5283 N.3     1  UNL1       -0.3206
      2 C          -7.9870  -17.1653   23.0651 C.3     1  UNL1        0.0750
      3 C          -6.5146  -17.2195   22.7845 C.3     1  UNL1        0.1079
      4 N          -5.8859  -18.5002   22.3213 N.pl3   1  UNL1       -0.2918
      5 C          -6.7298  -19.7268   22.1388 C.3     1  UNL1        0.0926
      6 C          -8.2022  -19.6727   22.4194 C.3     1  UNL1        0.0273
      7 C          -8.8309  -18.3919   22.8826 C.3     1  UNL1        0.0422
      8 H          -7.9008  -15.1603   23.5970 H       1  UNL1        0.1189
      9 H          -9.0440  -16.0274   24.4430 H       1  UNL1        0.1189
     10 C         -10.3035  -18.3378   23.1633 C.ar    1  UNL1        0.0087
     11 C         -11.2590  -17.9327   22.0803 C.ar    1  UNL1        0.0300
     12 C         -12.7314  -17.8786   22.3609 C.ar    1  UNL1        0.1672
     13 F         -13.6869  -17.4734   21.2779 F       1  UNL1       -0.2018
     14 C         -13.2485  -18.2296   23.7245 C.ar    1  UNL1        0.1696
     15 F         -14.7210  -18.1755   24.0051 F       1  UNL1       -0.2017
     16 C         -12.2930  -18.6348   24.8075 C.ar    1  UNL1        0.0612
     17 C         -10.8204  -18.6889   24.5269 C.ar    1  UNL1        0.1386
     18 F          -9.8649  -19.0940   25.6099 F       1  UNL1       -0.2044
     19 C          -4.4134  -18.5543   22.0406 C.ar    1  UNL1        0.1351
     20 C          -3.8144  -19.7765   21.4101 C.ar    1  UNL1        0.0550
     21 C          -2.3420  -19.8306   21.1295 C.ar    1  UNL1        0.1036
     22 N          -1.4683  -18.6625   21.4793 N.ar    1  UNL1       -0.2223
     23 C          -2.0672  -17.4403   22.1098 C.ar    1  UNL1        0.2001
     24 N          -3.5398  -17.3862   22.3905 N.ar    1  UNL1       -0.2090
@<TRIPOS>BOND
     1     2     1    1
     2     2     3    1
     3     3     4    1
     4     4    19    1
     5    19    20   ar
     6    20    21   ar
     7    21    22   ar
     8    22    23   ar
     9    23    24   ar
    10     4     5    1
    11     5     6    1
    12     6     7    1
    13     7    10    1
    14    10    11   ar
    15    11    12   ar
    16    12    13    1
    17    12    14   ar
    18    14    15    1
    19    14    16   ar
    20    16    17   ar
    21    17    18    1
    22     7     2    1
    23    17    10   ar
    24    24    19   ar
    25     1     8    1
    26     1     9    1
@<TRIPOS>MOLECULE
*****
 24 26 0 0 0
SMALL
GASTEIGER

@<TRIPOS>ATOM
      1 N          -8.7269  -15.9144   23.4199 N.3     1  UNL1       -0.3206
      2 C          -8.1151  -17.2167   22.9959 C.3     1  UNL1        0.0750
      3 C          -6.6320  -17.3188   22.7962 C.3     1  UNL1        0.1079
      4 N          -6.0202  -18.6211   22.3723 N.pl3   1  UNL1       -0.2918
      5 C          -6.8915  -19.8213   22.1480 C.3     1  UNL1        0.0926
      6 C          -8.3747  -19.7192   22.3476 C.3     1  UNL1        0.0273
      7 C          -8.9864  -18.4169   22.7716 C.3     1  UNL1        0.0422
      8 H          -7.9941  -15.2128   23.5251 H       1  UNL1        0.1189
      9 H          -9.2087  -16.0390   24.3102 H       1  UNL1        0.1189
     10 C         -10.4696  -18.3148   22.9713 C.ar    1  UNL1        0.0087
     11 C         -11.0722  -18.6531   24.3026 C.ar    1  UNL1        0.0300
     12 C         -12.5553  -18.5510   24.5023 C.ar    1  UNL1        0.1672
     13 F         -13.1579  -18.8894   25.8337 F       1  UNL1       -0.2018
     14 C         -13.4359  -18.1106   23.3707 C.ar    1  UNL1        0.1696
     15 F         -14.9190  -18.0086   23.5704 F       1  UNL1       -0.2017
     16 C         -12.8334  -17.7723   22.0393 C.ar    1  UNL1        0.0612
     17 C         -11.3502  -17.8744   21.8396 C.ar    1  UNL1        0.1386
     18 F         -10.7476  -17.5361   20.5083 F       1  UNL1       -0.2044
     19 C          -4.5370  -18.7232   22.1726 C.ar    1  UNL1        0.1351
     20 C          -3.6122  -17.8396   22.9562 C.ar    1  UNL1        0.0550
     21 C          -2.1291  -17.9417   22.7566 C.ar    1  UNL1        0.1036
     22 N          -1.5707  -18.9273   21.7733 N.ar    1  UNL1       -0.2223
     23 C          -2.4955  -19.8109   20.9897 C.ar    1  UNL1        0.2001
     24 N          -3.9787  -19.7088   21.1894 N.ar    1  UNL1       -0.2090
@<TRIPOS>BOND
     1     2     1    1
     2     2     3    1
     3     3     4    1
     4     4    19    1
     5    19    20   ar
     6    20    21   ar
     7    21    22   ar
     8    22    23   ar
     9    23    24   ar
    10     4     5    1
    11     5     6    1
    12     6     7    1
    13     7    10    1
    14    10    11   ar
    15    11    12   ar
    16    12    13    1
    17    12    14   ar
    18    14    15    1
    19    14    16   ar
    20    16    17   ar
    21    17    18    1
    22     7     2    1
    23    17    10   ar
    24    24    19   ar
    25     1     8    1
    26     1     9    1
@<TRIPOS>MOLECULE
*****
 24 26 0 0 0
SMALL
GASTEIGER

@<TRIPOS>ATOM
      1 N          -8.9949  -19.3587   19.8402 N.3     1  UNL1       -0.3206
      2 C          -7.8805  -18.9199   20.7434 C.3     1  UNL1        0.0750
      3 C          -6.4565  -19.0281   20.2845 C.3     1  UNL1        0.1079
      4 N          -5.3421  -18.5893   21.1876 N.pl3   1  UNL1       -0.2918
      5 C          -5.6517  -18.0424   22.5496 C.3     1  UNL1        0.0926
      6 C          -7.0757  -17.9342   23.0084 C.3     1  UNL1        0.0273
      7 C          -8.1901  -18.3730   22.1053 C.3     1  UNL1        0.0422
      8 H          -8.6058  -19.7006   18.9616 H       1  UNL1        0.1189
      9 H          -9.6126  -18.5687   19.6540 H       1  UNL1        0.1189
     10 C          -9.6141  -18.2648   22.5642 C.ar    1  UNL1        0.0087
     11 C         -10.4045  -17.0242   22.2706 C.ar    1  UNL1        0.0300
     12 C         -11.8284  -16.9160   22.7295 C.ar    1  UNL1        0.1672
     13 F         -12.6188  -15.6754   22.4358 F       1  UNL1       -0.2018
     14 C         -12.4621  -18.0484   23.4820 C.ar    1  UNL1        0.1696
     15 F         -13.8860  -17.9402   23.9409 F       1  UNL1       -0.2017
     16 C         -11.6717  -19.2890   23.7757 C.ar    1  UNL1        0.0612
     17 C         -10.2476  -19.3972   23.3168 C.ar    1  UNL1        0.1386
     18 F          -9.4572  -20.6377   23.6104 F       1  UNL1       -0.2044
     19 C          -3.9181  -18.6975   20.7287 C.ar    1  UNL1        0.1351
     20 C          -2.9179  -19.4474   21.5577 C.ar    1  UNL1        0.0550
     21 C          -1.4940  -19.5556   21.0988 C.ar    1  UNL1        0.1036
     22 N          -1.0701  -18.9139   19.8109 N.ar    1  UNL1       -0.2223
     23 C          -2.0703  -18.1640   18.9819 C.ar    1  UNL1        0.2001
     24 N          -3.4944  -18.0558   19.4408 N.ar    1  UNL1       -0.2090
@<TRIPOS>BOND
     1     2     1    1
     2     2     3    1
     3     3     4    1
     4     4    19    1
     5    19    20   ar
     6    20    21   ar
     7    21    22   ar
     8    22    23   ar
     9    23    24   ar
    10     4     5    1
    11     5     6    1
    12     6     7    1
    13     7    10    1
    14    10    11   ar
    15    11    12   ar
    16    12    13    1
    17    12    14   ar
    18    14    15    1
    19    14    16   ar
    20    16    17   ar
    21    17    18    1
    22     7     2    1
    23    17    10   ar
    24    24    19   ar
    25     1     8    1
    26     1     9    1
@<TRIPOS>MOLECULE
*****
 24 26 0 0 0
SMALL
GASTEIGER

@<TRIPOS>ATOM
      1 N          -9.3817  -19.6847   20.1611 N.3     1  UNL1       -0.3206
      2 C          -8.3074  -19.0589   21.0002 C.3     1  UNL1        0.0750
      3 C          -6.8658  -19.2289   20.6221 C.3     1  UNL1        0.1079
      4 N          -5.7915  -18.6030   21.4613 N.pl3   1  UNL1       -0.2918
      5 C          -6.1587  -17.8071   22.6785 C.3     1  UNL1        0.0926
      6 C          -7.6002  -17.6371   23.0566 C.3     1  UNL1        0.0273
      7 C          -8.6746  -18.2630   22.2175 C.3     1  UNL1        0.0422
      8 H          -8.9557  -20.1841   19.3804 H       1  UNL1        0.1189
      9 H         -10.0001  -18.9572   19.8025 H       1  UNL1        0.1189
     10 C         -10.1162  -18.0929   22.5956 C.ar    1  UNL1        0.0087
     11 C         -10.6392  -18.7151   23.8563 C.ar    1  UNL1        0.0300
     12 C         -12.0808  -18.5451   24.2345 C.ar    1  UNL1        0.1672
     13 F         -12.6038  -19.1673   25.4952 F       1  UNL1       -0.2018
     14 C         -12.9993  -17.7529   23.3520 C.ar    1  UNL1        0.1696
     15 F         -14.4408  -17.5829   23.7302 F       1  UNL1       -0.2017
     16 C         -12.4762  -17.1307   22.0913 C.ar    1  UNL1        0.0612
     17 C         -11.0346  -17.3008   21.7132 C.ar    1  UNL1        0.1386
     18 F         -10.5116  -16.6786   20.4525 F       1  UNL1       -0.2044
     19 C          -4.3499  -18.7731   21.0831 C.ar    1  UNL1        0.1351
     20 C          -3.9599  -18.8684   19.6378 C.ar    1  UNL1        0.0550
     21 C          -2.5184  -19.0385   19.2596 C.ar    1  UNL1        0.1036
     22 N          -1.4668  -19.1132   20.3267 N.ar    1  UNL1       -0.2223
     23 C          -1.8568  -19.0178   21.7720 C.ar    1  UNL1        0.2001
     24 N          -3.2984  -18.8477   22.1502 N.ar    1  UNL1       -0.2090
@<TRIPOS>BOND
     1     2     1    1
     2     2     3    1
     3     3     4    1
     4     4    19    1
     5    19    20   ar
     6    20    21   ar
     7    21    22   ar
     8    22    23   ar
     9    23    24   ar
    10     4     5    1
    11     5     6    1
    12     6     7    1
    13     7    10    1
    14    10    11   ar
    15    11    12   ar
    16    12    13    1
    17    12    14   ar
    18    14    15    1
    19    14    16   ar
    20    16    17   ar
    21    17    18    1
    22     7     2    1
    23    17    10   ar
    24    24    19   ar
    25     1     8    1
    26     1     9    1
@<TRIPOS>MOLECULE
*****
 24 26 0 0 0
SMALL
GASTEIGER

@<TRIPOS>ATOM
      1 N          -8.0519  -19.2858   19.7321 N.3     1  UNL1       -0.3206
      2 C          -6.9119  -18.8769   20.6171 C.3     1  UNL1        0.0750
      3 C          -5.5105  -18.8757   20.0826 C.3     1  UNL1        0.1079
      4 N          -4.3705  -18.4668   20.9677 N.pl3   1  UNL1       -0.2918
      5 C          -4.6321  -18.0590   22.3872 C.3     1  UNL1        0.0926
      6 C          -6.0336  -18.0602   22.9218 C.3     1  UNL1        0.0273
      7 C          -7.1735  -18.4691   22.0367 C.3     1  UNL1        0.0422
      8 H          -7.6947  -19.5290   18.8082 H       1  UNL1        0.1189
      9 H          -8.7119  -18.5127   19.6487 H       1  UNL1        0.1189
     10 C          -8.5751  -18.4703   22.5713 C.ar    1  UNL1        0.0087
     11 C          -9.1192  -19.6942   23.2466 C.ar    1  UNL1        0.0300
     12 C         -10.5206  -19.6954   23.7812 C.ar    1  UNL1        0.1672
     13 F         -11.0647  -20.9193   24.4565 F       1  UNL1       -0.2018
     14 C         -11.3781  -18.4726   23.6405 C.ar    1  UNL1        0.1696
     15 F         -12.7796  -18.4738   24.1751 F       1  UNL1       -0.2017
     16 C         -10.8340  -17.2487   22.9652 C.ar    1  UNL1        0.0612
     17 C          -9.4324  -17.2475   22.4306 C.ar    1  UNL1        0.1386
     18 F          -8.8883  -16.0236   21.7553 F       1  UNL1       -0.2044
     19 C          -2.9690  -18.4656   20.4331 C.ar    1  UNL1        0.1351
     20 C          -2.6951  -17.9596   19.0478 C.ar    1  UNL1        0.0550
     21 C          -1.2936  -17.9584   18.5132 C.ar    1  UNL1        0.1036
     22 N          -0.1659  -18.4633   19.3638 N.ar    1  UNL1       -0.2223
     23 C          -0.4398  -18.9693   20.7491 C.ar    1  UNL1        0.2001
     24 N          -1.8414  -18.9705   21.2837 N.ar    1  UNL1       -0.2090
@<TRIPOS>BOND
     1     2     1    1
     2     2     3    1
     3     3     4    1
     4     4    19    1
     5    19    20   ar
     6    20    21   ar
     7    21    22   ar
     8    22    23   ar
     9    23    24   ar
    10     4     5    1
    11     5     6    1
    12     6     7    1
    13     7    10    1
    14    10    11   ar
    15    11    12   ar
    16    12    13    1
    17    12    14   ar
    18    14    15    1
    19    14    16   ar
    20    16    17   ar
    21    17    18    1
    22     7     2    1
    23    17    10   ar
    24    24    19   ar
    25     1     8    1
    26     1     9    1
@<TRIPOS>MOLECULE
*****
 24 26 0 0 0
SMALL
GASTEIGER

@<TRIPOS>ATOM
      1 N          -9.5860   -2.5387   16.4068 N.3     1  UNL1       -0.3206
      2 C         -10.8362   -2.1336   17.1300 C.3     1  UNL1        0.0750
      3 C         -11.3191   -0.7154   17.0565 C.3     1  UNL1        0.1079
      4 N         -12.5692   -0.3103   17.7797 N.pl3   1  UNL1       -0.2918
      5 C         -13.3365   -1.3235   18.5764 C.3     1  UNL1        0.0926
      6 C         -12.8536   -2.7417   18.6500 C.3     1  UNL1        0.0273
      7 C         -11.6034   -3.1467   17.9268 C.3     1  UNL1        0.0422
      8 H          -9.1974   -1.7305   15.9208 H       1  UNL1        0.1189
      9 H          -9.8064   -3.2691   15.7298 H       1  UNL1        0.1189
     10 C         -11.1205   -4.5650   18.0004 C.ar    1  UNL1        0.0087
     11 C         -10.0901   -4.9546   19.0184 C.ar    1  UNL1        0.0300
     12 C          -9.6072   -6.3728   19.0920 C.ar    1  UNL1        0.1672
     13 F          -8.5768   -6.7623   20.1101 F       1  UNL1       -0.2018
     14 C         -10.1547   -7.4015   18.1475 C.ar    1  UNL1        0.1696
     15 F          -9.6718   -8.8197   18.2212 F       1  UNL1       -0.2017
     16 C         -11.1852   -7.0120   17.1295 C.ar    1  UNL1        0.0612
     17 C         -11.6680   -5.5937   17.0559 C.ar    1  UNL1        0.1386
     18 F         -12.6985   -5.2041   16.0378 F       1  UNL1       -0.2044
     19 C         -13.0521    1.1080   17.7061 C.ar    1  UNL1        0.1351
     20 C         -14.3840    1.4779   18.2884 C.ar    1  UNL1        0.0550
     21 C         -14.8670    2.8961   18.2149 C.ar    1  UNL1        0.1036
     22 N         -14.0179    3.9445   17.5590 N.ar    1  UNL1       -0.2223
     23 C         -12.6860    3.5745   16.9766 C.ar    1  UNL1        0.2001
     24 N         -12.2031    2.1562   17.0502 N.ar    1  UNL1       -0.2090
@<TRIPOS>BOND
     1     2     1    1
     2     2     3    1
     3     3     4    1
     4     4    19    1
     5    19    20   ar
     6    20    21   ar
     7    21    22   ar
     8    22    23   ar
     9    23    24   ar
    10     4     5    1
    11     5     6    1
    12     6     7    1
    13     7    10    1
    14    10    11   ar
    15    11    12   ar
    16    12    13    1
    17    12    14   ar
    18    14    15    1
    19    14    16   ar
    20    16    17   ar
    21    17    18    1
    22     7     2    1
    23    17    10   ar
    24    24    19   ar
    25     1     8    1
    26     1     9    1
@<TRIPOS>MOLECULE
*****
 24 26 0 0 0
SMALL
GASTEIGER

@<TRIPOS>ATOM
      1 N         -11.3951   -2.5055   16.8987 N.3     1  UNL1       -0.3206
      2 C         -12.5252   -2.5094   17.8851 C.3     1  UNL1        0.0750
      3 C         -13.3080   -1.2543   18.1336 C.3     1  UNL1        0.1079
      4 N         -14.4381   -1.2581   19.1199 N.pl3   1  UNL1       -0.2918
      5 C         -14.7854   -2.5171   19.8577 C.3     1  UNL1        0.0926
      6 C         -14.0026   -3.7722   19.6092 C.3     1  UNL1        0.0273
      7 C         -12.8725   -3.7683   18.6229 C.3     1  UNL1        0.0422
      8 H         -11.3001   -1.5741   16.4941 H       1  UNL1        0.1189
      9 H         -11.5878   -3.1800   16.1582 H       1  UNL1        0.1189
     10 C         -12.0896   -5.0235   18.3744 C.ar    1  UNL1        0.0087
     11 C         -10.8557   -5.3093   19.1780 C.ar    1  UNL1        0.0300
     12 C         -10.0729   -6.5645   18.9295 C.ar    1  UNL1        0.1672
     13 F          -8.8390   -6.8502   19.7332 F       1  UNL1       -0.2018
     14 C         -10.5239   -7.5339   17.8774 C.ar    1  UNL1        0.1696
     15 F          -9.7411   -8.7890   17.6290 F       1  UNL1       -0.2017
     16 C         -11.7578   -7.2481   17.0738 C.ar    1  UNL1        0.0612
     17 C         -12.5407   -5.9929   17.3223 C.ar    1  UNL1        0.1386
     18 F         -13.7746   -5.7071   16.5187 F       1  UNL1       -0.2044
     19 C         -15.2210   -0.0029   19.3684 C.ar    1  UNL1        0.1351
     20 C         -16.5301   -0.0675   20.0978 C.ar    1  UNL1        0.0550
     21 C         -17.3129    1.1876   20.3463 C.ar    1  UNL1        0.1036
     22 N         -16.7867    2.5074   19.8654 N.ar    1  UNL1       -0.2223
     23 C         -15.4776    2.5720   19.1359 C.ar    1  UNL1        0.2001
     24 N         -14.6947    1.3168   18.8875 N.ar    1  UNL1       -0.2090
@<TRIPOS>BOND
     1     2     1    1
     2     2     3    1
     3     3     4    1
     4     4    19    1
     5    19    20   ar
     6    20    21   ar
     7    21    22   ar
     8    22    23   ar
     9    23    24   ar
    10     4     5    1
    11     5     6    1
    12     6     7    1
    13     7    10    1
    14    10    11   ar
    15    11    12   ar
    16    12    13    1
    17    12    14   ar
    18    14    15    1
    19    14    16   ar
    20    16    17   ar
    21    17    18    1
    22     7     2    1
    23    17    10   ar
    24    24    19   ar
    25     1     8    1
    26     1     9    1
@<TRIPOS>MOLECULE
*****
 24 26 0 0 0
SMALL
GASTEIGER

@<TRIPOS>ATOM
      1 N           3.2995   -0.1378   17.4819 N.3     1  UNL1       -0.3206
      2 C           2.4382    0.1102   18.6846 C.3     1  UNL1        0.0750
      3 C           1.3532    1.1444   18.6297 C.3     1  UNL1        0.1079
      4 N           0.4918    1.3924   19.8325 N.pl3   1  UNL1       -0.2918
      5 C           0.7155    0.6061   21.0901 C.3     1  UNL1        0.0926
      6 C           1.8004   -0.4282   21.1450 C.3     1  UNL1        0.0273
      7 C           2.6618   -0.6761   19.9423 C.3     1  UNL1        0.0422
      8 H           3.0104    0.4799   16.7234 H       1  UNL1        0.1189
      9 H           3.1994   -1.1089   17.1864 H       1  UNL1        0.1189
     10 C           3.7468   -1.7105   19.9972 C.ar    1  UNL1        0.0087
     11 C           3.5360   -3.0530   19.3623 C.ar    1  UNL1        0.0300
     12 C           4.6209   -4.0873   19.4172 C.ar    1  UNL1        0.1672
     13 F           4.4101   -5.4299   18.7823 F       1  UNL1       -0.2018
     14 C           5.9168   -3.7791   20.1071 C.ar    1  UNL1        0.1696
     15 F           7.0018   -4.8134   20.1620 F       1  UNL1       -0.2017
     16 C           6.1276   -2.4365   20.7420 C.ar    1  UNL1        0.0612
     17 C           5.0426   -1.4022   20.6870 C.ar    1  UNL1        0.1386
     18 F           5.2534   -0.0596   21.3219 F       1  UNL1       -0.2044
     19 C          -0.5932    2.4267   19.7775 C.ar    1  UNL1        0.1351
     20 C          -0.6202    3.4267   18.6598 C.ar    1  UNL1        0.0550
     21 C          -1.7052    4.4610   18.6048 C.ar    1  UNL1        0.1036
     22 N          -2.7632    4.4953   19.6676 N.ar    1  UNL1       -0.2223
     23 C          -2.7362    3.4954   20.7853 C.ar    1  UNL1        0.2001
     24 N          -1.6512    2.4610   20.8403 N.ar    1  UNL1       -0.2090
@<TRIPOS>BOND
     1     2     1    1
     2     2     3    1
     3     3     4    1
     4     4    19    1
     5    19    20   ar
     6    20    21   ar
     7    21    22   ar
     8    22    23   ar
     9    23    24   ar
    10     4     5    1
    11     5     6    1
    12     6     7    1
    13     7    10    1
    14    10    11   ar
    15    11    12   ar
    16    12    13    1
    17    12    14   ar
    18    14    15    1
    19    14    16   ar
    20    16    17   ar
    21    17    18    1
    22     7     2    1
    23    17    10   ar
    24    24    19   ar
    25     1     8    1
    26     1     9    1
@<TRIPOS>MOLECULE
*****
 24 26 0 0 0
SMALL
GASTEIGER

@<TRIPOS>ATOM
      1 N           3.6317   -3.6113   19.4504 N.3     1  UNL1       -0.3206
      2 C           4.2285   -3.0744   20.7176 C.3     1  UNL1        0.0750
      3 C           5.1174   -3.9448   21.5555 C.3     1  UNL1        0.1079
      4 N           5.7142   -3.4079   22.8226 N.pl3   1  UNL1       -0.2918
      5 C           5.4220   -2.0006   23.2518 C.3     1  UNL1        0.0926
      6 C           4.5331   -1.1303   22.4139 C.3     1  UNL1        0.0273
      7 C           3.9363   -1.6672   21.1467 C.3     1  UNL1        0.0422
      8 H           3.9336   -4.5760   19.3145 H       1  UNL1        0.1189
      9 H           3.9415   -3.0437   18.6616 H       1  UNL1        0.1189
     10 C           3.0473   -0.7967   20.3088 C.ar    1  UNL1        0.0087
     11 C           1.6530   -0.4870   20.7672 C.ar    1  UNL1        0.0300
     12 C           0.7640    0.3834   19.9293 C.ar    1  UNL1        0.1672
     13 F          -0.6302    0.6931   20.3876 F       1  UNL1       -0.2018
     14 C           1.2693    0.9441   18.6330 C.ar    1  UNL1        0.1696
     15 F           0.3803    1.8145   17.7951 F       1  UNL1       -0.2017
     16 C           2.6636    0.6344   18.1746 C.ar    1  UNL1        0.0612
     17 C           3.5526   -0.2360   19.0126 C.ar    1  UNL1        0.1386
     18 F           4.9468   -0.5457   18.5542 F       1  UNL1       -0.2044
     19 C           6.6032   -4.2783   23.6606 C.ar    1  UNL1        0.1351
     20 C           6.6806   -4.0644   25.1432 C.ar    1  UNL1        0.0550
     21 C           7.5695   -4.9347   25.9812 C.ar    1  UNL1        0.1036
     22 N           8.3811   -6.0192   25.3365 N.ar    1  UNL1       -0.2223
     23 C           8.3036   -6.2331   23.8538 C.ar    1  UNL1        0.2001
     24 N           7.4146   -5.3627   23.0159 N.ar    1  UNL1       -0.2090
@<TRIPOS>BOND
     1     2     1    1
     2     2     3    1
     3     3     4    1
     4     4    19    1
     5    19    20   ar
     6    20    21   ar
     7    21    22   ar
     8    22    23   ar
     9    23    24   ar
    10     4     5    1
    11     5     6    1
    12     6     7    1
    13     7    10    1
    14    10    11   ar
    15    11    12   ar
    16    12    13    1
    17    12    14   ar
    18    14    15    1
    19    14    16   ar
    20    16    17   ar
    21    17    18    1
    22     7     2    1
    23    17    10   ar
    24    24    19   ar
    25     1     8    1
    26     1     9    1
