@<TRIPOS>MOLECULE
*****
 45 49 0 0 0
SMALL
GASTEIGER

@<TRIPOS>ATOM
      1 C          -0.8458    2.7543   20.7977 C.3     1  UNL1        0.0903
      2 C           0.1633    1.6577   20.6272 C.3     1  UNL1        0.0919
      3 N           0.8895    1.5028   19.3239 N.3     1  UNL1       -0.2725
      4 C           0.6066    2.4446   18.1911 C.3     1  UNL1        0.0722
      5 C          -0.4025    3.5412   18.3617 C.3     1  UNL1        0.0204
      6 C          -1.1287    3.6960   19.6650 C.3     1  UNL1        0.0368
      7 C           1.8987    0.4062   19.1533 C.3     1  UNL1        0.0610
      8 C           1.8450   -0.8062   20.0349 C.3     1  UNL1        0.0375
      9 C           2.8541   -1.9028   19.8643 C.3     1  UNL1        0.0948
     10 N           3.9169   -1.7871   18.8121 N.am    1  UNL1       -0.2794
     11 C           4.9260   -2.8837   18.6415 C.2     1  UNL1        0.2261
     12 C           4.8724   -4.0960   19.5232 C.3     1  UNL1        0.0948
     13 O           5.9888   -2.7679   17.5894 O.2     1  UNL1       -0.2749
     14 C           3.9706   -0.5747   17.9305 C.3     1  UNL1        0.0948
     15 C           2.9614    0.5220   18.1011 C.3     1  UNL1        0.0375
     16 N          -1.5441    2.9769   24.6981 N.am    1  UNL1       -0.2485
     17 C          -0.8180    2.8221   23.3948 C.2     1  UNL1        0.3059
     18 O           0.6624    2.5800   23.3852 O.2     1  UNL1       -0.2524
     19 N          -1.5721    2.9092   22.1010 N.am    1  UNL1       -0.2889
     20 H          -2.5157    3.1358   24.7044 H       1  UNL1        0.1583
     21 H          -2.5437    3.0680   22.1073 H       1  UNL1        0.1510
     22 C           0.1791    2.0333   28.0455 C.ar    1  UNL1        0.0803
     23 S          -0.6563    1.6696   26.8539 S.2     1  UNL1       -0.0488
     24 C          -0.7900    2.8898   25.9918 C.ar    1  UNL1        0.1664
     25 N          -0.0373    4.0076   26.6506 N.ar    1  UNL1       -0.2282
     26 C           0.5617    3.4782   27.9198 C.ar    1  UNL1        0.0701
     27 C           1.3967    4.2570   28.8926 C.3     1  UNL1        0.0528
     28 C           1.4110   -0.0932   28.8884 C.3     1  UNL1        0.0779
     29 C           0.5643    1.1134   29.1660 C.2     1  UNL1        0.1807
     30 O           0.1029    1.4003   30.5641 O.2     1  UNL1       -0.2908
     31 C          -2.1379    4.7927   19.8356 C.3     1  UNL1        0.0738
     32 N          -3.6021    4.4899   19.7150 N.3     1  UNL1       -0.2726
     33 C          -4.1408    3.8819   18.4539 C.3     1  UNL1        0.0721
     34 C          -5.6050    3.5792   18.3333 C.3     1  UNL1        0.0174
     35 C          -6.5304    3.8843   19.4738 C.3     1  UNL1        0.0031
     36 C          -5.9916    4.4923   20.7347 C.3     1  UNL1        0.0204
     37 C          -4.5275    4.7950   20.8553 C.3     1  UNL1        0.0724
     38 C          -6.9170    4.7974   21.8752 C.3     1  UNL1        0.0277
     39 C          -6.3967    4.8043   23.2820 C.ar    1  UNL1       -0.0220
     40 C          -6.6983    5.9615   24.1876 C.ar    1  UNL1       -0.0020
     41 C          -6.1779    5.9684   25.5945 C.ar    1  UNL1        0.0293
     42 C          -5.3559    4.8181   26.0957 C.ar    1  UNL1        0.1401
     43 F          -4.8356    4.8250   27.5025 F       1  UNL1       -0.2042
     44 C          -5.0543    3.6610   25.1901 C.ar    1  UNL1        0.0293
     45 C          -5.5747    3.6541   23.7833 C.ar    1  UNL1       -0.0020
@<TRIPOS>BOND
     1    28    29    1
     2    29    30    2
     3    29    22    1
     4    22    23   ar
     5    23    24   ar
     6    24    16    1
     7    16    17   am
     8    17    18    2
     9    17    19   am
    10     1    19    1
    11     1     2    1
    12     2     3    1
    13     3     7    1
    14     7     8    1
    15     8     9    1
    16     9    10    1
    17    10    11   am
    18    11    12    1
    19    11    13    2
    20    10    14    1
    21    14    15    1
    22     3     4    1
    23     4     5    1
    24     5     6    1
    25     6    31    1
    26    31    32    1
    27    32    33    1
    28    33    34    1
    29    34    35    1
    30    35    36    1
    31    36    38    1
    32    38    39    1
    33    39    40   ar
    34    40    41   ar
    35    41    42   ar
    36    42    43    1
    37    42    44   ar
    38    44    45   ar
    39    36    37    1
    40    24    25   ar
    41    25    26   ar
    42    26    27    1
    43    26    22   ar
    44     6     1    1
    45    37    32    1
    46    15     7    1
    47    45    39   ar
    48    16    20    1
    49    19    21    1
@<TRIPOS>MOLECULE
*****
 45 49 0 0 0
SMALL
GASTEIGER

@<TRIPOS>ATOM
      1 C           3.3247   -0.6140   30.3948 C.3     1  UNL1        0.0903
      2 C           3.0836   -0.1316   31.7945 C.3     1  UNL1        0.0919
      3 N           4.2446    0.1402   32.7045 N.3     1  UNL1       -0.2725
      4 C           5.6467   -0.0704   32.2148 C.3     1  UNL1        0.0722
      5 C           5.8878   -0.5527   30.8152 C.3     1  UNL1        0.0204
      6 C           4.7268   -0.8245   29.9051 C.3     1  UNL1        0.0368
      7 C           4.0035    0.6225   34.1043 C.3     1  UNL1        0.0610
      8 C           3.1176    1.8084   34.3468 C.3     1  UNL1        0.0375
      9 C           2.8765    2.2908   35.7464 C.3     1  UNL1        0.0948
     10 N           3.5214    1.5873   36.9038 N.am    1  UNL1       -0.2794
     11 C           3.2803    2.0696   38.3034 C.2     1  UNL1        0.2261
     12 C           2.3943    3.2555   38.5459 C.3     1  UNL1        0.0948
     13 O           3.9252    1.3661   39.4606 O.2     1  UNL1       -0.2749
     14 C           4.4073    0.4014   36.6613 C.3     1  UNL1        0.0948
     15 C           4.6484   -0.0810   35.2615 C.3     1  UNL1        0.0375
     16 N           0.3818   -0.0361   27.7957 N.am    1  UNL1       -0.2485
     17 C           1.5428    0.2357   28.7057 C.2     1  UNL1        0.3059
     18 O           2.0829    1.6289   28.8369 O.2     1  UNL1       -0.2524
     19 N           2.1637   -0.8858   29.4847 N.am    1  UNL1       -0.2889
     20 H           0.0273   -0.9505   27.7097 H       1  UNL1        0.1583
     21 H           1.8092   -1.8002   29.3987 H       1  UNL1        0.1510
     22 C          -1.5658    3.0316   26.4312 C.ar    1  UNL1        0.0803
     23 S          -1.2047    2.1012   27.5511 S.2     1  UNL1       -0.0488
     24 C          -0.2391    1.0853   27.0167 C.ar    1  UNL1        0.1664
     25 N          -0.0034    1.3878   25.5666 N.ar    1  UNL1       -0.2282
     26 C          -0.8234    2.5907   25.2047 C.ar    1  UNL1        0.0701
     27 C          -0.8893    3.2387   23.8535 C.3     1  UNL1        0.0528
     28 C          -3.9854    3.9662   26.5789 C.3     1  UNL1        0.0779
     29 C          -2.5046    4.1980   26.5220 C.2     1  UNL1        0.1807
     30 O          -1.9624    5.5961   26.5558 O.2     1  UNL1       -0.2908
     31 C           4.9679   -1.3068   28.5054 C.3     1  UNL1        0.0738
     32 N           4.6887   -0.4022   27.3419 N.3     1  UNL1       -0.2726
     33 C           5.2750    0.9781   27.3074 C.3     1  UNL1        0.0721
     34 C           4.9958    1.8827   26.1439 C.3     1  UNL1        0.0174
     35 C           4.1303    1.4070   25.0148 C.3     1  UNL1        0.0031
     36 C           3.5441    0.0267   25.0493 C.3     1  UNL1        0.0204
     37 C           3.8233   -0.8779   26.2128 C.3     1  UNL1        0.0724
     38 C           2.6786   -0.4490   23.9202 C.3     1  UNL1        0.0277
     39 C           3.2792   -1.2419   22.7975 C.ar    1  UNL1       -0.0220
     40 C           2.9850   -0.8689   21.3747 C.ar    1  UNL1       -0.0020
     41 C           3.5856   -1.6618   20.2519 C.ar    1  UNL1        0.0293
     42 C           4.4805   -2.8277   20.5520 C.ar    1  UNL1        0.1401
     43 F           5.0812   -3.6206   19.4293 F       1  UNL1       -0.2042
     44 C           4.7747   -3.2006   21.9748 C.ar    1  UNL1        0.0293
     45 C           4.1741   -2.4077   23.0975 C.ar    1  UNL1       -0.0020
@<TRIPOS>BOND
     1    28    29    1
     2    29    30    2
     3    29    22    1
     4    22    23   ar
     5    23    24   ar
     6    24    16    1
     7    16    17   am
     8    17    18    2
     9    17    19   am
    10     1    19    1
    11     1     2    1
    12     2     3    1
    13     3     7    1
    14     7     8    1
    15     8     9    1
    16     9    10    1
    17    10    11   am
    18    11    12    1
    19    11    13    2
    20    10    14    1
    21    14    15    1
    22     3     4    1
    23     4     5    1
    24     5     6    1
    25     6    31    1
    26    31    32    1
    27    32    33    1
    28    33    34    1
    29    34    35    1
    30    35    36    1
    31    36    38    1
    32    38    39    1
    33    39    40   ar
    34    40    41   ar
    35    41    42   ar
    36    42    43    1
    37    42    44   ar
    38    44    45   ar
    39    36    37    1
    40    24    25   ar
    41    25    26   ar
    42    26    27    1
    43    26    22   ar
    44     6     1    1
    45    37    32    1
    46    15     7    1
    47    45    39   ar
    48    16    20    1
    49    19    21    1
@<TRIPOS>MOLECULE
*****
 45 49 0 0 0
SMALL
GASTEIGER

@<TRIPOS>ATOM
      1 C           0.5044    1.7281   24.4474 C.3     1  UNL1        0.0903
      2 C           1.2516    0.8420   23.4953 C.3     1  UNL1        0.0919
      3 N           1.8123    1.4098   22.2253 N.3     1  UNL1       -0.2725
      4 C           1.6258    2.8638   21.9073 C.3     1  UNL1        0.0722
      5 C           0.8786    3.7499   22.8593 C.3     1  UNL1        0.0204
      6 C           0.3179    3.1821   24.1293 C.3     1  UNL1        0.0368
      7 C           2.5596    0.5237   21.2732 C.3     1  UNL1        0.0610
      8 C           2.6751   -0.9460   21.5501 C.3     1  UNL1        0.0375
      9 C           3.4223   -1.8321   20.5980 C.3     1  UNL1        0.0948
     10 N           4.0541   -1.2486   19.3690 N.am    1  UNL1       -0.2794
     11 C           4.8013   -2.1347   18.4170 C.2     1  UNL1        0.2261
     12 C           4.9168   -3.6044   18.6939 C.3     1  UNL1        0.0948
     13 O           5.4331   -1.5511   17.1881 O.2     1  UNL1       -0.2749
     14 C           3.9386    0.2211   19.0921 C.3     1  UNL1        0.0948
     15 C           3.1914    1.1073   20.0443 C.3     1  UNL1        0.0375
     16 N           0.2037    0.6086   28.2430 N.am    1  UNL1       -0.2485
     17 C           0.7644    1.1764   26.9729 C.2     1  UNL1        0.3059
     18 O           2.1460    1.7605   26.9581 O.2     1  UNL1       -0.2524
     19 N          -0.0564    1.1602   25.7175 N.am    1  UNL1       -0.2889
     20 H          -0.7030    0.2253   28.2526 H       1  UNL1        0.1583
     21 H          -0.9631    0.7769   25.7271 H       1  UNL1        0.1510
     22 C           2.6865    0.0673   31.1770 C.ar    1  UNL1        0.0803
     23 S           2.1523   -0.3082   29.8265 S.2     1  UNL1       -0.0488
     24 C           1.0245    0.6248   29.4983 C.ar    1  UNL1        0.1664
     25 N           0.8618    1.5769   30.6460 N.ar    1  UNL1       -0.2282
     26 C           1.8889    1.2323   31.6834 C.ar    1  UNL1        0.0701
     27 C           2.0841    1.9303   32.9967 C.3     1  UNL1        0.0528
     28 C           5.1369    0.0977   32.0397 C.3     1  UNL1        0.0779
     29 C           3.8193   -0.6044   31.8949 C.2     1  UNL1        0.1807
     30 O           3.6346   -1.9782   32.4680 O.2     1  UNL1       -0.2908
     31 C          -0.4294    4.0682   25.0815 C.3     1  UNL1        0.0738
     32 N          -1.9178    3.9388   25.2152 N.3     1  UNL1       -0.2726
     33 C          -2.5742    4.1699   26.5441 C.3     1  UNL1        0.0721
     34 C          -4.0627    4.0405   26.6779 C.3     1  UNL1        0.0174
     35 C          -4.8946    3.6801   25.4828 C.3     1  UNL1        0.0031
     36 C          -4.2381    3.4491   24.1541 C.3     1  UNL1        0.0204
     37 C          -2.7497    3.5785   24.0203 C.3     1  UNL1        0.0724
     38 C          -5.0701    3.0887   22.9590 C.3     1  UNL1        0.0277
     39 C          -4.9453    3.8815   21.6918 C.ar    1  UNL1       -0.0220
     40 C          -4.6800    3.1811   20.3920 C.ar    1  UNL1       -0.0020
     41 C          -4.5553    3.9739   19.1248 C.ar    1  UNL1        0.0293
     42 C          -4.6959    5.4670   19.1572 C.ar    1  UNL1        0.1401
     43 F          -4.5712    6.2597   17.8899 F       1  UNL1       -0.2042
     44 C          -4.9612    6.1672   20.4569 C.ar    1  UNL1        0.0293
     45 C          -5.0859    5.3745   21.7241 C.ar    1  UNL1       -0.0020
@<TRIPOS>BOND
     1    28    29    1
     2    29    30    2
     3    29    22    1
     4    22    23   ar
     5    23    24   ar
     6    24    16    1
     7    16    17   am
     8    17    18    2
     9    17    19   am
    10     1    19    1
    11     1     2    1
    12     2     3    1
    13     3     7    1
    14     7     8    1
    15     8     9    1
    16     9    10    1
    17    10    11   am
    18    11    12    1
    19    11    13    2
    20    10    14    1
    21    14    15    1
    22     3     4    1
    23     4     5    1
    24     5     6    1
    25     6    31    1
    26    31    32    1
    27    32    33    1
    28    33    34    1
    29    34    35    1
    30    35    36    1
    31    36    38    1
    32    38    39    1
    33    39    40   ar
    34    40    41   ar
    35    41    42   ar
    36    42    43    1
    37    42    44   ar
    38    44    45   ar
    39    36    37    1
    40    24    25   ar
    41    25    26   ar
    42    26    27    1
    43    26    22   ar
    44     6     1    1
    45    37    32    1
    46    15     7    1
    47    45    39   ar
    48    16    20    1
    49    19    21    1
@<TRIPOS>MOLECULE
*****
 45 49 0 0 0
SMALL
GASTEIGER

@<TRIPOS>ATOM
      1 C           0.0659    1.9365   25.9060 C.3     1  UNL1        0.0903
      2 C          -1.3664    2.3685   25.7974 C.3     1  UNL1        0.0919
      3 N          -1.7442    3.4876   24.8729 N.3     1  UNL1       -0.2725
      4 C          -0.6897    4.1747   24.0569 C.3     1  UNL1        0.0722
      5 C           0.7426    3.7428   24.1655 C.3     1  UNL1        0.0204
      6 C           1.1204    2.6237   25.0900 C.3     1  UNL1        0.0368
      7 C          -3.1766    3.9197   24.7643 C.3     1  UNL1        0.0610
      8 C          -3.8176    4.6804   25.8869 C.3     1  UNL1        0.0375
      9 C          -5.2499    5.1125   25.7784 C.3     1  UNL1        0.0948
     10 N          -6.0413    4.7838   24.5472 N.am    1  UNL1       -0.2794
     11 C          -7.4736    5.2158   24.4386 C.2     1  UNL1        0.2261
     12 C          -8.1146    5.9766   25.5612 C.3     1  UNL1        0.0948
     13 O          -8.2648    4.8871   23.2074 O.2     1  UNL1       -0.2749
     14 C          -5.4002    4.0230   23.4245 C.3     1  UNL1        0.0948
     15 C          -3.9678    3.5910   23.5331 C.3     1  UNL1        0.0375
     16 N           1.3983    0.0036   29.1058 N.am    1  UNL1       -0.2485
     17 C           1.0205    1.1227   28.1812 C.2     1  UNL1        0.3059
     18 O           1.2194    2.5471   28.6072 O.2     1  UNL1       -0.2524
     19 N           0.4437    0.8174   26.8306 N.am    1  UNL1       -0.2889
     20 H           1.2678   -0.9313   28.8262 H       1  UNL1        0.1583
     21 H           0.3132   -0.1175   26.5510 H       1  UNL1        0.1510
     22 C           3.3805    0.2456   32.4342 C.ar    1  UNL1        0.0803
     23 S           3.1519   -0.3742   31.0875 S.2     1  UNL1       -0.0488
     24 C           1.9751    0.3089   30.4564 C.ar    1  UNL1        0.1664
     25 N           1.4763    1.3510   31.4130 N.ar    1  UNL1       -0.2282
     26 C           2.3448    1.3119   32.6354 C.ar    1  UNL1        0.0701
     27 C           2.2027    2.1856   33.8463 C.3     1  UNL1        0.0528
     28 C           4.4314   -1.4830   34.0643 C.3     1  UNL1        0.0779
     29 C           4.4558   -0.1342   33.4085 C.2     1  UNL1        0.1807
     30 O           5.5555    0.8348   33.7271 O.2     1  UNL1       -0.2908
     31 C           2.5528    2.1916   25.1986 C.3     1  UNL1        0.0738
     32 N           2.9782    0.8609   24.6525 N.3     1  UNL1       -0.2726
     33 C           3.7175   -0.1073   25.5278 C.3     1  UNL1        0.0721
     34 C           4.1429   -1.4381   24.9818 C.3     1  UNL1        0.0174
     35 C           3.8290   -1.8006   23.5604 C.3     1  UNL1        0.0031
     36 C           3.0898   -0.8324   22.6852 C.3     1  UNL1        0.0204
     37 C           2.6644    0.4984   23.2313 C.3     1  UNL1        0.0724
     38 C           2.7759   -1.1949   21.2639 C.3     1  UNL1        0.0277
     39 C           3.8854   -1.5411   20.3156 C.ar    1  UNL1       -0.0220
     40 C           5.1074   -0.6741   20.2426 C.ar    1  UNL1       -0.0020
     41 C           6.2169   -1.0203   19.2944 C.ar    1  UNL1        0.0293
     42 C           6.1044   -2.2334   18.4192 C.ar    1  UNL1        0.1401
     43 F           7.2140   -2.5796   17.4710 F       1  UNL1       -0.2042
     44 C           4.8825   -3.1003   18.4923 C.ar    1  UNL1        0.0293
     45 C           3.7730   -2.7541   19.4405 C.ar    1  UNL1       -0.0020
@<TRIPOS>BOND
     1    28    29    1
     2    29    30    2
     3    29    22    1
     4    22    23   ar
     5    23    24   ar
     6    24    16    1
     7    16    17   am
     8    17    18    2
     9    17    19   am
    10     1    19    1
    11     1     2    1
    12     2     3    1
    13     3     7    1
    14     7     8    1
    15     8     9    1
    16     9    10    1
    17    10    11   am
    18    11    12    1
    19    11    13    2
    20    10    14    1
    21    14    15    1
    22     3     4    1
    23     4     5    1
    24     5     6    1
    25     6    31    1
    26    31    32    1
    27    32    33    1
    28    33    34    1
    29    34    35    1
    30    35    36    1
    31    36    38    1
    32    38    39    1
    33    39    40   ar
    34    40    41   ar
    35    41    42   ar
    36    42    43    1
    37    42    44   ar
    38    44    45   ar
    39    36    37    1
    40    24    25   ar
    41    25    26   ar
    42    26    27    1
    43    26    22   ar
    44     6     1    1
    45    37    32    1
    46    15     7    1
    47    45    39   ar
    48    16    20    1
    49    19    21    1
@<TRIPOS>MOLECULE
*****
 45 49 0 0 0
SMALL
GASTEIGER

@<TRIPOS>ATOM
      1 C           2.6503    1.4734   25.6466 C.3     1  UNL1        0.0903
      2 C           3.1913    0.8410   24.3987 C.3     1  UNL1        0.0919
      3 N           2.2811    0.5780   23.2359 N.3     1  UNL1       -0.2725
      4 C           0.8298    0.9474   23.3210 C.3     1  UNL1        0.0722
      5 C           0.2887    1.5798   24.5688 C.3     1  UNL1        0.0204
      6 C           1.1990    1.8428   25.7316 C.3     1  UNL1        0.0368
      7 C           2.8221   -0.0545   21.9879 C.3     1  UNL1        0.0610
      8 C           3.5613   -1.3573   22.0672 C.3     1  UNL1        0.0375
      9 C           4.1023   -1.9898   20.8193 C.3     1  UNL1        0.0948
     10 N           3.9041   -1.3194   19.4921 N.am    1  UNL1       -0.2794
     11 C           4.4452   -1.9519   18.2442 C.2     1  UNL1        0.2261
     12 C           5.1843   -3.2547   18.3234 C.3     1  UNL1        0.0948
     13 O           4.2470   -1.2815   16.9171 O.2     1  UNL1       -0.2749
     14 C           3.1650   -0.0166   19.4128 C.3     1  UNL1        0.0948
     15 C           2.6239    0.6159   20.6608 C.3     1  UNL1        0.0375
     16 N           4.6733    0.9450   29.0198 N.am    1  UNL1       -0.2485
     17 C           3.7631    0.6820   27.8569 C.2     1  UNL1        0.3059
     18 O           3.0553   -0.6355   27.7414 O.2     1  UNL1       -0.2524
     19 N           3.5606    1.7365   26.8095 N.am    1  UNL1       -0.2889
     20 H           5.1378    1.8098   29.0955 H       1  UNL1        0.1583
     21 H           4.0251    2.6012   26.8852 H       1  UNL1        0.1510
     22 C           4.7281   -1.3611   32.1414 C.ar    1  UNL1        0.0803
     23 S           4.2515   -0.1289   31.4309 S.2     1  UNL1       -0.0488
     24 C           4.8758   -0.1094   30.0672 C.ar    1  UNL1        0.1664
     25 N           5.7382   -1.3296   29.9348 N.ar    1  UNL1       -0.2282
     26 C           5.6469   -2.1031   31.2167 C.ar    1  UNL1        0.0701
     27 C           6.3508   -3.3924   31.5205 C.3     1  UNL1        0.0528
     28 C           4.6531   -0.8765   34.6927 C.3     1  UNL1        0.0779
     29 C           4.3518   -1.7780   33.5323 C.2     1  UNL1        0.1807
     30 O           3.6744   -3.0962   33.7627 O.2     1  UNL1       -0.2908
     31 C           0.6579    2.4753   26.9796 C.3     1  UNL1        0.0738
     32 N          -0.3593    3.5734   26.8835 N.3     1  UNL1       -0.2726
     33 C           0.0810    5.0073   26.9004 C.3     1  UNL1        0.0721
     34 C          -0.9363    6.1054   26.8043 C.3     1  UNL1        0.0174
     35 C          -2.3939    5.7697   26.6914 C.3     1  UNL1        0.0031
     36 C          -2.8342    4.3359   26.6745 C.3     1  UNL1        0.0204
     37 C          -1.8169    3.2377   26.7706 C.3     1  UNL1        0.0724
     38 C          -4.2918    4.0001   26.5616 C.3     1  UNL1        0.0277
     39 C          -4.9667    4.0298   25.2223 C.ar    1  UNL1       -0.0220
     40 C          -4.3791    3.2711   24.0694 C.ar    1  UNL1       -0.0020
     41 C          -5.0540    3.3008   22.7301 C.ar    1  UNL1        0.0293
     42 C          -6.3165    4.0892   22.5438 C.ar    1  UNL1        0.1401
     43 F          -6.9913    4.1189   21.2045 F       1  UNL1       -0.2042
     44 C          -6.9040    4.8479   23.6967 C.ar    1  UNL1        0.0293
     45 C          -6.2291    4.8182   25.0359 C.ar    1  UNL1       -0.0020
@<TRIPOS>BOND
     1    28    29    1
     2    29    30    2
     3    29    22    1
     4    22    23   ar
     5    23    24   ar
     6    24    16    1
     7    16    17   am
     8    17    18    2
     9    17    19   am
    10     1    19    1
    11     1     2    1
    12     2     3    1
    13     3     7    1
    14     7     8    1
    15     8     9    1
    16     9    10    1
    17    10    11   am
    18    11    12    1
    19    11    13    2
    20    10    14    1
    21    14    15    1
    22     3     4    1
    23     4     5    1
    24     5     6    1
    25     6    31    1
    26    31    32    1
    27    32    33    1
    28    33    34    1
    29    34    35    1
    30    35    36    1
    31    36    38    1
    32    38    39    1
    33    39    40   ar
    34    40    41   ar
    35    41    42   ar
    36    42    43    1
    37    42    44   ar
    38    44    45   ar
    39    36    37    1
    40    24    25   ar
    41    25    26   ar
    42    26    27    1
    43    26    22   ar
    44     6     1    1
    45    37    32    1
    46    15     7    1
    47    45    39   ar
    48    16    20    1
    49    19    21    1
@<TRIPOS>MOLECULE
*****
 45 49 0 0 0
SMALL
GASTEIGER

@<TRIPOS>ATOM
      1 C           0.7645    1.4661   25.9328 C.3     1  UNL1        0.0903
      2 C          -0.6530    1.9466   25.8350 C.3     1  UNL1        0.0919
      3 N          -1.0190    3.0046   24.8367 N.3     1  UNL1       -0.2725
      4 C           0.0326    3.5820   23.9362 C.3     1  UNL1        0.0722
      5 C           1.4501    3.1015   24.0341 C.3     1  UNL1        0.0204
      6 C           1.8161    2.0435   25.0324 C.3     1  UNL1        0.0368
      7 C          -2.4366    3.4852   24.7387 C.3     1  UNL1        0.0610
      8 C          -3.1674    3.4041   23.4313 C.3     1  UNL1        0.0375
      9 C          -4.5849    3.8846   23.3334 C.3     1  UNL1        0.0948
     10 N          -5.2717    4.4465   24.5429 N.am    1  UNL1       -0.2794
     11 C          -6.6892    4.9271   24.4449 C.2     1  UNL1        0.2261
     12 C          -7.4200    4.8459   23.1375 C.3     1  UNL1        0.0948
     13 O          -7.3759    5.4888   25.6544 O.2     1  UNL1       -0.2749
     14 C          -4.5408    4.5277   25.8503 C.3     1  UNL1        0.0948
     15 C          -3.1233    4.0470   25.9482 C.3     1  UNL1        0.0375
     16 N           1.9489   -0.2587   29.3051 N.am    1  UNL1       -0.2485
     17 C           1.5829    0.7992   28.3068 C.2     1  UNL1        0.3059
     18 O           1.6692    2.2485   28.6841 O.2     1  UNL1       -0.2524
     19 N           1.1305    0.4080   26.9312 N.am    1  UNL1       -0.2889
     20 H           1.8923   -1.2099   29.0575 H       1  UNL1        0.1583
     21 H           1.0739   -0.5432   26.6836 H       1  UNL1        0.1510
     22 C           3.6452    0.2234   32.7629 C.ar    1  UNL1        0.0803
     23 S           3.5535   -0.4645   31.4331 S.2     1  UNL1       -0.0488
     24 C           2.4013    0.1325   30.6808 C.ar    1  UNL1        0.1664
     25 N           1.7809    1.1894   31.5456 N.ar    1  UNL1       -0.2282
     26 C           2.5496    1.2456   32.8324 C.ar    1  UNL1        0.0701
     27 C           2.2716    2.1630   33.9862 C.3     1  UNL1        0.0528
     28 C           5.8189    0.8644   34.0333 C.3     1  UNL1        0.0779
     29 C           4.6551   -0.0609   33.8349 C.2     1  UNL1        0.1807
     30 O           4.5013   -1.2706   34.7083 O.2     1  UNL1       -0.2908
     31 C           3.2337    1.5629   25.1303 C.3     1  UNL1        0.0738
     32 N           3.6175    0.2353   24.5469 N.3     1  UNL1       -0.2726
     33 C           4.3288   -0.7784   25.3933 C.3     1  UNL1        0.0721
     34 C           4.7127   -2.1059   24.8098 C.3     1  UNL1        0.0174
     35 C           4.3851   -2.4197   23.3800 C.3     1  UNL1        0.0031
     36 C           3.6738   -1.4059   22.5337 C.3     1  UNL1        0.0204
     37 C           3.2900   -0.0784   23.1171 C.3     1  UNL1        0.0724
     38 C           3.3462   -1.7197   21.1038 C.3     1  UNL1        0.0277
     39 C           2.5779   -0.7323   20.2764 C.ar    1  UNL1       -0.0220
     40 C           3.2492   -0.0263   19.1357 C.ar    1  UNL1       -0.0020
     41 C           2.4809    0.9611   18.3083 C.ar    1  UNL1        0.0293
     42 C           1.0411    1.2425   18.6215 C.ar    1  UNL1        0.1401
     43 F           0.2728    2.2299   17.7941 F       1  UNL1       -0.2042
     44 C           0.3698    0.5366   19.7621 C.ar    1  UNL1        0.0293
     45 C           1.1382   -0.4508   20.5896 C.ar    1  UNL1       -0.0020
@<TRIPOS>BOND
     1    28    29    1
     2    29    30    2
     3    29    22    1
     4    22    23   ar
     5    23    24   ar
     6    24    16    1
     7    16    17   am
     8    17    18    2
     9    17    19   am
    10     1    19    1
    11     1     2    1
    12     2     3    1
    13     3     7    1
    14     7     8    1
    15     8     9    1
    16     9    10    1
    17    10    11   am
    18    11    12    1
    19    11    13    2
    20    10    14    1
    21    14    15    1
    22     3     4    1
    23     4     5    1
    24     5     6    1
    25     6    31    1
    26    31    32    1
    27    32    33    1
    28    33    34    1
    29    34    35    1
    30    35    36    1
    31    36    38    1
    32    38    39    1
    33    39    40   ar
    34    40    41   ar
    35    41    42   ar
    36    42    43    1
    37    42    44   ar
    38    44    45   ar
    39    36    37    1
    40    24    25   ar
    41    25    26   ar
    42    26    27    1
    43    26    22   ar
    44     6     1    1
    45    37    32    1
    46    15     7    1
    47    45    39   ar
    48    16    20    1
    49    19    21    1
@<TRIPOS>MOLECULE
*****
 45 49 0 0 0
SMALL
GASTEIGER

@<TRIPOS>ATOM
      1 C           2.9463    1.3081   25.9181 C.3     1  UNL1        0.0903
      2 C           1.6648    2.0741   26.0624 C.3     1  UNL1        0.0919
      3 N           0.5924    1.9445   25.0216 N.3     1  UNL1       -0.2725
      4 C           0.8016    1.0490   23.8366 C.3     1  UNL1        0.0722
      5 C           2.0831    0.2830   23.6924 C.3     1  UNL1        0.0204
      6 C           3.1555    0.4126   24.7331 C.3     1  UNL1        0.0368
      7 C          -0.6892    2.7105   25.1659 C.3     1  UNL1        0.0610
      8 C          -1.3034    2.8962   26.5217 C.3     1  UNL1        0.0375
      9 C          -2.5850    3.6622   26.6660 C.3     1  UNL1        0.0948
     10 N          -3.2524    4.2425   25.4544 N.am    1  UNL1       -0.2794
     11 C          -4.5340    5.0084   25.5987 C.2     1  UNL1        0.2261
     12 C          -5.1482    5.1941   26.9545 C.3     1  UNL1        0.0948
     13 O          -5.2014    5.5887   24.3871 O.2     1  UNL1       -0.2749
     14 C          -2.6383    4.0568   24.0986 C.3     1  UNL1        0.0948
     15 C          -1.3566    3.2908   23.9543 C.3     1  UNL1        0.0375
     16 N           5.1737    0.5725   29.1193 N.am    1  UNL1       -0.2485
     17 C           4.1013    0.4430   28.0786 C.2     1  UNL1        0.3059
     18 O           3.1114   -0.6812   28.1576 O.2     1  UNL1       -0.2524
     19 N           4.0188    1.4377   26.9588 N.am    1  UNL1       -0.2889
     20 H           5.8234    1.3104   29.0674 H       1  UNL1        0.1583
     21 H           4.6685    2.1755   26.9070 H       1  UNL1        0.1510
     22 C           4.9001   -1.5420   32.3627 C.ar    1  UNL1        0.0803
     23 S           4.5231   -0.3422   31.5452 S.2     1  UNL1       -0.0488
     24 C           5.2562   -0.4221   30.2390 C.ar    1  UNL1        0.1664
     25 N           6.0864   -1.6714   30.2492 N.ar    1  UNL1       -0.2282
     26 C           5.8663   -2.3636   31.5617 C.ar    1  UNL1        0.0701
     27 C           6.5010   -3.6511   31.9968 C.3     1  UNL1        0.0528
     28 C           4.7025   -0.9415   34.8826 C.3     1  UNL1        0.0779
     29 C           4.3989   -1.8638   33.7393 C.2     1  UNL1        0.1807
     30 O           3.5942   -3.1079   33.9727 O.2     1  UNL1       -0.2908
     31 C           4.4371   -0.3534   24.5888 C.3     1  UNL1        0.0738
     32 N           4.5308   -1.4796   23.6025 N.3     1  UNL1       -0.2726
     33 C           5.2157   -2.7578   23.9864 C.3     1  UNL1        0.0721
     34 C           5.3094   -3.8840   23.0001 C.3     1  UNL1        0.0174
     35 C           4.7181   -3.7321   21.6298 C.3     1  UNL1        0.0031
     36 C           4.0332   -2.4540   21.2460 C.3     1  UNL1        0.0204
     37 C           3.9396   -1.3278   22.2324 C.3     1  UNL1        0.0724
     38 C           3.4420   -2.3021   19.8758 C.3     1  UNL1        0.0277
     39 C           2.6644   -1.0676   19.5272 C.ar    1  UNL1       -0.0220
     40 C           1.3132   -0.8355   20.1359 C.ar    1  UNL1       -0.0020
     41 C           0.5356    0.3989   19.7873 C.ar    1  UNL1        0.0293
     42 C           1.1092    1.4012   18.8299 C.ar    1  UNL1        0.1401
     43 F           0.3316    2.6356   18.4813 F       1  UNL1       -0.2042
     44 C           2.4603    1.1691   18.2213 C.ar    1  UNL1        0.0293
     45 C           3.2379   -0.0654   18.5699 C.ar    1  UNL1       -0.0020
@<TRIPOS>BOND
     1    28    29    1
     2    29    30    2
     3    29    22    1
     4    22    23   ar
     5    23    24   ar
     6    24    16    1
     7    16    17   am
     8    17    18    2
     9    17    19   am
    10     1    19    1
    11     1     2    1
    12     2     3    1
    13     3     7    1
    14     7     8    1
    15     8     9    1
    16     9    10    1
    17    10    11   am
    18    11    12    1
    19    11    13    2
    20    10    14    1
    21    14    15    1
    22     3     4    1
    23     4     5    1
    24     5     6    1
    25     6    31    1
    26    31    32    1
    27    32    33    1
    28    33    34    1
    29    34    35    1
    30    35    36    1
    31    36    38    1
    32    38    39    1
    33    39    40   ar
    34    40    41   ar
    35    41    42   ar
    36    42    43    1
    37    42    44   ar
    38    44    45   ar
    39    36    37    1
    40    24    25   ar
    41    25    26   ar
    42    26    27    1
    43    26    22   ar
    44     6     1    1
    45    37    32    1
    46    15     7    1
    47    45    39   ar
    48    16    20    1
    49    19    21    1
@<TRIPOS>MOLECULE
*****
 45 49 0 0 0
SMALL
GASTEIGER

@<TRIPOS>ATOM
      1 C           1.9484    1.2281   25.6753 C.3     1  UNL1        0.0903
      2 C           2.7847    0.7496   26.8248 C.3     1  UNL1        0.0919
      3 N           2.1381    0.4255   28.1389 N.3     1  UNL1       -0.2725
      4 C           0.6552    0.5800   28.3035 C.3     1  UNL1        0.0722
      5 C          -0.1811    1.0585   27.1539 C.3     1  UNL1        0.0204
      6 C           0.4654    1.3825   25.8398 C.3     1  UNL1        0.0368
      7 C           2.9745   -0.0530   29.2886 C.3     1  UNL1        0.0610
      8 C           2.4846    0.1204   30.6957 C.3     1  UNL1        0.0375
      9 C           3.3209   -0.3580   31.8453 C.3     1  UNL1        0.0948
     10 N           4.6471   -1.0100   31.5878 N.am    1  UNL1       -0.2794
     11 C           5.4834   -1.4885   32.7375 C.2     1  UNL1        0.2261
     12 C           4.9935   -1.3150   34.1446 C.3     1  UNL1        0.0948
     13 O           6.8095   -2.1403   32.4800 O.2     1  UNL1       -0.2749
     14 C           5.1370   -1.1834   30.1807 C.3     1  UNL1        0.0948
     15 C           4.3006   -0.7049   29.0311 C.3     1  UNL1        0.0375
     16 N           3.6867    0.7698   22.1372 N.am    1  UNL1       -0.2485
     17 C           3.0402    0.4458   23.4513 C.2     1  UNL1        0.3059
     18 O           2.8388   -0.9846   23.8557 O.2     1  UNL1       -0.2524
     19 N           2.5949    1.5521   24.3611 N.am    1  UNL1       -0.2889
     20 H           3.8188    1.7086   21.8718 H       1  UNL1        0.1583
     21 H           2.7271    2.4910   24.0957 H       1  UNL1        0.1510
     22 C           5.5040   -1.7394   19.7990 C.ar    1  UNL1        0.0803
     23 S           5.5051   -0.5020   20.6469 S.2     1  UNL1       -0.0488
     24 C           4.1319   -0.3366   21.2274 C.ar    1  UNL1        0.1664
     25 N           3.2821   -1.4717   20.7382 N.ar    1  UNL1       -0.2282
     26 C           4.1301   -2.3387   19.8555 C.ar    1  UNL1        0.0701
     27 C           3.6827   -3.5860   19.1526 C.3     1  UNL1        0.0528
     28 C           7.8533   -2.8481   19.7604 C.3     1  UNL1        0.0779
     29 C           6.6718   -2.2822   19.0298 C.2     1  UNL1        0.1807
     30 O           6.6580   -2.2590   17.5301 O.2     1  UNL1       -0.2908
     31 C          -0.3709    1.8610   24.6902 C.3     1  UNL1        0.0738
     32 N           0.0591    3.0599   23.8978 N.3     1  UNL1       -0.2726
     33 C           0.4474    4.3254   24.6035 C.3     1  UNL1        0.0721
     34 C           0.8774    5.5243   23.8111 C.3     1  UNL1        0.0174
     35 C           0.9190    5.4577   22.3131 C.3     1  UNL1        0.0031
     36 C           0.5307    4.1922   21.6076 C.3     1  UNL1        0.0204
     37 C           0.1007    2.9934   22.3999 C.3     1  UNL1        0.0724
     38 C           0.5723    4.1256   20.1096 C.3     1  UNL1        0.0277
     39 C           1.3428    3.0336   19.4285 C.ar    1  UNL1       -0.0220
     40 C           0.6480    1.7692   19.0180 C.ar    1  UNL1       -0.0020
     41 C           1.4186    0.6772   18.3370 C.ar    1  UNL1        0.0293
     42 C           2.8839    0.8497   18.0665 C.ar    1  UNL1        0.1401
     43 F           3.6545   -0.2423   17.3854 F       1  UNL1       -0.2042
     44 C           3.5786    2.1141   18.4769 C.ar    1  UNL1        0.0293
     45 C           2.8081    3.2061   19.1580 C.ar    1  UNL1       -0.0020
@<TRIPOS>BOND
     1    28    29    1
     2    29    30    2
     3    29    22    1
     4    22    23   ar
     5    23    24   ar
     6    24    16    1
     7    16    17   am
     8    17    18    2
     9    17    19   am
    10     1    19    1
    11     1     2    1
    12     2     3    1
    13     3     7    1
    14     7     8    1
    15     8     9    1
    16     9    10    1
    17    10    11   am
    18    11    12    1
    19    11    13    2
    20    10    14    1
    21    14    15    1
    22     3     4    1
    23     4     5    1
    24     5     6    1
    25     6    31    1
    26    31    32    1
    27    32    33    1
    28    33    34    1
    29    34    35    1
    30    35    36    1
    31    36    38    1
    32    38    39    1
    33    39    40   ar
    34    40    41   ar
    35    41    42   ar
    36    42    43    1
    37    42    44   ar
    38    44    45   ar
    39    36    37    1
    40    24    25   ar
    41    25    26   ar
    42    26    27    1
    43    26    22   ar
    44     6     1    1
    45    37    32    1
    46    15     7    1
    47    45    39   ar
    48    16    20    1
    49    19    21    1
@<TRIPOS>MOLECULE
*****
 45 49 0 0 0
SMALL
GASTEIGER

@<TRIPOS>ATOM
      1 C           3.9127   -0.6764   26.4203 C.3     1  UNL1        0.0903
      2 C           4.7018   -1.9370   26.6149 C.3     1  UNL1        0.0919
      3 N           5.6318   -2.0667   27.7846 N.3     1  UNL1       -0.2725
      4 C           5.7726   -0.9357   28.7598 C.3     1  UNL1        0.0722
      5 C           4.9834    0.3250   28.5653 C.3     1  UNL1        0.0204
      6 C           4.0535    0.4546   27.3955 C.3     1  UNL1        0.0368
      7 C           6.4210   -3.3274   27.9792 C.3     1  UNL1        0.0610
      8 C           6.6472   -4.2565   26.8235 C.3     1  UNL1        0.0375
      9 C           7.4364   -5.5172   27.0180 C.3     1  UNL1        0.0948
     10 N           7.9994   -5.8488   28.3683 N.am    1  UNL1       -0.2794
     11 C           8.7886   -7.1095   28.5628 C.2     1  UNL1        0.2261
     12 C           9.0148   -8.0386   27.4071 C.3     1  UNL1        0.0948
     13 O           9.3516   -7.4410   29.9130 O.2     1  UNL1       -0.2749
     14 C           7.7732   -4.9197   29.5240 C.3     1  UNL1        0.0948
     15 C           6.9840   -3.6590   29.3294 C.3     1  UNL1        0.0375
     16 N           2.6069   -0.2748   22.6942 N.am    1  UNL1       -0.2485
     17 C           3.5369   -0.4045   23.8640 C.2     1  UNL1        0.3059
     18 O           5.0211   -0.3921   23.6472 O.2     1  UNL1       -0.2524
     19 N           2.9826   -0.5467   25.2506 N.am    1  UNL1       -0.2889
     20 H           1.6328   -0.2830   22.8365 H       1  UNL1        0.1583
     21 H           2.0085   -0.5548   25.3929 H       1  UNL1        0.1510
     22 C           4.0096   -0.6598   19.0956 C.ar    1  UNL1        0.0803
     23 S           3.4798   -1.2559   20.3660 S.2     1  UNL1       -0.0488
     24 C           3.1611   -0.1326   21.3076 C.ar    1  UNL1        0.1664
     25 N           3.4940    1.1578   20.6192 N.ar    1  UNL1       -0.2282
     26 C           4.0184    0.8320   19.2521 C.ar    1  UNL1        0.0701
     27 C           4.4720    1.8239   18.2223 C.3     1  UNL1        0.0528
     28 C           5.4065   -2.5706   18.0245 C.3     1  UNL1        0.0779
     29 C           4.4528   -1.4217   17.8819 C.2     1  UNL1        0.1807
     30 O           3.9423   -1.0346   16.5257 O.2     1  UNL1       -0.2908
     31 C           3.2642    1.7153   27.2010 C.3     1  UNL1        0.0738
     32 N           1.7680    1.6868   27.3035 N.3     1  UNL1       -0.2726
     33 C           1.1083    0.9882   28.4554 C.3     1  UNL1        0.0721
     34 C          -0.3879    0.9597   28.5579 C.3     1  UNL1        0.0174
     35 C          -1.2244    1.6299   27.5084 C.3     1  UNL1        0.0031
     36 C          -0.5647    2.3284   26.3566 C.3     1  UNL1        0.0204
     37 C           0.9315    2.3569   26.2541 C.3     1  UNL1        0.0724
     38 C          -1.4013    2.9986   25.3072 C.3     1  UNL1        0.0277
     39 C          -2.6724    3.6951   25.6932 C.ar    1  UNL1       -0.0220
     40 C          -2.6586    4.7378   26.7715 C.ar    1  UNL1       -0.0020
     41 C          -3.9297    5.4344   27.1576 C.ar    1  UNL1        0.0293
     42 C          -5.2147    5.0882   26.4654 C.ar    1  UNL1        0.1401
     43 F          -6.4858    5.7848   26.8514 F       1  UNL1       -0.2042
     44 C          -5.2285    4.0456   25.3871 C.ar    1  UNL1        0.0293
     45 C          -3.9573    3.3490   25.0011 C.ar    1  UNL1       -0.0020
@<TRIPOS>BOND
     1    28    29    1
     2    29    30    2
     3    29    22    1
     4    22    23   ar
     5    23    24   ar
     6    24    16    1
     7    16    17   am
     8    17    18    2
     9    17    19   am
    10     1    19    1
    11     1     2    1
    12     2     3    1
    13     3     7    1
    14     7     8    1
    15     8     9    1
    16     9    10    1
    17    10    11   am
    18    11    12    1
    19    11    13    2
    20    10    14    1
    21    14    15    1
    22     3     4    1
    23     4     5    1
    24     5     6    1
    25     6    31    1
    26    31    32    1
    27    32    33    1
    28    33    34    1
    29    34    35    1
    30    35    36    1
    31    36    38    1
    32    38    39    1
    33    39    40   ar
    34    40    41   ar
    35    41    42   ar
    36    42    43    1
    37    42    44   ar
    38    44    45   ar
    39    36    37    1
    40    24    25   ar
    41    25    26   ar
    42    26    27    1
    43    26    22   ar
    44     6     1    1
    45    37    32    1
    46    15     7    1
    47    45    39   ar
    48    16    20    1
    49    19    21    1
