@<TRIPOS>MOLECULE
*****
 41 45 0 0 0
SMALL
GASTEIGER

@<TRIPOS>ATOM
      1 C          -8.1021  -16.4158   25.6767 C.ar    1  UNL1        0.0272
      2 C          -6.9457  -16.2008   24.7458 C.ar    1  UNL1       -0.0004
      3 C          -5.7614  -15.3969   25.1943 C.ar    1  UNL1       -0.0024
      4 C          -5.7335  -14.8080   26.5735 C.ar    1  UNL1       -0.0003
      5 C          -6.8899  -15.0230   27.5044 C.ar    1  UNL1        0.0294
      6 C          -8.0742  -15.8269   27.0560 C.ar    1  UNL1        0.1401
      7 F          -9.2306  -16.0419   27.9868 F       1  UNL1       -0.2042
      8 C         -11.3756  -17.4920   23.7080 C.ar    1  UNL1       -0.0061
      9 C         -11.6551  -18.8275   24.3313 C.ar    1  UNL1       -0.0029
     10 C         -10.7503  -19.3590   25.4031 C.ar    1  UNL1       -0.0003
     11 C          -9.5659  -18.5551   25.8515 C.ar    1  UNL1        0.0001
     12 C          -9.2865  -17.2197   25.2282 C.ar    1  UNL1        0.0019
     13 C         -10.1913  -16.6882   24.1565 C.ar    1  UNL1       -0.0028
     14 C         -12.2805  -16.9605   22.6362 C.3     1  UNL1        0.0992
     15 C          -8.4748  -14.1782   20.4508 C.3     1  UNL1        0.0186
     16 C          -9.7961  -14.8802   20.3447 C.3     1  UNL1        0.0703
     17 C         -10.3776  -15.5693   21.5434 C.3     1  UNL1        0.0882
     18 N         -11.6990  -16.2713   21.4374 N.3     1  UNL1       -0.2666
     19 C         -12.4388  -16.2843   20.1326 C.3     1  UNL1        0.0897
     20 C         -11.8573  -15.5952   18.9339 C.3     1  UNL1        0.0861
     21 N         -10.5360  -14.8931   19.0400 N.3     1  UNL1       -0.2963
     22 H         -10.6986  -13.9193   18.7840 H       1  UNL1        0.1233
     23 C          -4.6050  -15.1819   24.2634 C.3     1  UNL1        0.1166
     24 N          -4.4295  -16.0703   23.0676 N.am    1  UNL1       -0.2969
     25 C          -3.9472  -17.4796   23.2446 C.2     1  UNL1        0.2461
     26 O          -3.6404  -18.0005   24.6174 O.2     1  UNL1       -0.2701
     27 H          -4.6308  -15.7284   22.1666 H       1  UNL1        0.1501
     28 C          -3.7717  -18.3680   22.0488 C.ar    1  UNL1        0.0530
     29 C          -2.4128  -18.5451   21.4390 C.ar    1  UNL1        0.0045
     30 C          -2.2373  -19.4335   20.2431 C.ar    1  UNL1       -0.0002
     31 C          -3.4208  -20.1448   19.6571 C.ar    1  UNL1       -0.0043
     32 C          -4.7798  -19.9677   20.2670 C.ar    1  UNL1       -0.0220
     33 C          -4.9552  -19.0793   21.4628 C.ar    1  UNL1        0.0002
     34 C          -5.9633  -20.6790   19.6810 C.3     1  UNL1        0.0264
     35 C          -7.3506  -20.1789   19.9561 C.3     1  UNL1        0.0071
     36 C          -8.3560  -20.1074   18.8452 C.3     1  UNL1        0.0175
     37 C          -9.7432  -19.6074   19.1203 C.3     1  UNL1        0.0686
     38 N         -10.1249  -19.1789   20.5062 N.3     1  UNL1       -0.2975
     39 C          -9.1195  -19.2505   21.6170 C.3     1  UNL1        0.0686
     40 C          -7.7323  -19.7505   21.3420 C.3     1  UNL1        0.0175
     41 H         -10.9153  -19.7595   20.7866 H       1  UNL1        0.1232
@<TRIPOS>BOND
     1    16    15    1
     2    16    17    1
     3    17    18    1
     4    18    14    1
     5    14     8    1
     6     8     9   ar
     7     9    10   ar
     8    10    11   ar
     9    11    12   ar
    10    12     1    1
    11     1     2   ar
    12     2     3   ar
    13     3    23    1
    14    23    24    1
    15    24    25   am
    16    25    26    2
    17    25    28    1
    18    28    29   ar
    19    29    30   ar
    20    30    31   ar
    21    31    32   ar
    22    32    34    1
    23    34    35    1
    24    35    36    1
    25    36    37    1
    26    37    38    1
    27    38    39    1
    28    39    40    1
    29    32    33   ar
    30     3     4   ar
    31     4     5   ar
    32     5     6   ar
    33     6     7    1
    34    12    13   ar
    35    18    19    1
    36    19    20    1
    37    20    21    1
    38    21    16    1
    39    13     8   ar
    40     6     1   ar
    41    33    28   ar
    42    40    35    1
    43    24    27    1
    44    38    41    1
    45    21    22    1
@<TRIPOS>MOLECULE
*****
 41 45 0 0 0
SMALL
GASTEIGER

@<TRIPOS>ATOM
      1 C           7.6994   -4.7512   29.5064 C.ar    1  UNL1        0.0272
      2 C           7.3389   -4.3339   28.1114 C.ar    1  UNL1       -0.0004
      3 C           7.4835   -5.3047   26.9771 C.ar    1  UNL1       -0.0024
      4 C           7.9885   -6.6928   27.2378 C.ar    1  UNL1       -0.0003
      5 C           8.3490   -7.1101   28.6328 C.ar    1  UNL1        0.0294
      6 C           8.2044   -6.1393   29.7670 C.ar    1  UNL1        0.1401
      7 F           8.5648   -6.5567   31.1620 F       1  UNL1       -0.2042
      8 C           6.0598   -2.5543   32.3761 C.ar    1  UNL1       -0.0061
      9 C           7.2655   -1.8387   32.9092 C.ar    1  UNL1       -0.0029
     10 C           8.6158   -2.0939   32.3080 C.ar    1  UNL1       -0.0003
     11 C           8.7604   -3.0647   31.1737 C.ar    1  UNL1        0.0001
     12 C           7.5547   -3.7803   30.6407 C.ar    1  UNL1        0.0019
     13 C           6.2044   -3.5251   31.2419 C.ar    1  UNL1       -0.0028
     14 C           4.7094   -2.2991   32.9773 C.3     1  UNL1        0.0992
     15 C           1.7081   -0.3298   29.2205 C.3     1  UNL1        0.0186
     16 C           2.3502   -0.2039   30.5702 C.3     1  UNL1        0.0703
     17 C           3.2088   -1.3144   31.0989 C.3     1  UNL1        0.0882
     18 N           3.8508   -1.1885   32.4487 N.3     1  UNL1       -0.2666
     19 C           3.6343    0.0479   33.2698 C.3     1  UNL1        0.0897
     20 C           2.7758    1.1585   32.7411 C.3     1  UNL1        0.0861
     21 N           2.1337    1.0326   31.3913 N.3     1  UNL1       -0.2963
     22 H           2.4658    1.8188   30.8328 H       1  UNL1        0.1233
     23 C           7.1231   -4.8873   25.5822 C.3     1  UNL1        0.1166
     24 N           6.1253   -3.7891   25.3621 N.am    1  UNL1       -0.2969
     25 C           5.6287   -3.4933   23.9779 C.2     1  UNL1        0.2461
     26 O           6.1299   -4.2957   22.8139 O.2     1  UNL1       -0.2701
     27 H           5.7964   -3.2625   26.1261 H       1  UNL1        0.1501
     28 C           4.6310   -2.3950   23.7578 C.ar    1  UNL1        0.0530
     29 C           4.2599   -1.4813   24.8880 C.ar    1  UNL1        0.0045
     30 C           3.2621   -0.3831   24.6679 C.ar    1  UNL1       -0.0002
     31 C           2.6355   -0.1986   23.3176 C.ar    1  UNL1       -0.0043
     32 C           3.0066   -1.1124   22.1874 C.ar    1  UNL1       -0.0220
     33 C           4.0043   -2.2106   22.4075 C.ar    1  UNL1        0.0002
     34 C           2.3800   -0.9279   20.8371 C.3     1  UNL1        0.0264
     35 C           3.1533   -1.2707   19.5983 C.3     1  UNL1        0.0071
     36 C           3.2569   -0.2767   18.4797 C.3     1  UNL1        0.0175
     37 C           4.0301   -0.6195   17.2410 C.3     1  UNL1        0.0686
     38 N           4.6998   -1.9563   17.1208 N.3     1  UNL1       -0.2975
     39 C           4.5962   -2.9503   18.2393 C.3     1  UNL1        0.0686
     40 C           3.8230   -2.6075   19.4781 C.3     1  UNL1        0.0175
     41 H           5.6936   -1.7760   16.9782 H       1  UNL1        0.1232
@<TRIPOS>BOND
     1    16    15    1
     2    16    17    1
     3    17    18    1
     4    18    14    1
     5    14     8    1
     6     8     9   ar
     7     9    10   ar
     8    10    11   ar
     9    11    12   ar
    10    12     1    1
    11     1     2   ar
    12     2     3   ar
    13     3    23    1
    14    23    24    1
    15    24    25   am
    16    25    26    2
    17    25    28    1
    18    28    29   ar
    19    29    30   ar
    20    30    31   ar
    21    31    32   ar
    22    32    34    1
    23    34    35    1
    24    35    36    1
    25    36    37    1
    26    37    38    1
    27    38    39    1
    28    39    40    1
    29    32    33   ar
    30     3     4   ar
    31     4     5   ar
    32     5     6   ar
    33     6     7    1
    34    12    13   ar
    35    18    19    1
    36    19    20    1
    37    20    21    1
    38    21    16    1
    39    13     8   ar
    40     6     1   ar
    41    33    28   ar
    42    40    35    1
    43    24    27    1
    44    38    41    1
    45    21    22    1
@<TRIPOS>MOLECULE
*****
 41 45 0 0 0
SMALL
GASTEIGER

@<TRIPOS>ATOM
      1 C           6.7347   -2.1359   32.6450 C.ar    1  UNL1        0.0272
      2 C           6.2965   -3.4031   31.9728 C.ar    1  UNL1       -0.0004
      3 C           7.3180   -4.4030   31.5182 C.ar    1  UNL1       -0.0024
      4 C           8.7778   -4.1356   31.7360 C.ar    1  UNL1       -0.0003
      5 C           9.2160   -2.8683   32.4083 C.ar    1  UNL1        0.0294
      6 C           8.1945   -1.8684   32.8628 C.ar    1  UNL1        0.1401
      7 F           8.6327   -0.6012   33.5351 F       1  UNL1       -0.2042
      8 C           4.8299    0.5206   34.8956 C.ar    1  UNL1       -0.0061
      9 C           3.6698    0.8637   34.0087 C.ar    1  UNL1       -0.0029
     10 C           3.5314    0.2070   32.6672 C.ar    1  UNL1       -0.0003
     11 C           4.5530   -0.7929   32.2127 C.ar    1  UNL1        0.0001
     12 C           5.7130   -1.1360   33.0996 C.ar    1  UNL1        0.0019
     13 C           5.8515   -0.4792   34.4410 C.ar    1  UNL1       -0.0028
     14 C           4.9684    1.1774   36.2370 C.3     1  UNL1        0.0992
     15 C           1.1776    0.2746   39.6744 C.3     1  UNL1        0.0186
     16 C           1.8518    1.1881   38.6941 C.3     1  UNL1        0.0703
     17 C           3.0730    0.7261   37.9557 C.3     1  UNL1        0.0882
     18 N           3.7472    1.6396   36.9754 N.3     1  UNL1       -0.2666
     19 C           3.2002    3.0152   36.7336 C.3     1  UNL1        0.0897
     20 C           1.9791    3.4773   37.4719 C.3     1  UNL1        0.0861
     21 N           1.3049    2.5637   38.4522 N.3     1  UNL1       -0.2963
     22 H           0.3436    2.4463   38.1322 H       1  UNL1        0.1233
     23 C           6.8798   -5.6703   30.8459 C.3     1  UNL1        0.1166
     24 N           6.8716   -5.7609   29.3487 N.am    1  UNL1       -0.2969
     25 C           8.0650   -6.3094   28.6240 C.2     1  UNL1        0.2461
     26 O           9.2665   -6.7672   29.3965 O.2     1  UNL1       -0.2701
     27 H           6.0831   -5.4605   28.8417 H       1  UNL1        0.1501
     28 C           8.0568   -6.4000   27.1268 C.ar    1  UNL1        0.0530
     29 C           8.1202   -7.7402   26.4562 C.ar    1  UNL1        0.0045
     30 C           8.1120   -7.8309   24.9589 C.ar    1  UNL1       -0.0002
     31 C           8.0403   -6.5812   24.1323 C.ar    1  UNL1       -0.0043
     32 C           7.9769   -5.2410   24.8029 C.ar    1  UNL1       -0.0220
     33 C           7.9851   -5.1504   26.3001 C.ar    1  UNL1        0.0002
     34 C           7.9052   -3.9913   23.9763 C.3     1  UNL1        0.0264
     35 C           6.8894   -3.8754   22.8786 C.3     1  UNL1        0.0071
     36 C           5.4426   -3.6661   23.2147 C.3     1  UNL1        0.0175
     37 C           4.4269   -3.5503   22.1170 C.3     1  UNL1        0.0686
     38 N           4.8580   -3.6437   20.6833 N.3     1  UNL1       -0.2975
     39 C           6.3048   -3.8530   20.3473 C.3     1  UNL1        0.0686
     40 C           7.3205   -3.9689   21.4450 C.3     1  UNL1        0.0175
     41 H           4.5741   -2.7735   20.2332 H       1  UNL1        0.1232
@<TRIPOS>BOND
     1    16    15    1
     2    16    17    1
     3    17    18    1
     4    18    14    1
     5    14     8    1
     6     8     9   ar
     7     9    10   ar
     8    10    11   ar
     9    11    12   ar
    10    12     1    1
    11     1     2   ar
    12     2     3   ar
    13     3    23    1
    14    23    24    1
    15    24    25   am
    16    25    26    2
    17    25    28    1
    18    28    29   ar
    19    29    30   ar
    20    30    31   ar
    21    31    32   ar
    22    32    34    1
    23    34    35    1
    24    35    36    1
    25    36    37    1
    26    37    38    1
    27    38    39    1
    28    39    40    1
    29    32    33   ar
    30     3     4   ar
    31     4     5   ar
    32     5     6   ar
    33     6     7    1
    34    12    13   ar
    35    18    19    1
    36    19    20    1
    37    20    21    1
    38    21    16    1
    39    13     8   ar
    40     6     1   ar
    41    33    28   ar
    42    40    35    1
    43    24    27    1
    44    38    41    1
    45    21    22    1
@<TRIPOS>MOLECULE
*****
 41 45 0 0 0
SMALL
GASTEIGER

@<TRIPOS>ATOM
      1 C         -12.4050   -2.7944   18.5212 C.ar    1  UNL1        0.0272
      2 C         -13.8030   -2.7360   19.0619 C.ar    1  UNL1       -0.0004
      3 C         -14.5404   -1.4303   19.0951 C.ar    1  UNL1       -0.0024
      4 C         -13.8799   -0.1828   18.5876 C.ar    1  UNL1       -0.0003
      5 C         -12.4819   -0.2412   18.0470 C.ar    1  UNL1        0.0294
      6 C         -11.7445   -1.5469   18.0138 C.ar    1  UNL1        0.1401
      7 F         -10.3465   -1.6052   17.4731 F       1  UNL1       -0.2042
      8 C         -11.5780   -6.6180   17.8537 C.ar    1  UNL1       -0.0061
      9 C         -10.1928   -6.7119   18.4217 C.ar    1  UNL1       -0.0029
     10 C          -9.5450   -5.4998   19.0228 C.ar    1  UNL1       -0.0003
     11 C         -10.2825   -4.1940   19.0560 C.ar    1  UNL1        0.0001
     12 C         -11.6676   -4.1002   18.4880 C.ar    1  UNL1        0.0019
     13 C         -12.3153   -5.3122   17.8869 C.ar    1  UNL1       -0.0028
     14 C         -12.2257   -7.8301   17.2525 C.3     1  UNL1        0.0992
     15 C         -16.5300   -9.1543   19.8447 C.3     1  UNL1        0.0186
     16 C         -15.8690   -8.6475   18.5972 C.3     1  UNL1        0.0703
     17 C         -14.3779   -8.4922   18.5486 C.3     1  UNL1        0.0882
     18 N         -13.7169   -7.9854   17.3011 N.3     1  UNL1       -0.2666
     19 C         -14.5470   -7.6340   16.1022 C.3     1  UNL1        0.0897
     20 C         -16.0382   -7.7893   16.1508 C.3     1  UNL1        0.0861
     21 N         -16.6991   -8.2961   17.3984 N.3     1  UNL1       -0.2963
     22 H         -17.2123   -9.1384   17.1384 H       1  UNL1        0.1233
     23 C         -15.9383   -1.3720   19.6358 C.3     1  UNL1        0.1166
     24 N         -16.3150   -0.3124   20.6284 N.am    1  UNL1       -0.2969
     25 C         -17.0813    0.8967   20.1803 C.2     1  UNL1        0.2461
     26 O         -17.4710    1.0463   18.7396 O.2     1  UNL1       -0.2701
     27 H         -16.0592   -0.4105   21.5740 H       1  UNL1        0.1501
     28 C         -17.4579    1.9564   21.1731 C.ar    1  UNL1        0.0530
     29 C         -18.7332    1.8340   21.9532 C.ar    1  UNL1        0.0045
     30 C         -19.1098    2.8936   22.9459 C.ar    1  UNL1       -0.0002
     31 C         -18.2111    4.0756   23.1584 C.ar    1  UNL1       -0.0043
     32 C         -16.9358    4.1980   22.3783 C.ar    1  UNL1       -0.0220
     33 C         -16.5592    3.1384   21.3856 C.ar    1  UNL1        0.0002
     34 C         -16.0371    5.3800   22.5908 C.3     1  UNL1        0.0264
     35 C         -15.1584    5.4454   23.8048 C.3     1  UNL1        0.0071
     36 C         -13.7066    5.0833   23.7003 C.3     1  UNL1        0.0175
     37 C         -12.8281    5.1487   24.9143 C.3     1  UNL1        0.0686
     38 N         -13.4014    5.5762   26.2328 N.3     1  UNL1       -0.2975
     39 C         -14.8532    5.9383   26.3374 C.3     1  UNL1        0.0686
     40 C         -15.7317    5.8729   25.1234 C.3     1  UNL1        0.0175
     41 H         -12.8715    6.3945   26.5329 H       1  UNL1        0.1232
@<TRIPOS>BOND
     1    16    15    1
     2    16    17    1
     3    17    18    1
     4    18    14    1
     5    14     8    1
     6     8     9   ar
     7     9    10   ar
     8    10    11   ar
     9    11    12   ar
    10    12     1    1
    11     1     2   ar
    12     2     3   ar
    13     3    23    1
    14    23    24    1
    15    24    25   am
    16    25    26    2
    17    25    28    1
    18    28    29   ar
    19    29    30   ar
    20    30    31   ar
    21    31    32   ar
    22    32    34    1
    23    34    35    1
    24    35    36    1
    25    36    37    1
    26    37    38    1
    27    38    39    1
    28    39    40    1
    29    32    33   ar
    30     3     4   ar
    31     4     5   ar
    32     5     6   ar
    33     6     7    1
    34    12    13   ar
    35    18    19    1
    36    19    20    1
    37    20    21    1
    38    21    16    1
    39    13     8   ar
    40     6     1   ar
    41    33    28   ar
    42    40    35    1
    43    24    27    1
    44    38    41    1
    45    21    22    1
@<TRIPOS>MOLECULE
*****
 41 45 0 0 0
SMALL
GASTEIGER

@<TRIPOS>ATOM
      1 C           7.8428   -5.8651   25.8472 C.ar    1  UNL1        0.0272
      2 C           7.9715   -5.6523   27.3264 C.ar    1  UNL1       -0.0004
      3 C           8.3945   -6.7857   28.2132 C.ar    1  UNL1       -0.0024
      4 C           8.6889   -8.1319   27.6207 C.ar    1  UNL1       -0.0003
      5 C           8.5602   -8.3447   26.1415 C.ar    1  UNL1        0.0294
      6 C           8.1372   -7.2113   25.2547 C.ar    1  UNL1        0.1401
      7 F           8.0085   -7.4240   23.7755 F       1  UNL1       -0.2042
      8 C           7.5037   -3.5192   22.6641 C.ar    1  UNL1       -0.0061
      9 C           6.5737   -2.4647   23.1869 C.ar    1  UNL1       -0.0029
     10 C           6.0667   -2.5437   24.5964 C.ar    1  UNL1       -0.0003
     11 C           6.4897   -3.6772   25.4832 C.ar    1  UNL1        0.0001
     12 C           7.4197   -4.7316   24.9604 C.ar    1  UNL1        0.0019
     13 C           7.9267   -4.6526   23.5509 C.ar    1  UNL1       -0.0028
     14 C           8.0107   -3.4401   21.2546 C.3     1  UNL1        0.0992
     15 C           3.4695   -4.4908   18.9581 C.3     1  UNL1        0.0186
     16 C           4.7784   -3.7583   18.9740 C.3     1  UNL1        0.0703
     17 C           5.7401   -3.9654   20.1063 C.3     1  UNL1        0.0882
     18 N           7.0490   -3.2330   20.1222 N.3     1  UNL1       -0.2666
     19 C           7.3963   -2.2935   19.0057 C.3     1  UNL1        0.0897
     20 C           6.4346   -2.0864   17.8733 C.3     1  UNL1        0.0861
     21 N           5.1257   -2.8188   17.8575 N.3     1  UNL1       -0.2963
     22 H           5.1040   -3.3645   16.9960 H       1  UNL1        0.1233
     23 C           8.5232   -6.5729   29.6924 C.3     1  UNL1        0.1166
     24 N           8.3424   -5.2010   30.2713 N.am    1  UNL1       -0.2969
     25 C           7.4175   -4.9934   31.4339 C.2     1  UNL1        0.2461
     26 O           6.6734   -6.1578   32.0175 O.2     1  UNL1       -0.2701
     27 H           8.8308   -4.4368   29.8883 H       1  UNL1        0.1501
     28 C           7.2367   -3.6215   32.0128 C.ar    1  UNL1        0.0530
     29 C           8.4166   -2.7066   32.1566 C.ar    1  UNL1        0.0045
     30 C           8.2358   -1.3347   32.7355 C.ar    1  UNL1       -0.0002
     31 C           6.8750   -0.8776   33.1706 C.ar    1  UNL1       -0.0043
     32 C           5.6950   -1.7925   33.0267 C.ar    1  UNL1       -0.0220
     33 C           5.8759   -3.1644   32.4479 C.ar    1  UNL1        0.0002
     34 C           4.3342   -1.3354   33.4618 C.3     1  UNL1        0.0264
     35 C           3.5335   -0.4212   32.5825 C.3     1  UNL1        0.0071
     36 C           3.1270    0.9336   33.0818 C.3     1  UNL1        0.0175
     37 C           2.3263    1.8478   32.2026 C.3     1  UNL1        0.0686
     38 N           1.9320    1.4071   30.8240 N.3     1  UNL1       -0.2975
     39 C           2.3385    0.0523   30.3247 C.3     1  UNL1        0.0686
     40 C           3.1392   -0.8618   31.2040 C.3     1  UNL1        0.0175
     41 H           2.3219    2.0897   30.1740 H       1  UNL1        0.1232
@<TRIPOS>BOND
     1    16    15    1
     2    16    17    1
     3    17    18    1
     4    18    14    1
     5    14     8    1
     6     8     9   ar
     7     9    10   ar
     8    10    11   ar
     9    11    12   ar
    10    12     1    1
    11     1     2   ar
    12     2     3   ar
    13     3    23    1
    14    23    24    1
    15    24    25   am
    16    25    26    2
    17    25    28    1
    18    28    29   ar
    19    29    30   ar
    20    30    31   ar
    21    31    32   ar
    22    32    34    1
    23    34    35    1
    24    35    36    1
    25    36    37    1
    26    37    38    1
    27    38    39    1
    28    39    40    1
    29    32    33   ar
    30     3     4   ar
    31     4     5   ar
    32     5     6   ar
    33     6     7    1
    34    12    13   ar
    35    18    19    1
    36    19    20    1
    37    20    21    1
    38    21    16    1
    39    13     8   ar
    40     6     1   ar
    41    33    28   ar
    42    40    35    1
    43    24    27    1
    44    38    41    1
    45    21    22    1
@<TRIPOS>MOLECULE
*****
 41 45 0 0 0
SMALL
GASTEIGER

@<TRIPOS>ATOM
      1 C          -3.0059    3.7895   25.2811 C.ar    1  UNL1        0.0272
      2 C          -2.7115    3.6241   23.8197 C.ar    1  UNL1       -0.0004
      3 C          -3.8325    3.6334   22.8231 C.ar    1  UNL1       -0.0024
      4 C          -5.2479    3.8081   23.2880 C.ar    1  UNL1       -0.0003
      5 C          -5.5422    3.9736   24.7495 C.ar    1  UNL1        0.0294
      6 C          -4.4212    3.9643   25.7461 C.ar    1  UNL1        0.1401
      7 F          -4.7156    4.1298   27.2075 F       1  UNL1       -0.2042
      8 C          -0.2334    2.4677   27.7943 C.ar    1  UNL1       -0.0061
      9 C           0.3573    3.7615   28.2709 C.ar    1  UNL1       -0.0029
     10 C          -0.1731    5.0647   27.7509 C.ar    1  UNL1       -0.0003
     11 C          -1.2942    5.0740   26.7543 C.ar    1  UNL1        0.0001
     12 C          -1.8848    3.7802   26.2778 C.ar    1  UNL1        0.0019
     13 C          -1.3544    2.4770   26.7978 C.ar    1  UNL1       -0.0028
     14 C           0.2970    1.1645   28.3143 C.3     1  UNL1        0.0992
     15 C           3.6801    0.8530   24.3827 C.3     1  UNL1        0.0186
     16 C           3.2135    0.3989   25.7340 C.3     1  UNL1        0.0703
     17 C           1.9886    1.0087   26.3485 C.3     1  UNL1        0.0882
     18 N           1.5220    0.5546   27.6998 N.3     1  UNL1       -0.2666
     19 C           2.2803   -0.5094   28.4366 C.3     1  UNL1        0.0897
     20 C           3.5052   -1.1192   27.8221 C.3     1  UNL1        0.0861
     21 N           3.9718   -0.6651   26.4708 N.3     1  UNL1       -0.2963
     22 H           3.9812   -1.4894   25.8701 H       1  UNL1        0.1233
     23 C          -3.5382    3.4679   21.3616 C.3     1  UNL1        0.1166
     24 N          -2.3232    2.7054   20.9228 N.am    1  UNL1       -0.2969
     25 C          -1.1847    3.4244   20.2620 C.2     1  UNL1        0.2461
     26 O          -1.2610    4.9059   20.0399 O.2     1  UNL1       -0.2701
     27 H          -2.2731    1.7331   21.0686 H       1  UNL1        0.1501
     28 C           0.0303    2.6618   19.8232 C.ar    1  UNL1        0.0530
     29 C           1.1100    3.3542   19.0456 C.ar    1  UNL1        0.0045
     30 C           2.3250    2.5916   18.6069 C.ar    1  UNL1       -0.0002
     31 C           2.4602    1.1367   18.9458 C.ar    1  UNL1       -0.0043
     32 C           1.3804    0.4443   19.7235 C.ar    1  UNL1       -0.0220
     33 C           0.1655    1.2069   20.1622 C.ar    1  UNL1        0.0002
     34 C           1.5155   -1.0106   20.0625 C.3     1  UNL1        0.0264
     35 C           2.8758   -1.6118   20.2585 C.3     1  UNL1        0.0071
     36 C           3.5757   -1.4692   21.5775 C.3     1  UNL1        0.0175
     37 C           4.9359   -2.0703   21.7735 C.3     1  UNL1        0.0686
     38 N           5.5962   -2.8141   20.6506 N.3     1  UNL1       -0.2975
     39 C           4.8962   -2.9566   19.3317 C.3     1  UNL1        0.0686
     40 C           3.5360   -2.3555   19.1356 C.3     1  UNL1        0.0175
     41 H           5.7793   -3.7582   20.9903 H       1  UNL1        0.1232
@<TRIPOS>BOND
     1    16    15    1
     2    16    17    1
     3    17    18    1
     4    18    14    1
     5    14     8    1
     6     8     9   ar
     7     9    10   ar
     8    10    11   ar
     9    11    12   ar
    10    12     1    1
    11     1     2   ar
    12     2     3   ar
    13     3    23    1
    14    23    24    1
    15    24    25   am
    16    25    26    2
    17    25    28    1
    18    28    29   ar
    19    29    30   ar
    20    30    31   ar
    21    31    32   ar
    22    32    34    1
    23    34    35    1
    24    35    36    1
    25    36    37    1
    26    37    38    1
    27    38    39    1
    28    39    40    1
    29    32    33   ar
    30     3     4   ar
    31     4     5   ar
    32     5     6   ar
    33     6     7    1
    34    12    13   ar
    35    18    19    1
    36    19    20    1
    37    20    21    1
    38    21    16    1
    39    13     8   ar
    40     6     1   ar
    41    33    28   ar
    42    40    35    1
    43    24    27    1
    44    38    41    1
    45    21    22    1
@<TRIPOS>MOLECULE
*****
 41 45 0 0 0
SMALL
GASTEIGER

@<TRIPOS>ATOM
      1 C           2.5987    0.7603   26.8068 C.ar    1  UNL1        0.0272
      2 C           2.3283    0.9134   25.3393 C.ar    1  UNL1       -0.0004
      3 C           0.9328    1.1788   24.8575 C.ar    1  UNL1       -0.0024
      4 C          -0.1922    1.2912   25.8431 C.ar    1  UNL1       -0.0003
      5 C           0.0781    1.1382   27.3106 C.ar    1  UNL1        0.0294
      6 C           1.4736    0.8727   27.7924 C.ar    1  UNL1        0.1401
      7 F           1.7440    0.7197   29.2599 F       1  UNL1       -0.2042
      8 C           5.8466   -1.1799   28.0053 C.ar    1  UNL1       -0.0061
      9 C           6.7852   -0.0361   28.2522 C.ar    1  UNL1       -0.0029
     10 C           6.3283    1.3731   28.0172 C.ar    1  UNL1       -0.0003
     11 C           4.9327    1.6386   27.5354 C.ar    1  UNL1        0.0001
     12 C           3.9942    0.4948   27.2886 C.ar    1  UNL1        0.0019
     13 C           4.4511   -0.9144   27.5236 C.ar    1  UNL1       -0.0028
     14 C           6.3035   -2.5892   28.2403 C.3     1  UNL1        0.0992
     15 C           5.2051   -2.1221   33.2975 C.3     1  UNL1        0.0186
     16 C           5.7853   -2.9116   32.1617 C.3     1  UNL1        0.0703
     17 C           5.7543   -2.3557   30.7689 C.3     1  UNL1        0.0882
     18 N           6.3345   -3.1452   29.6332 N.3     1  UNL1       -0.2666
     19 C           6.9457   -4.4907   29.8902 C.3     1  UNL1        0.0897
     20 C           6.9767   -5.0466   31.2830 C.3     1  UNL1        0.0861
     21 N           6.3965   -4.2571   32.4187 N.3     1  UNL1       -0.2963
     22 H           7.1485   -4.1149   33.0930 H       1  UNL1        0.1233
     23 C           0.6624    1.3319   23.3900 C.3     1  UNL1        0.1166
     24 N           1.5876    0.7077   22.3878 N.am    1  UNL1       -0.2969
     25 C           1.0960    0.3964   21.0053 C.2     1  UNL1        0.2461
     26 O          -0.3208    0.7093   20.6250 O.2     1  UNL1       -0.2701
     27 H           2.5175    0.5024   22.6375 H       1  UNL1        0.1501
     28 C           2.0213   -0.2278   20.0031 C.ar    1  UNL1        0.0530
     29 C           2.3343    0.4890   18.7232 C.ar    1  UNL1        0.0045
     30 C           3.2596   -0.1352   17.7210 C.ar    1  UNL1       -0.0002
     31 C           3.8717   -1.4762   17.9988 C.ar    1  UNL1       -0.0043
     32 C           3.5586   -2.1929   19.2788 C.ar    1  UNL1       -0.0220
     33 C           2.6334   -1.5687   20.2809 C.ar    1  UNL1        0.0002
     34 C           4.1708   -3.5339   19.5566 C.3     1  UNL1        0.0264
     35 C           5.1454   -3.6940   20.6855 C.3     1  UNL1        0.0071
     36 C           6.6081   -3.8574   20.3961 C.3     1  UNL1        0.0175
     37 C           7.5826   -4.0176   21.5251 C.3     1  UNL1        0.0686
     38 N           7.0945   -4.0143   22.9434 N.3     1  UNL1       -0.2975
     39 C           5.6318   -3.8510   23.2328 C.3     1  UNL1        0.0686
     40 C           4.6572   -3.6908   22.1039 C.3     1  UNL1        0.0175
     41 H           7.5757   -3.2509   23.4187 H       1  UNL1        0.1232
@<TRIPOS>BOND
     1    16    15    1
     2    16    17    1
     3    17    18    1
     4    18    14    1
     5    14     8    1
     6     8     9   ar
     7     9    10   ar
     8    10    11   ar
     9    11    12   ar
    10    12     1    1
    11     1     2   ar
    12     2     3   ar
    13     3    23    1
    14    23    24    1
    15    24    25   am
    16    25    26    2
    17    25    28    1
    18    28    29   ar
    19    29    30   ar
    20    30    31   ar
    21    31    32   ar
    22    32    34    1
    23    34    35    1
    24    35    36    1
    25    36    37    1
    26    37    38    1
    27    38    39    1
    28    39    40    1
    29    32    33   ar
    30     3     4   ar
    31     4     5   ar
    32     5     6   ar
    33     6     7    1
    34    12    13   ar
    35    18    19    1
    36    19    20    1
    37    20    21    1
    38    21    16    1
    39    13     8   ar
    40     6     1   ar
    41    33    28   ar
    42    40    35    1
    43    24    27    1
    44    38    41    1
    45    21    22    1
@<TRIPOS>MOLECULE
*****
 41 45 0 0 0
SMALL
GASTEIGER

@<TRIPOS>ATOM
      1 C           2.8614    0.3604   31.1734 C.ar    1  UNL1        0.0272
      2 C           3.4067   -0.1539   29.8741 C.ar    1  UNL1       -0.0004
      3 C           2.7294    0.2009   28.5836 C.ar    1  UNL1       -0.0024
      4 C           1.5069    1.0699   28.5924 C.ar    1  UNL1       -0.0003
      5 C           0.9616    1.5842   29.8918 C.ar    1  UNL1        0.0294
      6 C           1.6389    1.2295   31.1822 C.ar    1  UNL1        0.1401
      7 F           1.0936    1.7438   32.4815 F       1  UNL1       -0.2042
      8 C           4.3515    0.6794   34.8379 C.ar    1  UNL1       -0.0061
      9 C           4.8933   -0.7040   35.0450 C.ar    1  UNL1       -0.0029
     10 C           4.7579   -1.7325   33.9616 C.ar    1  UNL1       -0.0003
     11 C           4.0806   -1.3777   32.6710 C.ar    1  UNL1        0.0001
     12 C           3.5387    0.0056   32.4640 C.ar    1  UNL1        0.0019
     13 C           3.6742    1.0341   33.5474 C.ar    1  UNL1       -0.0028
     14 C           4.4869    1.7079   35.9213 C.3     1  UNL1        0.0992
     15 C           1.2339    0.2354   39.6962 C.3     1  UNL1        0.0186
     16 C           1.6997    1.2670   38.7118 C.3     1  UNL1        0.0703
     17 C           2.8604    0.9717   37.8087 C.3     1  UNL1        0.0882
     18 N           3.3262    2.0032   36.8244 N.3     1  UNL1       -0.2666
     19 C           2.6313    3.3301   36.7431 C.3     1  UNL1        0.0897
     20 C           1.4707    3.6253   37.6462 C.3     1  UNL1        0.0861
     21 N           1.0048    2.5938   38.6306 N.3     1  UNL1       -0.2963
     22 H           0.0267    2.4012   38.4146 H       1  UNL1        0.1233
     23 C           3.2747   -0.3134   27.2843 C.3     1  UNL1        0.1166
     24 N           2.4879   -0.1389   26.0192 N.am    1  UNL1       -0.2969
     25 C           3.2003    0.0165   24.7084 C.2     1  UNL1        0.2461
     26 O           4.6994   -0.0026   24.6626 O.2     1  UNL1       -0.2701
     27 H           1.5039   -0.1264   26.0493 H       1  UNL1        0.1501
     28 C           2.4134    0.1910   23.4432 C.ar    1  UNL1        0.0530
     29 C           1.3696    1.2642   23.3512 C.ar    1  UNL1        0.0045
     30 C           0.5827    1.4387   22.0861 C.ar    1  UNL1       -0.0002
     31 C           0.8397    0.5399   20.9130 C.ar    1  UNL1       -0.0043
     32 C           1.8836   -0.5334   21.0051 C.ar    1  UNL1       -0.0220
     33 C           2.6704   -0.7079   22.2702 C.ar    1  UNL1        0.0002
     34 C           2.1406   -1.4323   19.8321 C.3     1  UNL1        0.0264
     35 C           3.5321   -1.5806   19.2916 C.3     1  UNL1        0.0071
     36 C           4.3268   -0.3634   18.9219 C.3     1  UNL1        0.0175
     37 C           5.7181   -0.5118   18.3815 C.3     1  UNL1        0.0686
     38 N           6.3147   -1.8775   18.2107 N.3     1  UNL1       -0.2975
     39 C           5.5199   -3.0947   18.5803 C.3     1  UNL1        0.0686
     40 C           4.1286   -2.9463   19.1208 C.3     1  UNL1        0.0175
     41 H           7.1656   -1.8995   18.7728 H       1  UNL1        0.1232
@<TRIPOS>BOND
     1    16    15    1
     2    16    17    1
     3    17    18    1
     4    18    14    1
     5    14     8    1
     6     8     9   ar
     7     9    10   ar
     8    10    11   ar
     9    11    12   ar
    10    12     1    1
    11     1     2   ar
    12     2     3   ar
    13     3    23    1
    14    23    24    1
    15    24    25   am
    16    25    26    2
    17    25    28    1
    18    28    29   ar
    19    29    30   ar
    20    30    31   ar
    21    31    32   ar
    22    32    34    1
    23    34    35    1
    24    35    36    1
    25    36    37    1
    26    37    38    1
    27    38    39    1
    28    39    40    1
    29    32    33   ar
    30     3     4   ar
    31     4     5   ar
    32     5     6   ar
    33     6     7    1
    34    12    13   ar
    35    18    19    1
    36    19    20    1
    37    20    21    1
    38    21    16    1
    39    13     8   ar
    40     6     1   ar
    41    33    28   ar
    42    40    35    1
    43    24    27    1
    44    38    41    1
    45    21    22    1
@<TRIPOS>MOLECULE
*****
 41 45 0 0 0
SMALL
GASTEIGER

@<TRIPOS>ATOM
      1 C           4.3125   -0.3053   31.5078 C.ar    1  UNL1        0.0272
      2 C           3.6395   -0.3800   30.1693 C.ar    1  UNL1       -0.0004
      3 C           2.3757    0.3889   29.9214 C.ar    1  UNL1       -0.0024
      4 C           1.7848    1.2323   31.0119 C.ar    1  UNL1       -0.0003
      5 C           2.4577    1.3069   32.3504 C.ar    1  UNL1        0.0294
      6 C           3.7216    0.5381   32.5984 C.ar    1  UNL1        0.1401
      7 F           4.3945    0.6127   33.9369 F       1  UNL1       -0.2042
      8 C           6.8371   -3.3404   31.9137 C.ar    1  UNL1       -0.0061
      9 C           8.1042   -2.6120   32.2515 C.ar    1  UNL1       -0.0029
     10 C           8.1073   -1.1147   32.3414 C.ar    1  UNL1       -0.0003
     11 C           6.8434   -0.3458   32.0935 C.ar    1  UNL1        0.0001
     12 C           5.5764   -1.0742   31.7557 C.ar    1  UNL1        0.0019
     13 C           5.5733   -2.5715   31.6658 C.ar    1  UNL1       -0.0028
     14 C           6.8340   -4.8377   31.8238 C.3     1  UNL1        0.0992
     15 C           6.6283   -5.9298   26.7478 C.3     1  UNL1        0.0186
     16 C           7.3066   -6.0638   28.0790 C.3     1  UNL1        0.0703
     17 C           6.7312   -5.3838   29.2858 C.3     1  UNL1        0.0882
     18 N           7.4095   -5.5178   30.6169 N.3     1  UNL1       -0.2666
     19 C           8.6632   -6.3318   30.7413 C.3     1  UNL1        0.0897
     20 C           9.2386   -7.0118   29.5345 C.3     1  UNL1        0.0861
     21 N           8.5603   -6.8778   28.2033 N.3     1  UNL1       -0.2963
     22 H           8.3302   -7.8221   27.8937 H       1  UNL1        0.1233
     23 C           1.7027    0.3142   28.5829 C.3     1  UNL1        0.1166
     24 N           2.3129   -0.5002   27.4810 N.am    1  UNL1       -0.2969
     25 C           2.7655    0.1681   26.2167 C.2     1  UNL1        0.2461
     26 O           2.6079    1.6509   26.0543 O.2     1  UNL1       -0.2701
     27 H           2.4164   -1.4734   27.5876 H       1  UNL1        0.1501
     28 C           3.3758   -0.6464   25.1147 C.ar    1  UNL1        0.0530
     29 C           4.5005   -1.5922   25.4157 C.ar    1  UNL1        0.0045
     30 C           5.1107   -2.4067   24.3138 C.ar    1  UNL1       -0.0002
     31 C           4.5963   -2.2754   22.9109 C.ar    1  UNL1       -0.0043
     32 C           3.4715   -1.3296   22.6100 C.ar    1  UNL1       -0.0220
     33 C           2.8613   -0.5152   23.7119 C.ar    1  UNL1        0.0002
     34 C           2.9570   -1.1984   21.2071 C.3     1  UNL1        0.0264
     35 C           3.7440   -1.7666   20.0634 C.3     1  UNL1        0.0071
     36 C           4.5405   -0.8568   19.1758 C.3     1  UNL1        0.0175
     37 C           5.3274   -1.4250   18.0322 C.3     1  UNL1        0.0686
     38 N           5.3178   -2.9030   17.7762 N.3     1  UNL1       -0.2975
     39 C           4.5213   -3.8127   18.6638 C.3     1  UNL1        0.0686
     40 C           3.7344   -3.2445   19.8074 C.3     1  UNL1        0.0175
     41 H           6.2870   -3.2168   17.8266 H       1  UNL1        0.1232
@<TRIPOS>BOND
     1    16    15    1
     2    16    17    1
     3    17    18    1
     4    18    14    1
     5    14     8    1
     6     8     9   ar
     7     9    10   ar
     8    10    11   ar
     9    11    12   ar
    10    12     1    1
    11     1     2   ar
    12     2     3   ar
    13     3    23    1
    14    23    24    1
    15    24    25   am
    16    25    26    2
    17    25    28    1
    18    28    29   ar
    19    29    30   ar
    20    30    31   ar
    21    31    32   ar
    22    32    34    1
    23    34    35    1
    24    35    36    1
    25    36    37    1
    26    37    38    1
    27    38    39    1
    28    39    40    1
    29    32    33   ar
    30     3     4   ar
    31     4     5   ar
    32     5     6   ar
    33     6     7    1
    34    12    13   ar
    35    18    19    1
    36    19    20    1
    37    20    21    1
    38    21    16    1
    39    13     8   ar
    40     6     1   ar
    41    33    28   ar
    42    40    35    1
    43    24    27    1
    44    38    41    1
    45    21    22    1
