@<TRIPOS>MOLECULE
*****
 36 38 0 0 0
SMALL
GASTEIGER

@<TRIPOS>ATOM
      1 C         -10.1697  -19.2824   19.9095 C.3     1  UNL1        0.1697
      2 O         -10.6633  -18.1204   19.0996 O.3     1  UNL1       -0.3793
      3 H          -9.9899  -17.8716   18.4473 H       1  UNL1        0.2106
      4 C         -11.0306  -19.8611   20.9930 C.3     1  UNL1        0.2358
      5 O         -11.6821  -18.9567   21.9968 O.3     1  UNL1       -0.4721
      6 C          -9.3805  -17.5747   25.6082 C.ar    1  UNL1       -0.0208
      7 C         -10.1192  -18.8797   25.6438 C.ar    1  UNL1       -0.0011
      8 C         -10.8864  -19.3403   24.4400 C.ar    1  UNL1        0.0373
      9 C         -10.9149  -18.4960   23.2006 C.ar    1  UNL1        0.1482
     10 C         -10.1761  -17.1910   23.1649 C.ar    1  UNL1        0.1020
     11 C          -9.4089  -16.7303   24.3687 C.ar    1  UNL1        0.0091
     12 C         -10.2047  -16.3468   21.9254 C.1     1  UNL1        0.1035
     13 N         -10.2332  -15.5024   20.6860 N.1     1  UNL1       -0.1907
     14 C          -8.6133  -17.1140   26.8120 C.3     1  UNL1        0.0380
     15 C          -8.2734  -15.6621   26.9744 C.3     1  UNL1        0.1142
     16 C          -6.8468  -15.2432   27.1721 C.2     1  UNL1        0.3173
     17 O          -6.5152  -14.1404   28.1333 O.2     1  UNL1       -0.2501
     18 O          -5.7516  -15.9272   26.4088 O.3     1  UNL1       -0.4485
     19 C          -5.9846  -15.3593   23.8842 C.3     1  UNL1        0.0513
     20 C          -5.2015  -15.2999   25.1622 C.3     1  UNL1        0.2086
     21 C          -8.8151  -19.8658   19.6360 C.3     1  UNL1        0.1020
     22 N          -7.5853  -19.0292   19.8294 N.3     1  UNL1       -0.2972
     23 H          -7.9029  -18.0845   20.0462 H       1  UNL1        0.1233
     24 C          -6.5830  -19.4011   20.8815 C.3     1  UNL1        0.0462
     25 C          -6.2377  -20.6426   20.1138 C.3     1  UNL1        0.0161
     26 C          -6.9282  -18.1596   21.6493 C.3     1  UNL1        0.0161
     27 C          -5.5806  -19.7731   21.9337 C.3     1  UNL1        0.0424
     28 C          -4.3287  -18.9630   22.0967 C.2     1  UNL1       -0.0006
     29 C          -3.8344  -18.3514   23.3741 C.2     1  UNL1        0.0942
     30 N          -2.5516  -17.6327   23.0778 N.2     1  UNL1       -0.2482
     31 C          -2.2530  -17.8001   21.6173 C.2     1  UNL1        0.0631
     32 C          -1.1230  -17.3101   20.7613 C.3     1  UNL1        0.0717
     33 C          -1.0913  -17.6423   19.2989 C.2     1  UNL1       -0.0198
     34 C          -2.1897  -18.4645   18.6926 C.2     1  UNL1       -0.0042
     35 C          -3.3197  -18.9545   19.5486 C.2     1  UNL1        0.0006
     36 C          -3.3514  -18.6223   21.0110 C.2     1  UNL1        0.0114
@<TRIPOS>BOND
     1    19    20    1
     2    20    18    1
     3    18    16    1
     4    16    17    2
     5    16    15    1
     6    15    14    1
     7    14     6    1
     8     6     7   ar
     9     7     8   ar
    10     8     9   ar
    11     9     5    1
    12     5     4    1
    13     4     1    1
    14     1     2    1
    15     1    21    1
    16    21    22    1
    17    22    24    1
    18    24    25    1
    19    24    26    1
    20    24    27    1
    21    27    28    1
    22    28    29    2
    23    29    30    1
    24    30    31    2
    25    31    32    1
    26    32    33    1
    27    33    34    2
    28    34    35    1
    29    35    36    2
    30     9    10   ar
    31    10    12    1
    32    12    13    3
    33    10    11   ar
    34    11     6   ar
    35    36    28    1
    36    36    31    1
    37     2     3    1
    38    22    23    1
@<TRIPOS>MOLECULE
*****
 36 38 0 0 0
SMALL
GASTEIGER

@<TRIPOS>ATOM
      1 C          -9.1419  -16.9753   25.4738 C.3     1  UNL1        0.1697
      2 O          -8.2074  -16.3142   26.4432 O.3     1  UNL1       -0.3793
      3 H          -8.2727  -16.7530   27.3057 H       1  UNL1        0.2106
      4 C          -9.2303  -16.4800   24.0607 C.3     1  UNL1        0.2358
      5 O          -8.0060  -15.9532   23.3726 O.3     1  UNL1       -0.4721
      6 C          -4.6186  -18.7380   22.3624 C.ar    1  UNL1       -0.0208
      7 C          -5.9535  -18.9094   21.7000 C.ar    1  UNL1       -0.0011
      8 C          -7.0826  -17.9812   22.0368 C.ar    1  UNL1        0.0373
      9 C          -6.8769  -16.8815   23.0359 C.ar    1  UNL1        0.1482
     10 C          -5.5420  -16.7100   23.6982 C.ar    1  UNL1        0.1020
     11 C          -4.4129  -17.6382   23.3615 C.ar    1  UNL1        0.0091
     12 C          -5.3363  -15.6102   24.6973 C.1     1  UNL1        0.1035
     13 N          -5.1306  -14.5104   25.6964 N.1     1  UNL1       -0.1907
     14 C          -3.4895  -19.6662   22.0256 C.3     1  UNL1        0.0380
     15 C          -3.1557  -19.9520   20.5915 C.3     1  UNL1        0.1142
     16 C          -2.7918  -18.8277   19.6677 C.2     1  UNL1        0.3173
     17 O          -3.8699  -18.0313   18.9943 O.2     1  UNL1       -0.2501
     18 O          -1.3497  -18.4998   19.4172 O.3     1  UNL1       -0.4485
     19 C          -1.4987  -16.5411   21.1178 C.3     1  UNL1        0.0513
     20 C          -0.6966  -17.3727   20.1610 C.3     1  UNL1        0.2086
     21 C          -9.9881  -18.1315   25.9176 C.3     1  UNL1        0.1020
     22 N          -9.7108  -19.5090   25.3924 N.3     1  UNL1       -0.2972
     23 H         -10.0412  -20.1657   26.0995 H       1  UNL1        0.1233
     24 C         -10.3021  -19.9464   24.0851 C.3     1  UNL1        0.0462
     25 C         -11.6221  -19.3567   24.4849 C.3     1  UNL1        0.0161
     26 C          -8.9822  -20.5361   23.6853 C.3     1  UNL1        0.0161
     27 C         -10.8936  -20.3838   22.7778 C.3     1  UNL1        0.0424
     28 C         -10.6521  -19.5755   21.5375 C.2     1  UNL1       -0.0006
     29 C          -9.6843  -19.9102   20.4415 C.2     1  UNL1        0.0942
     30 N          -9.7702  -18.8320   19.4021 N.2     1  UNL1       -0.2482
     31 C         -10.7910  -17.8310   19.8559 C.2     1  UNL1        0.0631
     32 C         -11.2946  -16.5604   19.2378 C.3     1  UNL1        0.0717
     33 C         -12.3433  -15.7494   19.9395 C.2     1  UNL1       -0.0198
     34 C         -12.8883  -16.2088   21.2593 C.2     1  UNL1       -0.0042
     35 C         -12.3847  -17.4794   21.8773 C.2     1  UNL1        0.0006
     36 C         -11.3361  -18.2904   21.1756 C.2     1  UNL1        0.0114
@<TRIPOS>BOND
     1    19    20    1
     2    20    18    1
     3    18    16    1
     4    16    17    2
     5    16    15    1
     6    15    14    1
     7    14     6    1
     8     6     7   ar
     9     7     8   ar
    10     8     9   ar
    11     9     5    1
    12     5     4    1
    13     4     1    1
    14     1     2    1
    15     1    21    1
    16    21    22    1
    17    22    24    1
    18    24    25    1
    19    24    26    1
    20    24    27    1
    21    27    28    1
    22    28    29    2
    23    29    30    1
    24    30    31    2
    25    31    32    1
    26    32    33    1
    27    33    34    2
    28    34    35    1
    29    35    36    2
    30     9    10   ar
    31    10    12    1
    32    12    13    3
    33    10    11   ar
    34    11     6   ar
    35    36    28    1
    36    36    31    1
    37     2     3    1
    38    22    23    1
@<TRIPOS>MOLECULE
*****
 36 38 0 0 0
SMALL
GASTEIGER

@<TRIPOS>ATOM
      1 C          -9.8976  -20.4140   23.9248 C.3     1  UNL1        0.1697
      2 O          -9.9200  -20.8013   25.3738 O.3     1  UNL1       -0.3793
      3 H         -10.8240  -20.7205   25.7162 H       1  UNL1        0.2106
      4 C          -8.6093  -20.4538   23.1577 C.3     1  UNL1        0.2358
      5 O          -7.9722  -19.1772   22.6948 O.3     1  UNL1       -0.4721
      6 C          -4.2647  -19.3070   20.1478 C.ar    1  UNL1       -0.0208
      7 C          -4.1503  -19.0972   21.6287 C.ar    1  UNL1       -0.0011
      8 C          -5.3862  -19.0539   22.4777 C.ar    1  UNL1        0.0373
      9 C          -6.7363  -19.2205   21.8458 C.ar    1  UNL1        0.1482
     10 C          -6.8507  -19.4303   20.3650 C.ar    1  UNL1        0.1020
     11 C          -5.6148  -19.4736   19.5160 C.ar    1  UNL1        0.0091
     12 C          -8.2009  -19.5969   19.7332 C.1     1  UNL1        0.1035
     13 N          -9.5511  -19.7635   19.1015 N.1     1  UNL1       -0.1907
     14 C          -3.0288  -19.3503   19.2988 C.3     1  UNL1        0.0380
     15 C          -2.2461  -18.0954   19.0491 C.3     1  UNL1        0.1142
     16 C          -0.9709  -17.8452   19.7982 C.2     1  UNL1        0.3173
     17 O           0.1532  -18.8351   19.7173 O.2     1  UNL1       -0.2501
     18 O          -0.8197  -16.6050   20.6283 O.3     1  UNL1       -0.4485
     19 C          -2.3487  -16.8291   22.7169 C.3     1  UNL1        0.0513
     20 C          -1.9695  -16.1114   21.4555 C.3     1  UNL1        0.2086
     21 C         -11.1636  -19.9869   23.2430 C.3     1  UNL1        0.1020
     22 N         -11.1453  -18.8380   22.2789 N.3     1  UNL1       -0.2972
     23 H         -12.0936  -18.7435   21.9153 H       1  UNL1        0.1233
     24 C         -10.7219  -17.4759   22.7430 C.3     1  UNL1        0.0462
     25 C         -11.1297  -17.8264   24.1433 C.3     1  UNL1        0.0161
     26 C         -10.3140  -17.1254   21.3428 C.3     1  UNL1        0.0161
     27 C         -10.2984  -16.1138   23.2073 C.3     1  UNL1        0.0424
     28 C          -8.8525  -15.8345   23.4924 C.2     1  UNL1       -0.0006
     29 C          -7.7793  -15.6102   22.4687 C.2     1  UNL1        0.0942
     30 N          -6.4895  -15.3675   23.1950 N.2     1  UNL1       -0.2482
     31 C          -6.7655  -15.4419   24.6675 C.2     1  UNL1        0.0631
     32 C          -5.8757  -15.2841   25.8647 C.3     1  UNL1        0.0717
     33 C          -6.4463  -15.4149   27.2457 C.2     1  UNL1       -0.0198
     34 C          -7.9067  -15.7035   27.4295 C.2     1  UNL1       -0.0042
     35 C          -8.7966  -15.8613   26.2324 C.2     1  UNL1        0.0006
     36 C          -8.2259  -15.7305   24.8513 C.2     1  UNL1        0.0114
@<TRIPOS>BOND
     1    19    20    1
     2    20    18    1
     3    18    16    1
     4    16    17    2
     5    16    15    1
     6    15    14    1
     7    14     6    1
     8     6     7   ar
     9     7     8   ar
    10     8     9   ar
    11     9     5    1
    12     5     4    1
    13     4     1    1
    14     1     2    1
    15     1    21    1
    16    21    22    1
    17    22    24    1
    18    24    25    1
    19    24    26    1
    20    24    27    1
    21    27    28    1
    22    28    29    2
    23    29    30    1
    24    30    31    2
    25    31    32    1
    26    32    33    1
    27    33    34    2
    28    34    35    1
    29    35    36    2
    30     9    10   ar
    31    10    12    1
    32    12    13    3
    33    10    11   ar
    34    11     6   ar
    35    36    28    1
    36    36    31    1
    37     2     3    1
    38    22    23    1
@<TRIPOS>MOLECULE
*****
 36 38 0 0 0
SMALL
GASTEIGER

@<TRIPOS>ATOM
      1 C          -3.4136  -16.5720   22.9307 C.3     1  UNL1        0.1697
      2 O          -3.0523  -15.5388   21.9051 O.3     1  UNL1       -0.3793
      3 H          -3.7488  -14.8649   21.8657 H       1  UNL1        0.2106
      4 C          -2.4942  -17.7296   23.1853 C.3     1  UNL1        0.2358
      5 O          -2.5288  -18.9274   22.2831 O.3     1  UNL1       -0.4721
      6 C          -6.3511  -20.0648   20.1984 C.ar    1  UNL1       -0.0208
      7 C          -6.2288  -20.2316   21.6841 C.ar    1  UNL1       -0.0011
      8 C          -4.9547  -19.8524   22.3790 C.ar    1  UNL1        0.0373
      9 C          -3.8029  -19.3065   21.5882 C.ar    1  UNL1        0.1482
     10 C          -3.9252  -19.1397   20.1025 C.ar    1  UNL1        0.1020
     11 C          -5.1993  -19.5189   19.4076 C.ar    1  UNL1        0.0091
     12 C          -2.7734  -18.5938   19.3119 C.1     1  UNL1        0.1035
     13 N          -1.6216  -18.0478   18.5212 N.1     1  UNL1       -0.1907
     14 C          -7.6252  -20.4439   19.5035 C.3     1  UNL1        0.0380
     15 C          -8.7155  -19.4286   19.3295 C.3     1  UNL1        0.1142
     16 C          -9.4442  -18.8976   20.5283 C.2     1  UNL1        0.3173
     17 O          -9.5824  -19.7452   21.7581 O.2     1  UNL1       -0.2501
     18 O         -10.0346  -17.5191   20.4973 O.3     1  UNL1       -0.4485
     19 C         -11.5740  -15.7963   19.3088 C.3     1  UNL1        0.0513
     20 C         -11.1917  -17.2190   19.5912 C.3     1  UNL1        0.2086
     21 C          -4.6942  -16.4477   23.7016 C.3     1  UNL1        0.1020
     22 N          -5.5909  -15.2657   23.4808 N.3     1  UNL1       -0.2972
     23 H          -5.6939  -15.1588   22.4717 H       1  UNL1        0.1233
     24 C          -6.9741  -15.2548   24.0608 C.3     1  UNL1        0.0462
     25 C          -7.5542  -15.2977   22.6782 C.3     1  UNL1        0.0161
     26 C          -6.3942  -15.2120   25.4434 C.3     1  UNL1        0.0161
     27 C          -8.3575  -15.2439   24.6408 C.3     1  UNL1        0.0424
     28 C          -9.1785  -16.4993   24.6459 C.2     1  UNL1       -0.0006
     29 C          -8.8221  -17.7831   25.3349 C.2     1  UNL1        0.0942
     30 N          -9.9234  -18.7685   25.0777 N.2     1  UNL1       -0.2482
     31 C         -10.9605  -18.0937   24.2297 C.2     1  UNL1        0.0631
     32 C         -12.2645  -18.5751   23.6661 C.3     1  UNL1        0.0717
     33 C         -13.1082  -17.6540   22.8356 C.2     1  UNL1       -0.0198
     34 C         -12.6479  -16.2515   22.5687 C.2     1  UNL1       -0.0042
     35 C         -11.3438  -15.7702   23.1323 C.2     1  UNL1        0.0006
     36 C         -10.5001  -16.6912   23.9628 C.2     1  UNL1        0.0114
@<TRIPOS>BOND
     1    19    20    1
     2    20    18    1
     3    18    16    1
     4    16    17    2
     5    16    15    1
     6    15    14    1
     7    14     6    1
     8     6     7   ar
     9     7     8   ar
    10     8     9   ar
    11     9     5    1
    12     5     4    1
    13     4     1    1
    14     1     2    1
    15     1    21    1
    16    21    22    1
    17    22    24    1
    18    24    25    1
    19    24    26    1
    20    24    27    1
    21    27    28    1
    22    28    29    2
    23    29    30    1
    24    30    31    2
    25    31    32    1
    26    32    33    1
    27    33    34    2
    28    34    35    1
    29    35    36    2
    30     9    10   ar
    31    10    12    1
    32    12    13    3
    33    10    11   ar
    34    11     6   ar
    35    36    28    1
    36    36    31    1
    37     2     3    1
    38    22    23    1
@<TRIPOS>MOLECULE
*****
 36 38 0 0 0
SMALL
GASTEIGER

@<TRIPOS>ATOM
      1 C          -8.0400  -15.4919   27.2999 C.3     1  UNL1        0.1697
      2 O          -8.8854  -14.4522   27.9740 O.3     1  UNL1       -0.3793
      3 H          -8.3641  -13.6441   28.1008 H       1  UNL1        0.2106
      4 C          -8.6166  -16.8413   26.9891 C.3     1  UNL1        0.2358
      5 O          -8.4645  -17.4236   25.6152 O.3     1  UNL1       -0.4721
      6 C         -11.7630  -16.9473   22.5915 C.ar    1  UNL1       -0.0208
      7 C         -11.0257  -15.7413   23.0933 C.ar    1  UNL1       -0.0011
      8 C          -9.9262  -15.9000   24.1012 C.ar    1  UNL1        0.0373
      9 C          -9.5640  -17.2648   24.6073 C.ar    1  UNL1        0.1482
     10 C         -10.3013  -18.4709   24.1055 C.ar    1  UNL1        0.1020
     11 C         -11.4008  -18.3121   23.0976 C.ar    1  UNL1        0.0091
     12 C          -9.9391  -19.8356   24.6116 C.1     1  UNL1        0.1035
     13 N          -9.5767  -21.2004   25.1177 N.1     1  UNL1       -0.1907
     14 C         -12.8625  -16.7886   21.5836 C.3     1  UNL1        0.0380
     15 C         -12.5492  -16.2900   20.2041 C.3     1  UNL1        0.1142
     16 C         -11.1256  -16.2228   19.7361 C.2     1  UNL1        0.3173
     17 O         -10.6292  -15.0036   19.0170 O.2     1  UNL1       -0.2501
     18 O         -10.1985  -17.3749   19.9873 O.3     1  UNL1       -0.4485
     19 C          -9.4646  -19.7823   19.3420 C.3     1  UNL1        0.0513
     20 C         -10.5347  -18.7374   19.4576 C.3     1  UNL1        0.2086
     21 C          -6.6180  -15.1822   26.9367 C.3     1  UNL1        0.1020
     22 N          -6.2706  -14.7949   25.5298 N.3     1  UNL1       -0.2972
     23 H          -5.7395  -13.9260   25.5862 H       1  UNL1        0.1233
     24 C          -5.4776  -15.7321   24.6680 C.3     1  UNL1        0.0462
     25 C          -6.1760  -15.2034   23.4503 C.3     1  UNL1        0.0161
     26 C          -4.7791  -16.2608   25.8855 C.3     1  UNL1        0.0161
     27 C          -4.6844  -16.6692   23.8060 C.3     1  UNL1        0.0424
     28 C          -5.3905  -17.6513   22.9188 C.2     1  UNL1       -0.0006
     29 C          -6.8761  -17.8169   22.7937 C.2     1  UNL1        0.0942
     30 N          -7.1386  -18.9080   21.7986 N.2     1  UNL1       -0.2482
     31 C          -5.8153  -19.4168   21.3086 C.2     1  UNL1        0.0631
     32 C          -5.4545  -20.4870   20.3215 C.3     1  UNL1        0.0717
     33 C          -4.0134  -20.7805   20.0268 C.2     1  UNL1       -0.0198
     34 C          -2.9330  -20.0037   20.7191 C.2     1  UNL1       -0.0042
     35 C          -3.2937  -18.9335   21.7063 C.2     1  UNL1        0.0006
     36 C          -4.7349  -18.6401   22.0010 C.2     1  UNL1        0.0114
@<TRIPOS>BOND
     1    19    20    1
     2    20    18    1
     3    18    16    1
     4    16    17    2
     5    16    15    1
     6    15    14    1
     7    14     6    1
     8     6     7   ar
     9     7     8   ar
    10     8     9   ar
    11     9     5    1
    12     5     4    1
    13     4     1    1
    14     1     2    1
    15     1    21    1
    16    21    22    1
    17    22    24    1
    18    24    25    1
    19    24    26    1
    20    24    27    1
    21    27    28    1
    22    28    29    2
    23    29    30    1
    24    30    31    2
    25    31    32    1
    26    32    33    1
    27    33    34    2
    28    34    35    1
    29    35    36    2
    30     9    10   ar
    31    10    12    1
    32    12    13    3
    33    10    11   ar
    34    11     6   ar
    35    36    28    1
    36    36    31    1
    37     2     3    1
    38    22    23    1
@<TRIPOS>MOLECULE
*****
 36 38 0 0 0
SMALL
GASTEIGER

@<TRIPOS>ATOM
      1 C         -11.0194  -19.5738   21.3789 C.3     1  UNL1        0.1697
      2 O         -11.0968  -20.5671   22.5002 O.3     1  UNL1       -0.3793
      3 H         -10.3509  -21.1841   22.4376 H       1  UNL1        0.2106
      4 C         -12.0639  -18.5049   21.2505 C.3     1  UNL1        0.2358
      5 O         -11.9520  -17.2460   22.0583 O.3     1  UNL1       -0.4721
      6 C          -7.9212  -15.8295   23.4709 C.ar    1  UNL1       -0.0208
      7 C          -8.7553  -16.7142   24.3492 C.ar    1  UNL1       -0.0011
      8 C         -10.0990  -17.1864   23.8783 C.ar    1  UNL1        0.0373
      9 C         -10.6084  -16.7738   22.5292 C.ar    1  UNL1        0.1482
     10 C          -9.7743  -15.8891   21.6509 C.ar    1  UNL1        0.1020
     11 C          -8.4306  -15.4169   22.1217 C.ar    1  UNL1        0.0091
     12 C         -10.2838  -15.4766   20.3018 C.1     1  UNL1        0.1035
     13 N         -10.7932  -15.0640   18.9526 N.1     1  UNL1       -0.1907
     14 C          -6.5775  -15.3573   23.9417 C.3     1  UNL1        0.0380
     15 C          -6.3837  -14.9538   25.3733 C.3     1  UNL1        0.1142
     16 C          -5.8333  -15.9383   26.3622 C.2     1  UNL1        0.3173
     17 O          -4.4058  -16.3872   26.2584 O.2     1  UNL1       -0.2501
     18 O          -6.7104  -16.4738   27.4548 O.3     1  UNL1       -0.4485
     19 C          -8.5705  -14.6977   27.8234 C.3     1  UNL1        0.0513
     20 C          -8.1636  -16.1046   27.4989 C.3     1  UNL1        0.2086
     21 C          -9.8976  -19.6494   20.3860 C.3     1  UNL1        0.1020
     22 N          -8.6907  -18.7739   20.5500 N.3     1  UNL1       -0.2972
     23 H          -8.9055  -18.1132   21.2968 H       1  UNL1        0.1233
     24 C          -7.3610  -19.3840   20.8809 C.3     1  UNL1        0.0462
     25 C          -6.9727  -19.3227   19.4333 C.3     1  UNL1        0.0161
     26 C          -7.7491  -19.4453   22.3284 C.3     1  UNL1        0.0161
     27 C          -6.0311  -19.9941   21.2116 C.3     1  UNL1        0.0424
     28 C          -4.8954  -19.1212   21.6571 C.2     1  UNL1       -0.0006
     29 C          -4.7235  -18.5271   23.0236 C.2     1  UNL1        0.0942
     30 N          -3.4542  -17.7279   23.0252 N.2     1  UNL1       -0.2482
     31 C          -2.8416  -17.8280   21.6597 C.2     1  UNL1        0.0631
     32 C          -1.5878  -17.2464   21.0770 C.3     1  UNL1        0.0717
     33 C          -1.2247  -17.5259   19.6487 C.2     1  UNL1       -0.0198
     34 C          -2.1155  -18.3870   18.8031 C.2     1  UNL1       -0.0042
     35 C          -3.3693  -18.9686   19.3858 C.2     1  UNL1        0.0006
     36 C          -3.7323  -18.6892   20.8141 C.2     1  UNL1        0.0114
@<TRIPOS>BOND
     1    19    20    1
     2    20    18    1
     3    18    16    1
     4    16    17    2
     5    16    15    1
     6    15    14    1
     7    14     6    1
     8     6     7   ar
     9     7     8   ar
    10     8     9   ar
    11     9     5    1
    12     5     4    1
    13     4     1    1
    14     1     2    1
    15     1    21    1
    16    21    22    1
    17    22    24    1
    18    24    25    1
    19    24    26    1
    20    24    27    1
    21    27    28    1
    22    28    29    2
    23    29    30    1
    24    30    31    2
    25    31    32    1
    26    32    33    1
    27    33    34    2
    28    34    35    1
    29    35    36    2
    30     9    10   ar
    31    10    12    1
    32    12    13    3
    33    10    11   ar
    34    11     6   ar
    35    36    28    1
    36    36    31    1
    37     2     3    1
    38    22    23    1
@<TRIPOS>MOLECULE
*****
 36 38 0 0 0
SMALL
GASTEIGER

@<TRIPOS>ATOM
      1 C          -6.4947  -15.1576   26.8133 C.3     1  UNL1        0.1697
      2 O          -6.5515  -14.1239   27.8987 O.3     1  UNL1       -0.3793
      3 H          -5.7686  -13.5538   27.8435 H       1  UNL1        0.2106
      4 C          -7.5957  -16.1677   26.6813 C.3     1  UNL1        0.2358
      5 O          -8.7127  -15.9368   25.7072 O.3     1  UNL1       -0.4721
      6 C         -10.0500  -19.2630   22.9873 C.ar    1  UNL1       -0.0208
      7 C         -10.3766  -19.3135   24.4504 C.ar    1  UNL1       -0.0011
      8 C          -9.9308  -18.2048   25.3571 C.ar    1  UNL1        0.0373
      9 C          -9.1585  -17.0456   24.8006 C.ar    1  UNL1        0.1482
     10 C          -8.8319  -16.9951   23.3374 C.ar    1  UNL1        0.1020
     11 C          -9.2777  -18.1038   22.4307 C.ar    1  UNL1        0.0091
     12 C          -8.0596  -15.8358   22.7810 C.1     1  UNL1        0.1035
     13 N          -7.2872  -14.6766   22.2247 N.1     1  UNL1       -0.1907
     14 C         -10.4958  -20.3717   22.0806 C.3     1  UNL1        0.0380
     15 C         -11.1814  -20.0517   20.7855 C.3     1  UNL1        0.1142
     16 C         -11.3333  -18.6244   20.3499 C.2     1  UNL1        0.3173
     17 O         -10.3302  -18.0144   19.4162 O.2     1  UNL1       -0.2501
     18 O         -12.4883  -17.8072   20.8479 O.3     1  UNL1       -0.4485
     19 C         -12.4278  -15.9919   22.7058 C.3     1  UNL1        0.0513
     20 C         -12.2741  -16.3825   21.2657 C.3     1  UNL1        0.2086
     21 C          -5.3371  -15.1811   25.8597 C.3     1  UNL1        0.1020
     22 N          -5.3912  -16.0462   24.6356 N.3     1  UNL1       -0.2972
     23 H          -5.7438  -15.4620   23.8775 H       1  UNL1        0.1233
     24 C          -4.1439  -16.7073   24.1286 C.3     1  UNL1        0.0462
     25 C          -4.1796  -15.8377   22.9069 C.3     1  UNL1        0.0161
     26 C          -4.1080  -17.5768   25.3502 C.3     1  UNL1        0.0161
     27 C          -2.8964  -17.3683   23.6214 C.3     1  UNL1        0.0424
     28 C          -2.9293  -18.1508   22.3421 C.2     1  UNL1       -0.0006
     29 C          -1.8430  -18.1970   21.3087 C.2     1  UNL1        0.0942
     30 N          -2.2966  -19.0992   20.1995 N.2     1  UNL1       -0.2482
     31 C          -3.6632  -19.6105   20.5473 C.2     1  UNL1        0.0631
     32 C          -4.6020  -20.5340   19.8293 C.3     1  UNL1        0.0717
     33 C          -5.9319  -20.8714   20.4355 C.2     1  UNL1       -0.0198
     34 C          -6.3229  -20.2853   21.7597 C.2     1  UNL1       -0.0042
     35 C          -5.3841  -19.3617   22.4777 C.2     1  UNL1        0.0006
     36 C          -4.0542  -19.0243   21.8715 C.2     1  UNL1        0.0114
@<TRIPOS>BOND
     1    19    20    1
     2    20    18    1
     3    18    16    1
     4    16    17    2
     5    16    15    1
     6    15    14    1
     7    14     6    1
     8     6     7   ar
     9     7     8   ar
    10     8     9   ar
    11     9     5    1
    12     5     4    1
    13     4     1    1
    14     1     2    1
    15     1    21    1
    16    21    22    1
    17    22    24    1
    18    24    25    1
    19    24    26    1
    20    24    27    1
    21    27    28    1
    22    28    29    2
    23    29    30    1
    24    30    31    2
    25    31    32    1
    26    32    33    1
    27    33    34    2
    28    34    35    1
    29    35    36    2
    30     9    10   ar
    31    10    12    1
    32    12    13    3
    33    10    11   ar
    34    11     6   ar
    35    36    28    1
    36    36    31    1
    37     2     3    1
    38    22    23    1
@<TRIPOS>MOLECULE
*****
 36 38 0 0 0
SMALL
GASTEIGER

@<TRIPOS>ATOM
      1 C          -7.4458  -15.8889   27.1262 C.3     1  UNL1        0.1697
      2 O          -8.2223  -14.6910   27.5866 O.3     1  UNL1       -0.3793
      3 H          -7.6302  -13.9249   27.6452 H       1  UNL1        0.2106
      4 C          -8.1364  -17.2093   26.9537 C.3     1  UNL1        0.2358
      5 O          -9.4551  -17.2788   26.2424 O.3     1  UNL1       -0.4721
      6 C          -9.7036  -19.1026   22.1361 C.ar    1  UNL1       -0.0208
      7 C         -10.2047  -19.8648   23.3269 C.ar    1  UNL1       -0.0011
      8 C         -10.1219  -19.2569   24.6957 C.ar    1  UNL1        0.0373
      9 C          -9.5379  -17.8867   24.8737 C.ar    1  UNL1        0.1482
     10 C          -9.0368  -17.1245   23.6829 C.ar    1  UNL1        0.1020
     11 C          -9.1196  -17.7325   22.3141 C.ar    1  UNL1        0.0091
     12 C          -8.4529  -15.7544   23.8610 C.1     1  UNL1        0.1035
     13 N          -7.8689  -14.3843   24.0390 N.1     1  UNL1       -0.1907
     14 C          -9.7864  -19.7105   20.7674 C.3     1  UNL1        0.0380
     15 C         -10.6238  -19.0594   19.7069 C.3     1  UNL1        0.1142
     16 C         -11.3642  -17.7905   20.0097 C.2     1  UNL1        0.3173
     17 O         -10.8513  -16.4805   19.4894 O.2     1  UNL1       -0.2501
     18 O         -12.6174  -17.8316   20.8329 O.3     1  UNL1       -0.4485
     19 C         -13.2960  -17.7900   23.3406 C.3     1  UNL1        0.0513
     20 C         -12.6717  -17.1202   22.1524 C.3     1  UNL1        0.2086
     21 C          -5.9788  -15.7665   26.8383 C.3     1  UNL1        0.1020
     22 N          -5.5065  -15.5453   25.4319 N.3     1  UNL1       -0.2972
     23 H          -5.0788  -14.6196   25.4071 H       1  UNL1        0.1233
     24 C          -4.5226  -16.4935   24.8133 C.3     1  UNL1        0.0462
     25 C          -4.6624  -15.7819   23.5002 C.3     1  UNL1        0.0161
     26 C          -4.3827  -17.2052   26.1262 C.3     1  UNL1        0.0161
     27 C          -3.5386  -17.4418   24.1945 C.3     1  UNL1        0.0424
     28 C          -3.8466  -18.0874   22.8760 C.2     1  UNL1       -0.0006
     29 C          -5.0312  -18.9572   22.5756 C.2     1  UNL1        0.0942
     30 N          -4.9407  -19.3840   21.1404 N.2     1  UNL1       -0.2482
     31 C          -3.7002  -18.7780   20.5539 C.2     1  UNL1        0.0631
     32 C          -3.0990  -18.8523   19.1817 C.3     1  UNL1        0.0717
     33 C          -1.8216  -18.1253   18.8822 C.2     1  UNL1       -0.0198
     34 C          -1.1454  -17.3240   19.9548 C.2     1  UNL1       -0.0042
     35 C          -1.7466  -17.2497   21.3271 C.2     1  UNL1        0.0006
     36 C          -3.0240  -17.9767   21.6266 C.2     1  UNL1        0.0114
@<TRIPOS>BOND
     1    19    20    1
     2    20    18    1
     3    18    16    1
     4    16    17    2
     5    16    15    1
     6    15    14    1
     7    14     6    1
     8     6     7   ar
     9     7     8   ar
    10     8     9   ar
    11     9     5    1
    12     5     4    1
    13     4     1    1
    14     1     2    1
    15     1    21    1
    16    21    22    1
    17    22    24    1
    18    24    25    1
    19    24    26    1
    20    24    27    1
    21    27    28    1
    22    28    29    2
    23    29    30    1
    24    30    31    2
    25    31    32    1
    26    32    33    1
    27    33    34    2
    28    34    35    1
    29    35    36    2
    30     9    10   ar
    31    10    12    1
    32    12    13    3
    33    10    11   ar
    34    11     6   ar
    35    36    28    1
    36    36    31    1
    37     2     3    1
    38    22    23    1
@<TRIPOS>MOLECULE
*****
 36 38 0 0 0
SMALL
GASTEIGER

@<TRIPOS>ATOM
      1 C          -4.9171  -15.4691   23.7660 C.3     1  UNL1        0.1697
      2 O          -4.3670  -14.5803   22.6902 O.3     1  UNL1       -0.3793
      3 H          -4.9202  -13.7874   22.6116 H       1  UNL1        0.2106
      4 C          -4.2380  -16.7677   24.0862 C.3     1  UNL1        0.2358
      5 O          -3.5045  -17.5153   23.0124 O.3     1  UNL1       -0.4721
      6 C          -5.7544  -20.2516   20.2375 C.ar    1  UNL1       -0.0208
      7 C          -6.4622  -19.6077   21.3927 C.ar    1  UNL1       -0.0011
      8 C          -5.7123  -18.6955   22.3176 C.ar    1  UNL1        0.0373
      9 C          -4.2545  -18.4274   22.0875 C.ar    1  UNL1        0.1482
     10 C          -3.5467  -19.0714   20.9323 C.ar    1  UNL1        0.1020
     11 C          -4.2967  -19.9835   20.0074 C.ar    1  UNL1        0.0091
     12 C          -2.0890  -18.8031   20.7022 C.1     1  UNL1        0.1035
     13 N          -0.6312  -18.5350   20.4721 N.1     1  UNL1       -0.1907
     14 C          -6.5044  -21.1638   19.3126 C.3     1  UNL1        0.0380
     15 C          -7.9883  -21.3261   19.4595 C.3     1  UNL1        0.1142
     16 C          -8.9047  -20.8739   18.3614 C.2     1  UNL1        0.3173
     17 O          -8.7732  -21.4588   16.9864 O.2     1  UNL1       -0.2501
     18 O          -9.9524  -19.8369   18.6384 O.3     1  UNL1       -0.4485
     19 C         -11.0987  -20.0705   20.9583 C.3     1  UNL1        0.0513
     20 C         -10.1654  -19.3411   20.0379 C.3     1  UNL1        0.2086
     21 C          -6.1464  -15.0594   24.5217 C.3     1  UNL1        0.1020
     22 N          -7.3963  -14.6923   23.7780 N.3     1  UNL1       -0.2972
     23 H          -7.1400  -13.9616   23.1141 H       1  UNL1        0.1233
     24 C          -8.1431  -15.7380   23.0043 C.3     1  UNL1        0.0462
     25 C          -8.2437  -16.5811   24.2407 C.3     1  UNL1        0.0161
     26 C          -8.0426  -14.8949   21.7677 C.3     1  UNL1        0.0161
     27 C          -8.8900  -16.7837   22.2305 C.3     1  UNL1        0.0424
     28 C         -10.3884  -16.7461   22.1720 C.2     1  UNL1       -0.0006
     29 C         -11.2130  -16.0102   21.1580 C.2     1  UNL1        0.0942
     30 N         -12.6595  -16.2471   21.4767 N.2     1  UNL1       -0.2482
     31 C         -12.7288  -17.1296   22.6877 C.2     1  UNL1        0.0631
     32 C         -13.8887  -17.6921   23.4546 C.3     1  UNL1        0.0717
     33 C         -13.6450  -18.5630   24.6513 C.2     1  UNL1       -0.0198
     34 C         -12.2414  -18.8714   25.0810 C.2     1  UNL1       -0.0042
     35 C         -11.0815  -18.3089   24.3141 C.2     1  UNL1        0.0006
     36 C         -11.3252  -17.4380   23.1175 C.2     1  UNL1        0.0114
@<TRIPOS>BOND
     1    19    20    1
     2    20    18    1
     3    18    16    1
     4    16    17    2
     5    16    15    1
     6    15    14    1
     7    14     6    1
     8     6     7   ar
     9     7     8   ar
    10     8     9   ar
    11     9     5    1
    12     5     4    1
    13     4     1    1
    14     1     2    1
    15     1    21    1
    16    21    22    1
    17    22    24    1
    18    24    25    1
    19    24    26    1
    20    24    27    1
    21    27    28    1
    22    28    29    2
    23    29    30    1
    24    30    31    2
    25    31    32    1
    26    32    33    1
    27    33    34    2
    28    34    35    1
    29    35    36    2
    30     9    10   ar
    31    10    12    1
    32    12    13    3
    33    10    11   ar
    34    11     6   ar
    35    36    28    1
    36    36    31    1
    37     2     3    1
    38    22    23    1
