@<TRIPOS>MOLECULE
*****
 21 23 0 0 0
SMALL
GASTEIGER

@<TRIPOS>ATOM
      1 C          -4.2929  -17.4201   22.8939 C.3     1  UNL1        0.0798
      2 C          -5.0536  -16.4374   23.7339 C.3     1  UNL1        0.0421
      3 C          -6.5514  -16.4970   23.7864 C.3     1  UNL1        0.0973
      4 N          -7.2887  -17.5392   22.9990 N.pl3   1  UNL1       -0.2870
      5 C          -6.5280  -18.5220   22.1589 C.ar    1  UNL1        0.0488
      6 C          -7.2653  -19.5643   21.3715 C.ar    1  UNL1        0.0146
      7 C          -6.5046  -20.5470   20.5315 C.ar    1  UNL1        0.0013
      8 C          -5.0067  -20.4874   20.4789 C.ar    1  UNL1       -0.0002
      9 C          -4.2695  -19.4451   21.2663 C.ar    1  UNL1       -0.0017
     10 C          -5.0301  -18.4624   22.1064 C.ar    1  UNL1        0.0057
     11 C          -8.7866  -17.5988   23.0515 C.ar    1  UNL1        0.0525
     12 C          -9.4683  -18.3929   24.1260 C.ar    1  UNL1        0.0157
     13 C         -10.9662  -18.4525   24.1785 C.ar    1  UNL1        0.0135
     14 C         -11.7824  -17.7179   23.1567 C.ar    1  UNL1        0.0683
     15 CL        -13.2803  -17.7775   23.2092 Cl      1  UNL1       -0.0814
     16 C         -11.1006  -16.9237   22.0822 C.ar    1  UNL1        0.0694
     17 CL        -11.9167  -16.1891   21.0603 Cl      1  UNL1       -0.0813
     18 C          -9.6027  -16.8642   22.0296 C.ar    1  UNL1        0.0271
     19 C          -2.1147  -16.4172   21.8941 C.3     1  UNL1        0.0861
     20 N          -2.7950  -17.3605   22.8413 N.3     1  UNL1       -0.2939
     21 H          -2.4769  -17.1163   23.7792 H       1  UNL1        0.1235
@<TRIPOS>BOND
     1    19    20    1
     2    20     1    1
     3     1     2    1
     4     2     3    1
     5     3     4    1
     6     4    11    1
     7    11    12   ar
     8    12    13   ar
     9    13    14   ar
    10    14    15    1
    11    14    16   ar
    12    16    17    1
    13    16    18   ar
    14     4     5    1
    15     5     6   ar
    16     6     7   ar
    17     7     8   ar
    18     8     9   ar
    19     9    10   ar
    20    10     1    1
    21    18    11   ar
    22    10     5   ar
    23    20    21    1
@<TRIPOS>MOLECULE
*****
 21 23 0 0 0
SMALL
GASTEIGER

@<TRIPOS>ATOM
      1 C          -9.9636  -18.6540   23.6691 C.3     1  UNL1        0.0798
      2 C          -9.5462  -19.8462   22.8602 C.3     1  UNL1        0.0421
      3 C          -8.1825  -19.8896   22.2370 C.3     1  UNL1        0.0973
      4 N          -7.2361  -18.7408   22.4228 N.pl3   1  UNL1       -0.2870
      5 C          -7.6535  -17.5485   23.2318 C.ar    1  UNL1        0.0488
      6 C          -6.7071  -16.3997   23.4176 C.ar    1  UNL1        0.0146
      7 C          -7.1245  -15.2075   24.2265 C.ar    1  UNL1        0.0013
      8 C          -8.4883  -15.1641   24.8496 C.ar    1  UNL1       -0.0002
      9 C          -9.4346  -16.3129   24.6638 C.ar    1  UNL1       -0.0017
     10 C          -9.0172  -17.5051   23.8549 C.ar    1  UNL1        0.0057
     11 C          -5.8724  -18.7841   21.7997 C.ar    1  UNL1        0.0525
     12 C          -5.7193  -19.1592   20.3555 C.ar    1  UNL1        0.0157
     13 C          -4.3555  -19.2026   19.7323 C.ar    1  UNL1        0.0135
     14 C          -3.1449  -18.8709   20.5534 C.ar    1  UNL1        0.0683
     15 CL         -1.7811  -18.9142   19.9303 Cl      1  UNL1       -0.0814
     16 C          -3.2979  -18.4958   21.9977 C.ar    1  UNL1        0.0694
     17 CL         -2.0873  -18.1640   22.8188 Cl      1  UNL1       -0.0813
     18 C          -4.6617  -18.4524   22.6208 C.ar    1  UNL1        0.0271
     19 C         -12.5082  -18.1640   23.4823 C.3     1  UNL1        0.0861
     20 N         -11.3274  -18.6107   24.2922 N.3     1  UNL1       -0.2939
     21 H         -11.5331  -19.5556   24.6164 H       1  UNL1        0.1235
@<TRIPOS>BOND
     1    19    20    1
     2    20     1    1
     3     1     2    1
     4     2     3    1
     5     3     4    1
     6     4    11    1
     7    11    12   ar
     8    12    13   ar
     9    13    14   ar
    10    14    15    1
    11    14    16   ar
    12    16    17    1
    13    16    18   ar
    14     4     5    1
    15     5     6   ar
    16     6     7   ar
    17     7     8   ar
    18     8     9   ar
    19     9    10   ar
    20    10     1    1
    21    18    11   ar
    22    10     5   ar
    23    20    21    1
@<TRIPOS>MOLECULE
*****
 21 23 0 0 0
SMALL
GASTEIGER

@<TRIPOS>ATOM
      1 C          -2.3644  -18.0721   20.9226 C.3     1  UNL1        0.0798
      2 C          -2.0744  -16.8547   21.7495 C.3     1  UNL1        0.0421
      3 C          -3.0846  -16.3661   22.7449 C.3     1  UNL1        0.0973
      4 N          -4.3848  -17.0949   22.9133 N.pl3   1  UNL1       -0.2870
      5 C          -4.6748  -18.3124   22.0865 C.ar    1  UNL1        0.0488
      6 C          -5.9749  -19.0412   22.2550 C.ar    1  UNL1        0.0146
      7 C          -6.2648  -20.2586   21.4281 C.ar    1  UNL1        0.0013
      8 C          -5.2546  -20.7472   20.4327 C.ar    1  UNL1       -0.0002
      9 C          -3.9545  -20.0184   20.2642 C.ar    1  UNL1       -0.0017
     10 C          -3.6646  -18.8010   21.0911 C.ar    1  UNL1        0.0057
     11 C          -5.3950  -16.6062   23.9087 C.ar    1  UNL1        0.0525
     12 C          -4.9514  -16.1618   25.2709 C.ar    1  UNL1        0.0157
     13 C          -5.9616  -15.6732   26.2663 C.ar    1  UNL1        0.0135
     14 C          -7.4154  -15.6290   25.8994 C.ar    1  UNL1        0.0683
     15 CL         -8.4256  -15.1404   26.8948 Cl      1  UNL1       -0.0814
     16 C          -7.8590  -16.0734   24.5371 C.ar    1  UNL1        0.0694
     17 CL         -9.3127  -16.0292   24.1702 Cl      1  UNL1       -0.0813
     18 C          -6.8488  -16.5620   23.5418 C.ar    1  UNL1        0.0271
     19 C          -0.0471  -17.8417   19.7706 C.3     1  UNL1        0.0861
     20 N          -1.3542  -18.5607   19.9273 N.3     1  UNL1       -0.2939
     21 H          -1.1321  -19.5233   20.1815 H       1  UNL1        0.1235
@<TRIPOS>BOND
     1    19    20    1
     2    20     1    1
     3     1     2    1
     4     2     3    1
     5     3     4    1
     6     4    11    1
     7    11    12   ar
     8    12    13   ar
     9    13    14   ar
    10    14    15    1
    11    14    16   ar
    12    16    17    1
    13    16    18   ar
    14     4     5    1
    15     5     6   ar
    16     6     7   ar
    17     7     8   ar
    18     8     9   ar
    19     9    10   ar
    20    10     1    1
    21    18    11   ar
    22    10     5   ar
    23    20    21    1
@<TRIPOS>MOLECULE
*****
 21 23 0 0 0
SMALL
GASTEIGER

@<TRIPOS>ATOM
      1 C         -12.1598   -3.2071   19.0766 C.3     1  UNL1        0.0798
      2 C         -13.6572   -3.1291   19.0395 C.3     1  UNL1        0.0421
      3 C         -14.4712   -4.3844   18.9313 C.3     1  UNL1        0.0973
      4 N         -13.7877   -5.7177   18.8601 N.pl3   1  UNL1       -0.2870
      5 C         -12.2901   -5.7957   18.8972 C.ar    1  UNL1        0.0488
      6 C         -11.6066   -7.1290   18.8260 C.ar    1  UNL1        0.0146
      7 C         -10.1091   -7.2070   18.8631 C.ar    1  UNL1        0.0013
      8 C          -9.2952   -5.9517   18.9714 C.ar    1  UNL1       -0.0002
      9 C          -9.9787   -4.6184   19.0426 C.ar    1  UNL1       -0.0017
     10 C         -11.4762   -4.5405   19.0055 C.ar    1  UNL1        0.0057
     11 C         -14.6016   -6.9730   18.7519 C.ar    1  UNL1        0.0525
     12 C         -14.1756   -8.0647   17.8157 C.ar    1  UNL1        0.0157
     13 C         -14.9895   -9.3200   17.7074 C.ar    1  UNL1        0.0135
     14 C         -16.2296   -9.4836   18.5353 C.ar    1  UNL1        0.0683
     15 CL        -17.0435  -10.7389   18.4271 Cl      1  UNL1       -0.0814
     16 C         -16.6557   -8.3918   19.4716 C.ar    1  UNL1        0.0694
     17 CL        -17.8957   -8.5553   20.2995 Cl      1  UNL1       -0.0813
     18 C         -15.8417   -7.1365   19.5799 C.ar    1  UNL1        0.0271
     19 C         -11.1471   -1.0806   17.9802 C.3     1  UNL1        0.0861
     20 N         -11.3458   -1.9518   19.1849 N.3     1  UNL1       -0.2939
     21 H         -11.7909   -1.3728   19.8969 H       1  UNL1        0.1235
@<TRIPOS>BOND
     1    19    20    1
     2    20     1    1
     3     1     2    1
     4     2     3    1
     5     3     4    1
     6     4    11    1
     7    11    12   ar
     8    12    13   ar
     9    13    14   ar
    10    14    15    1
    11    14    16   ar
    12    16    17    1
    13    16    18   ar
    14     4     5    1
    15     5     6   ar
    16     6     7   ar
    17     7     8   ar
    18     8     9   ar
    19     9    10   ar
    20    10     1    1
    21    18    11   ar
    22    10     5   ar
    23    20    21    1
@<TRIPOS>MOLECULE
*****
 21 23 0 0 0
SMALL
GASTEIGER

@<TRIPOS>ATOM
      1 C         -11.1474  -17.6120   22.5633 C.3     1  UNL1        0.0798
      2 C         -10.4434  -16.9718   23.7228 C.3     1  UNL1        0.0421
      3 C          -8.9456  -17.0004   23.7996 C.3     1  UNL1        0.0973
      4 N          -8.1518  -17.6691   22.7167 N.pl3   1  UNL1       -0.2870
      5 C          -8.8558  -18.3094   21.5571 C.ar    1  UNL1        0.0488
      6 C          -8.0619  -18.9781   20.4743 C.ar    1  UNL1        0.0146
      7 C          -8.7659  -19.6183   19.3147 C.ar    1  UNL1        0.0013
      8 C         -10.2636  -19.5897   19.2380 C.ar    1  UNL1       -0.0002
      9 C         -11.0575  -18.9209   20.3208 C.ar    1  UNL1       -0.0017
     10 C         -10.3535  -18.2808   21.4804 C.ar    1  UNL1        0.0057
     11 C          -6.6541  -17.6977   22.7934 C.ar    1  UNL1        0.0525
     12 C          -5.9207  -16.6239   23.5411 C.ar    1  UNL1        0.0157
     13 C          -4.4230  -16.6525   23.6178 C.ar    1  UNL1        0.0135
     14 C          -3.6585  -17.7549   22.9469 C.ar    1  UNL1        0.0683
     15 CL         -2.1608  -17.7835   23.0236 Cl      1  UNL1       -0.0814
     16 C          -4.3918  -18.8288   22.1991 C.ar    1  UNL1        0.0694
     17 CL         -3.6274  -19.9312   21.5282 Cl      1  UNL1       -0.0813
     18 C          -5.8896  -18.8002   22.1224 C.ar    1  UNL1        0.0271
     19 C         -13.4648  -17.9533   23.6871 C.3     1  UNL1        0.0861
     20 N         -12.6451  -17.5834   22.4866 N.3     1  UNL1       -0.2939
     21 H         -12.9088  -16.6315   22.2319 H       1  UNL1        0.1235
@<TRIPOS>BOND
     1    19    20    1
     2    20     1    1
     3     1     2    1
     4     2     3    1
     5     3     4    1
     6     4    11    1
     7    11    12   ar
     8    12    13   ar
     9    13    14   ar
    10    14    15    1
    11    14    16   ar
    12    16    17    1
    13    16    18   ar
    14     4     5    1
    15     5     6   ar
    16     6     7   ar
    17     7     8   ar
    18     8     9   ar
    19     9    10   ar
    20    10     1    1
    21    18    11   ar
    22    10     5   ar
    23    20    21    1
@<TRIPOS>MOLECULE
*****
 21 23 0 0 0
SMALL
GASTEIGER

@<TRIPOS>ATOM
      1 C          -2.8736  -18.2230   22.0583 C.3     1  UNL1        0.0798
      2 C          -3.4445  -17.2231   23.0196 C.3     1  UNL1        0.0421
      3 C          -4.9196  -17.2007   23.2906 C.3     1  UNL1        0.0973
      4 N          -5.8239  -18.1782   22.6002 N.pl3   1  UNL1       -0.2870
      5 C          -5.2530  -19.1782   21.6388 C.ar    1  UNL1        0.0488
      6 C          -6.1573  -20.1557   20.9484 C.ar    1  UNL1        0.0146
      7 C          -5.5864  -21.1556   19.9871 C.ar    1  UNL1        0.0013
      8 C          -4.1113  -21.1780   19.7161 C.ar    1  UNL1       -0.0002
      9 C          -3.2070  -20.2004   20.4064 C.ar    1  UNL1       -0.0017
     10 C          -3.7779  -19.2006   21.3678 C.ar    1  UNL1        0.0057
     11 C          -7.2990  -18.1559   22.8712 C.ar    1  UNL1        0.0525
     12 C          -8.1184  -19.3951   22.6645 C.ar    1  UNL1        0.0157
     13 C          -9.5936  -19.3728   22.9355 C.ar    1  UNL1        0.0135
     14 C         -10.2493  -18.1112   23.4132 C.ar    1  UNL1        0.0683
     15 CL        -11.7245  -18.0888   23.6842 Cl      1  UNL1       -0.0814
     16 C          -9.4299  -16.8718   23.6200 C.ar    1  UNL1        0.0694
     17 CL        -10.0857  -15.6102   24.0978 Cl      1  UNL1       -0.0813
     18 C          -7.9548  -16.8942   23.3490 C.ar    1  UNL1        0.0271
     19 C          -0.8627  -17.6801   20.5053 C.3     1  UNL1        0.0861
     20 N          -1.3984  -18.2453   21.7873 N.3     1  UNL1       -0.2939
     21 H          -0.9519  -17.7297   22.5457 H       1  UNL1        0.1235
@<TRIPOS>BOND
     1    19    20    1
     2    20     1    1
     3     1     2    1
     4     2     3    1
     5     3     4    1
     6     4    11    1
     7    11    12   ar
     8    12    13   ar
     9    13    14   ar
    10    14    15    1
    11    14    16   ar
    12    16    17    1
    13    16    18   ar
    14     4     5    1
    15     5     6   ar
    16     6     7   ar
    17     7     8   ar
    18     8     9   ar
    19     9    10   ar
    20    10     1    1
    21    18    11   ar
    22    10     5   ar
    23    20    21    1
@<TRIPOS>MOLECULE
*****
 21 23 0 0 0
SMALL
GASTEIGER

@<TRIPOS>ATOM
      1 C         -16.6427   -8.6070   18.7197 C.3     1  UNL1        0.0798
      2 C         -15.4753   -9.3785   18.1796 C.3     1  UNL1        0.0421
      3 C         -14.1987   -8.6677   17.8404 C.3     1  UNL1        0.0973
      4 N         -14.0895   -7.1852   18.0415 N.pl3   1  UNL1       -0.2870
      5 C         -15.2570   -6.4136   18.5817 C.ar    1  UNL1        0.0488
      6 C         -15.1478   -4.9312   18.7827 C.ar    1  UNL1        0.0146
      7 C         -16.3152   -4.1597   19.3229 C.ar    1  UNL1        0.0013
      8 C         -17.5918   -4.8705   19.6620 C.ar    1  UNL1       -0.0002
      9 C         -17.7010   -6.3530   19.4610 C.ar    1  UNL1       -0.0017
     10 C         -16.5336   -7.1245   18.9208 C.ar    1  UNL1        0.0057
     11 C         -12.8130   -6.4744   17.7023 C.ar    1  UNL1        0.0525
     12 C         -12.6039   -5.9256   16.3221 C.ar    1  UNL1        0.0157
     13 C         -11.3274   -5.2148   15.9830 C.ar    1  UNL1        0.0135
     14 C         -10.2598   -5.0526   17.0241 C.ar    1  UNL1        0.0683
     15 CL         -8.9832   -4.3417   16.6850 Cl      1  UNL1       -0.0814
     16 C         -10.4688   -5.6014   18.4044 C.ar    1  UNL1        0.0694
     17 CL         -9.4012   -5.4392   19.4456 Cl      1  UNL1       -0.0813
     18 C         -11.7454   -6.3122   18.7436 C.ar    1  UNL1        0.0271
     19 C         -18.4613  -10.3678   18.1349 C.3     1  UNL1        0.0861
     20 N         -17.9193   -9.3179   19.0589 N.3     1  UNL1       -0.2939
     21 H         -17.7747   -9.7675   19.9629 H       1  UNL1        0.1235
@<TRIPOS>BOND
     1    19    20    1
     2    20     1    1
     3     1     2    1
     4     2     3    1
     5     3     4    1
     6     4    11    1
     7    11    12   ar
     8    12    13   ar
     9    13    14   ar
    10    14    15    1
    11    14    16   ar
    12    16    17    1
    13    16    18   ar
    14     4     5    1
    15     5     6   ar
    16     6     7   ar
    17     7     8   ar
    18     8     9   ar
    19     9    10   ar
    20    10     1    1
    21    18    11   ar
    22    10     5   ar
    23    20    21    1
@<TRIPOS>MOLECULE
*****
 21 23 0 0 0
SMALL
GASTEIGER

@<TRIPOS>ATOM
      1 C          -6.0778  -19.2476   20.7965 C.3     1  UNL1        0.0798
      2 C          -6.1664  -18.6081   22.1505 C.3     1  UNL1        0.0421
      3 C          -7.5061  -18.3755   22.7839 C.3     1  UNL1        0.0973
      4 N          -8.7572  -18.7823   22.0633 N.pl3   1  UNL1       -0.2870
      5 C          -8.6686  -19.4218   20.7093 C.ar    1  UNL1        0.0488
      6 C          -9.9197  -19.8287   19.9888 C.ar    1  UNL1        0.0146
      7 C          -9.8312  -20.4681   18.6349 C.ar    1  UNL1        0.0013
      8 C          -8.4915  -20.7008   18.0015 C.ar    1  UNL1       -0.0002
      9 C          -7.2404  -20.2940   18.7220 C.ar    1  UNL1       -0.0017
     10 C          -7.3290  -19.6545   20.0759 C.ar    1  UNL1        0.0057
     11 C         -10.0968  -18.5496   22.6967 C.ar    1  UNL1        0.0525
     12 C         -10.6276  -19.5224   23.7076 C.ar    1  UNL1        0.0157
     13 C         -11.9672  -19.2898   24.3410 C.ar    1  UNL1        0.0135
     14 C         -12.7761  -18.0843   23.9635 C.ar    1  UNL1        0.0683
     15 CL        -14.1158  -17.8517   24.5969 Cl      1  UNL1       -0.0814
     16 C         -12.2454  -17.1115   22.9525 C.ar    1  UNL1        0.0694
     17 CL        -13.0543  -15.9060   22.5750 Cl      1  UNL1       -0.0813
     18 C         -10.9057  -17.3441   22.3192 C.ar    1  UNL1        0.0271
     19 C          -3.4918  -19.4010   20.9940 C.3     1  UNL1        0.0861
     20 N          -4.7382  -19.4803   20.1632 N.3     1  UNL1       -0.2939
     21 H          -4.7627  -20.4159   19.7576 H       1  UNL1        0.1235
@<TRIPOS>BOND
     1    19    20    1
     2    20     1    1
     3     1     2    1
     4     2     3    1
     5     3     4    1
     6     4    11    1
     7    11    12   ar
     8    12    13   ar
     9    13    14   ar
    10    14    15    1
    11    14    16   ar
    12    16    17    1
    13    16    18   ar
    14     4     5    1
    15     5     6   ar
    16     6     7   ar
    17     7     8   ar
    18     8     9   ar
    19     9    10   ar
    20    10     1    1
    21    18    11   ar
    22    10     5   ar
    23    20    21    1
@<TRIPOS>MOLECULE
*****
 21 23 0 0 0
SMALL
GASTEIGER

@<TRIPOS>ATOM
      1 C         -18.1057   -8.1375   19.3553 C.3     1  UNL1        0.0798
      2 C         -16.9352   -9.0638   19.2077 C.3     1  UNL1        0.0421
      3 C         -15.5425   -8.5095   19.1507 C.3     1  UNL1        0.0973
      4 N         -15.3203   -7.0289   19.2414 N.pl3   1  UNL1       -0.2870
      5 C         -16.4908   -6.1025   19.3891 C.ar    1  UNL1        0.0488
      6 C         -16.2686   -4.6218   19.4798 C.ar    1  UNL1        0.0146
      7 C         -17.4391   -3.6955   19.6275 C.ar    1  UNL1        0.0013
      8 C         -18.8318   -4.2498   19.6845 C.ar    1  UNL1       -0.0002
      9 C         -19.0540   -5.7304   19.5938 C.ar    1  UNL1       -0.0017
     10 C         -17.8835   -6.6568   19.4461 C.ar    1  UNL1        0.0057
     11 C         -13.9277   -6.4746   19.1844 C.ar    1  UNL1        0.0525
     12 C         -13.6500   -5.0905   19.6914 C.ar    1  UNL1        0.0157
     13 C         -12.2574   -4.5362   19.6344 C.ar    1  UNL1        0.0135
     14 C         -11.1424   -5.3660   19.0704 C.ar    1  UNL1        0.0683
     15 CL         -9.7497   -4.8117   19.0134 Cl      1  UNL1       -0.0814
     16 C         -11.4200   -6.7502   18.5634 C.ar    1  UNL1        0.0694
     17 CL        -10.3050   -7.5800   17.9994 Cl      1  UNL1       -0.0813
     18 C         -12.8126   -7.3045   18.6203 C.ar    1  UNL1        0.0271
     19 C         -20.1354   -8.9843   20.7384 C.3     1  UNL1        0.0861
     20 N         -19.4983   -8.6918   19.4123 N.3     1  UNL1       -0.2939
     21 H         -20.1020   -8.0208   18.9373 H       1  UNL1        0.1235
@<TRIPOS>BOND
     1    19    20    1
     2    20     1    1
     3     1     2    1
     4     2     3    1
     5     3     4    1
     6     4    11    1
     7    11    12   ar
     8    12    13   ar
     9    13    14   ar
    10    14    15    1
    11    14    16   ar
    12    16    17    1
    13    16    18   ar
    14     4     5    1
    15     5     6   ar
    16     6     7   ar
    17     7     8   ar
    18     8     9   ar
    19     9    10   ar
    20    10     1    1
    21    18    11   ar
    22    10     5   ar
    23    20    21    1
