@<TRIPOS>MOLECULE
*****
 18 20 0 0 0
SMALL
GASTEIGER

@<TRIPOS>ATOM
      1 C          -4.0390  -20.8745   19.7698 C.3     1  UNL1        0.1200
      2 N          -4.2650  -19.8972   20.8850 N.am    1  UNL1       -0.2572
      3 C          -3.1095  -19.4337   21.7217 C.2     1  UNL1        0.2297
      4 O          -1.7280  -19.9476   21.4431 O.2     1  UNL1       -0.2745
      5 C          -3.3355  -18.4564   22.8369 C.3     1  UNL1        0.0903
      6 C          -4.7169  -17.9426   23.1155 C.3     1  UNL1        0.0372
      7 C          -5.8724  -18.4061   22.2789 C.ar    1  UNL1       -0.0080
      8 C          -7.2538  -17.8922   22.5574 C.ar    1  UNL1       -0.0030
      9 C          -8.4093  -18.3557   21.7208 C.ar    1  UNL1        0.0013
     10 C          -8.1833  -19.3330   20.6055 C.ar    1  UNL1        0.0013
     11 C          -6.8019  -19.8469   20.3269 C.ar    1  UNL1        0.0146
     12 C          -5.6465  -19.3834   21.1636 C.ar    1  UNL1        0.0499
     13 C          -9.7908  -17.8419   21.9993 C.ar    1  UNL1        0.0192
     14 C         -10.7820  -18.7077   22.7190 C.ar    1  UNL1        0.0031
     15 C         -12.1635  -18.1939   22.9975 C.ar    1  UNL1        0.0207
     16 C         -12.5537  -16.8143   22.5565 C.ar    1  UNL1        0.0989
     17 N         -11.5625  -15.9485   21.8369 N.ar    1  UNL1       -0.2423
     18 C         -10.1810  -16.4623   21.5583 C.ar    1  UNL1        0.0988
@<TRIPOS>BOND
     1     1     2    1
     2     2     3   am
     3     3     4    2
     4     3     5    1
     5     5     6    1
     6     6     7    1
     7     7     8   ar
     8     8     9   ar
     9     9    13    1
    10    13    14   ar
    11    14    15   ar
    12    15    16   ar
    13    16    17   ar
    14    17    18   ar
    15     9    10   ar
    16    10    11   ar
    17    11    12   ar
    18    12     2    1
    19    12     7   ar
    20    18    13   ar
@<TRIPOS>MOLECULE
*****
 18 20 0 0 0
SMALL
GASTEIGER

@<TRIPOS>ATOM
      1 C         -12.5994  -17.7895   21.2239 C.3     1  UNL1        0.1200
      2 N         -11.7362  -18.2679   22.3535 N.am    1  UNL1       -0.2572
      3 C         -12.3214  -18.4394   23.7239 C.2     1  UNL1        0.2297
      4 O         -13.7698  -18.1325   23.9648 O.2     1  UNL1       -0.2745
      5 C         -11.4582  -18.9178   24.8536 C.3     1  UNL1        0.0903
      6 C         -10.0098  -19.2248   24.6127 C.3     1  UNL1        0.0372
      7 C          -9.4246  -19.0533   23.2422 C.ar    1  UNL1       -0.0080
      8 C          -7.9763  -19.3602   23.0014 C.ar    1  UNL1       -0.0030
      9 C          -7.3911  -19.1887   21.6310 C.ar    1  UNL1        0.0013
     10 C          -8.2543  -18.7103   20.5014 C.ar    1  UNL1        0.0013
     11 C          -9.7026  -18.4034   20.7422 C.ar    1  UNL1        0.0146
     12 C         -10.2878  -18.5749   22.1126 C.ar    1  UNL1        0.0499
     13 C          -5.9427  -19.4956   21.3901 C.ar    1  UNL1        0.0192
     14 C          -5.5369  -20.3100   20.1975 C.ar    1  UNL1        0.0031
     15 C          -4.0886  -20.6170   19.9566 C.ar    1  UNL1        0.0207
     16 C          -3.0459  -20.1095   20.9082 C.ar    1  UNL1        0.0989
     17 N          -3.4517  -19.2951   22.1008 N.ar    1  UNL1       -0.2423
     18 C          -4.9002  -18.9882   22.3416 C.ar    1  UNL1        0.0988
@<TRIPOS>BOND
     1     1     2    1
     2     2     3   am
     3     3     4    2
     4     3     5    1
     5     5     6    1
     6     6     7    1
     7     7     8   ar
     8     8     9   ar
     9     9    13    1
    10    13    14   ar
    11    14    15   ar
    12    15    16   ar
    13    16    17   ar
    14    17    18   ar
    15     9    10   ar
    16    10    11   ar
    17    11    12   ar
    18    12     2    1
    19    12     7   ar
    20    18    13   ar
@<TRIPOS>MOLECULE
*****
 18 20 0 0 0
SMALL
GASTEIGER

@<TRIPOS>ATOM
      1 C         -11.2568  -16.3210   22.9443 C.3     1  UNL1        0.1200
      2 N         -10.8031  -17.3963   22.0021 N.am    1  UNL1       -0.2572
      3 C         -11.8003  -18.0973   21.1279 C.2     1  UNL1        0.2297
      4 O         -13.2513  -17.7229   21.1960 O.2     1  UNL1       -0.2745
      5 C         -11.3467  -19.1726   20.1857 C.3     1  UNL1        0.0903
      6 C          -9.8958  -19.5471   20.1177 C.3     1  UNL1        0.0372
      7 C          -8.8985  -18.8461   20.9919 C.ar    1  UNL1       -0.0080
      8 C          -7.4476  -19.2206   20.9238 C.ar    1  UNL1       -0.0030
      9 C          -6.4504  -18.5196   21.7980 C.ar    1  UNL1        0.0013
     10 C          -6.9040  -17.4443   22.7402 C.ar    1  UNL1        0.0013
     11 C          -8.3549  -17.0698   22.8083 C.ar    1  UNL1        0.0146
     12 C          -9.3521  -17.7708   21.9341 C.ar    1  UNL1        0.0499
     13 C          -4.9994  -18.8940   21.7300 C.ar    1  UNL1        0.0192
     14 C          -4.0017  -18.1905   22.6015 C.ar    1  UNL1        0.0031
     15 C          -2.5507  -18.5649   22.5335 C.ar    1  UNL1        0.0207
     16 C          -2.0975  -19.6428   21.5940 C.ar    1  UNL1        0.0989
     17 N          -3.0952  -20.3463   20.7224 N.ar    1  UNL1       -0.2423
     18 C          -4.5462  -19.9719   20.7904 C.ar    1  UNL1        0.0988
@<TRIPOS>BOND
     1     1     2    1
     2     2     3   am
     3     3     4    2
     4     3     5    1
     5     5     6    1
     6     6     7    1
     7     7     8   ar
     8     8     9   ar
     9     9    13    1
    10    13    14   ar
    11    14    15   ar
    12    15    16   ar
    13    16    17   ar
    14    17    18   ar
    15     9    10   ar
    16    10    11   ar
    17    11    12   ar
    18    12     2    1
    19    12     7   ar
    20    18    13   ar
@<TRIPOS>MOLECULE
*****
 18 20 0 0 0
SMALL
GASTEIGER

@<TRIPOS>ATOM
      1 C         -11.5106  -19.4101   20.7984 C.3     1  UNL1        0.1200
      2 N         -10.5732  -18.7880   21.7905 N.am    1  UNL1       -0.2572
      3 C         -11.1168  -18.1112   23.0138 C.2     1  UNL1        0.2297
      4 O         -12.5979  -18.0565   23.2449 O.2     1  UNL1       -0.2745
      5 C         -10.1794  -17.4891   24.0059 C.3     1  UNL1        0.0903
      6 C          -8.6983  -17.5438   23.7747 C.3     1  UNL1        0.0372
      7 C          -8.1546  -18.2207   22.5514 C.ar    1  UNL1       -0.0080
      8 C          -6.6736  -18.2754   22.3203 C.ar    1  UNL1       -0.0030
      9 C          -6.1300  -18.9522   21.0971 C.ar    1  UNL1        0.0013
     10 C          -7.0674  -19.5742   20.1050 C.ar    1  UNL1        0.0013
     11 C          -8.5484  -19.5195   20.3361 C.ar    1  UNL1        0.0146
     12 C          -9.0920  -18.8427   21.5593 C.ar    1  UNL1        0.0499
     13 C          -4.6488  -19.0069   20.8659 C.ar    1  UNL1        0.0192
     14 C          -3.7226  -19.3115   22.0057 C.ar    1  UNL1        0.0031
     15 C          -2.2416  -19.3663   21.7746 C.ar    1  UNL1        0.0207
     16 C          -1.6867  -19.1164   20.4036 C.ar    1  UNL1        0.0989
     17 N          -2.6129  -18.8117   19.2637 N.ar    1  UNL1       -0.2423
     18 C          -4.0940  -18.7570   19.4949 C.ar    1  UNL1        0.0988
@<TRIPOS>BOND
     1     1     2    1
     2     2     3   am
     3     3     4    2
     4     3     5    1
     5     5     6    1
     6     6     7    1
     7     7     8   ar
     8     8     9   ar
     9     9    13    1
    10    13    14   ar
    11    14    15   ar
    12    15    16   ar
    13    16    17   ar
    14    17    18   ar
    15     9    10   ar
    16    10    11   ar
    17    11    12   ar
    18    12     2    1
    19    12     7   ar
    20    18    13   ar
@<TRIPOS>MOLECULE
*****
 18 20 0 0 0
SMALL
GASTEIGER

@<TRIPOS>ATOM
      1 C         -11.0050  -18.8511   19.5768 C.3     1  UNL1        0.1200
      2 N          -9.5730  -18.9972   19.9988 N.am    1  UNL1       -0.2572
      3 C          -8.6401  -19.8586   19.2003 C.2     1  UNL1        0.2297
      4 O          -9.1391  -20.5740   17.9800 O.2     1  UNL1       -0.2745
      5 C          -7.2081  -20.0047   19.6223 C.3     1  UNL1        0.0903
      6 C          -6.7090  -19.2894   20.8426 C.3     1  UNL1        0.0372
      7 C          -7.6420  -18.4279   21.6410 C.ar    1  UNL1       -0.0080
      8 C          -7.1429  -17.7126   22.8614 C.ar    1  UNL1       -0.0030
      9 C          -8.0759  -16.8512   23.6598 C.ar    1  UNL1        0.0013
     10 C          -9.5079  -16.7051   23.2379 C.ar    1  UNL1        0.0013
     11 C         -10.0070  -17.4204   22.0175 C.ar    1  UNL1        0.0146
     12 C          -9.0740  -18.2818   21.2191 C.ar    1  UNL1        0.0499
     13 C          -7.5769  -16.1358   24.8801 C.ar    1  UNL1        0.0192
     14 C          -8.4365  -16.0561   26.1068 C.ar    1  UNL1        0.0031
     15 C          -7.9376  -15.3407   27.3271 C.ar    1  UNL1        0.0207
     16 C          -6.5789  -14.7051   27.3209 C.ar    1  UNL1        0.0989
     17 N          -5.7192  -14.7848   26.0942 N.ar    1  UNL1       -0.2423
     18 C          -6.2182  -15.5002   24.8739 C.ar    1  UNL1        0.0988
@<TRIPOS>BOND
     1     1     2    1
     2     2     3   am
     3     3     4    2
     4     3     5    1
     5     5     6    1
     6     6     7    1
     7     7     8   ar
     8     8     9   ar
     9     9    13    1
    10    13    14   ar
    11    14    15   ar
    12    15    16   ar
    13    16    17   ar
    14    17    18   ar
    15     9    10   ar
    16    10    11   ar
    17    11    12   ar
    18    12     2    1
    19    12     7   ar
    20    18    13   ar
@<TRIPOS>MOLECULE
*****
 18 20 0 0 0
SMALL
GASTEIGER

@<TRIPOS>ATOM
      1 C         -17.5167  -10.6646   18.2321 C.3     1  UNL1        0.1200
      2 N         -17.5019   -9.2504   18.7321 N.am    1  UNL1       -0.2572
      3 C         -18.7752   -8.6036   19.1904 C.2     1  UNL1        0.2297
      4 O         -20.0635   -9.3708   19.1487 O.2     1  UNL1       -0.2745
      5 C         -18.7604   -7.1894   19.6903 C.3     1  UNL1        0.0903
      6 C         -17.4722   -6.4221   19.7320 C.3     1  UNL1        0.0372
      7 C         -16.1987   -7.0690   19.2737 C.ar    1  UNL1       -0.0080
      8 C         -14.9105   -6.3018   19.3154 C.ar    1  UNL1       -0.0030
      9 C         -13.6372   -6.9486   18.8571 C.ar    1  UNL1        0.0013
     10 C         -13.6520   -8.3628   18.3571 C.ar    1  UNL1        0.0013
     11 C         -14.9402   -9.1301   18.3154 C.ar    1  UNL1        0.0146
     12 C         -16.2136   -8.4832   18.7737 C.ar    1  UNL1        0.0499
     13 C         -12.3489   -6.1814   18.8987 C.ar    1  UNL1        0.0192
     14 C         -11.0399   -6.9138   18.9144 C.ar    1  UNL1        0.0031
     15 C          -9.7517   -6.1466   18.9561 C.ar    1  UNL1        0.0207
     16 C          -9.7723   -4.6469   18.9821 C.ar    1  UNL1        0.0989
     17 N         -11.0812   -3.9145   18.9664 N.ar    1  UNL1       -0.2423
     18 C         -12.3695   -4.6818   18.9247 C.ar    1  UNL1        0.0988
@<TRIPOS>BOND
     1     1     2    1
     2     2     3   am
     3     3     4    2
     4     3     5    1
     5     5     6    1
     6     6     7    1
     7     7     8   ar
     8     8     9   ar
     9     9    13    1
    10    13    14   ar
    11    14    15   ar
    12    15    16   ar
    13    16    17   ar
    14    17    18   ar
    15     9    10   ar
    16    10    11   ar
    17    11    12   ar
    18    12     2    1
    19    12     7   ar
    20    18    13   ar
@<TRIPOS>MOLECULE
*****
 18 20 0 0 0
SMALL
GASTEIGER

@<TRIPOS>ATOM
      1 C         -19.1763   -7.2037   19.3926 C.3     1  UNL1        0.1200
      2 N         -18.0578   -8.1158   18.9839 N.am    1  UNL1       -0.2572
      3 C         -18.3533   -9.5283   18.5747 C.2     1  UNL1        0.2297
      4 O         -19.7674  -10.0287   18.5741 O.2     1  UNL1       -0.2745
      5 C         -17.2347  -10.4404   18.1660 C.3     1  UNL1        0.0903
      6 C         -15.8207   -9.9400   18.1667 C.3     1  UNL1        0.0372
      7 C         -15.5251   -8.5274   18.5759 C.ar    1  UNL1       -0.0080
      8 C         -14.1111   -8.0271   18.5765 C.ar    1  UNL1       -0.0030
      9 C         -13.8156   -6.6146   18.9858 C.ar    1  UNL1        0.0013
     10 C         -14.9341   -5.7025   19.3944 C.ar    1  UNL1        0.0013
     11 C         -16.3481   -6.2029   19.3938 C.ar    1  UNL1        0.0146
     12 C         -16.6437   -7.6153   18.9846 C.ar    1  UNL1        0.0499
     13 C         -12.4015   -6.1141   18.9864 C.ar    1  UNL1        0.0192
     14 C         -11.2619   -7.0860   18.9038 C.ar    1  UNL1        0.0031
     15 C          -9.8479   -6.5856   18.9045 C.ar    1  UNL1        0.0207
     16 C          -9.5733   -5.1133   18.9877 C.ar    1  UNL1        0.0989
     17 N         -10.7129   -4.1414   19.0703 N.ar    1  UNL1       -0.2423
     18 C         -12.1270   -4.6418   19.0696 C.ar    1  UNL1        0.0988
@<TRIPOS>BOND
     1     1     2    1
     2     2     3   am
     3     3     4    2
     4     3     5    1
     5     5     6    1
     6     6     7    1
     7     7     8   ar
     8     8     9   ar
     9     9    13    1
    10    13    14   ar
    11    14    15   ar
    12    15    16   ar
    13    16    17   ar
    14    17    18   ar
    15     9    10   ar
    16    10    11   ar
    17    11    12   ar
    18    12     2    1
    19    12     7   ar
    20    18    13   ar
@<TRIPOS>MOLECULE
*****
 18 20 0 0 0
SMALL
GASTEIGER

@<TRIPOS>ATOM
      1 C         -10.1274   -4.0715   18.5741 C.3     1  UNL1        0.1200
      2 N         -11.5883   -3.8354   18.8194 N.am    1  UNL1       -0.2572
      3 C         -12.0955   -2.4417   19.0437 C.2     1  UNL1        0.2297
      4 O         -11.1418   -1.2840   19.0227 O.2     1  UNL1       -0.2745
      5 C         -13.5563   -2.2056   19.2889 C.3     1  UNL1        0.0903
      6 C         -14.5100   -3.3631   19.3099 C.3     1  UNL1        0.0372
      7 C         -14.0029   -4.7569   19.0855 C.ar    1  UNL1       -0.0080
      8 C         -14.9565   -5.9145   19.1065 C.ar    1  UNL1       -0.0030
      9 C         -14.4494   -7.3082   18.8822 C.ar    1  UNL1        0.0013
     10 C         -12.9885   -7.5443   18.6369 C.ar    1  UNL1        0.0013
     11 C         -12.0348   -6.3867   18.6160 C.ar    1  UNL1        0.0146
     12 C         -12.5420   -4.9930   18.8403 C.ar    1  UNL1        0.0499
     13 C         -15.4031   -8.4658   18.9031 C.ar    1  UNL1        0.0192
     14 C         -16.7037   -8.3528   19.6418 C.ar    1  UNL1        0.0031
     15 C         -17.6573   -9.5104   19.6627 C.ar    1  UNL1        0.0207
     16 C         -17.3104  -10.7811   18.9450 C.ar    1  UNL1        0.0989
     17 N         -16.0098  -10.8941   18.2063 N.ar    1  UNL1       -0.2423
     18 C         -15.0561   -9.7364   18.1854 C.ar    1  UNL1        0.0988
@<TRIPOS>BOND
     1     1     2    1
     2     2     3   am
     3     3     4    2
     4     3     5    1
     5     5     6    1
     6     6     7    1
     7     7     8   ar
     8     8     9   ar
     9     9    13    1
    10    13    14   ar
    11    14    15   ar
    12    15    16   ar
    13    16    17   ar
    14    17    18   ar
    15     9    10   ar
    16    10    11   ar
    17    11    12   ar
    18    12     2    1
    19    12     7   ar
    20    18    13   ar
@<TRIPOS>MOLECULE
*****
 18 20 0 0 0
SMALL
GASTEIGER

@<TRIPOS>ATOM
      1 C         -10.5621   -6.8800   18.0083 C.3     1  UNL1        0.1200
      2 N         -11.6637   -6.0408   18.5846 N.am    1  UNL1       -0.2572
      3 C         -11.3817   -4.6372   19.0319 C.2     1  UNL1        0.2297
      4 O          -9.9979   -4.0726   18.9030 O.2     1  UNL1       -0.2745
      5 C         -12.4834   -3.7980   19.6082 C.3     1  UNL1        0.0903
      6 C         -13.8671   -4.3624   19.7371 C.3     1  UNL1        0.0372
      7 C         -14.1492   -5.7662   19.2898 C.ar    1  UNL1       -0.0080
      8 C         -15.5329   -6.3307   19.4187 C.ar    1  UNL1       -0.0030
      9 C         -15.8149   -7.7343   18.9714 C.ar    1  UNL1        0.0013
     10 C         -14.7133   -8.5735   18.3951 C.ar    1  UNL1        0.0013
     11 C         -13.3295   -8.0090   18.2662 C.ar    1  UNL1        0.0146
     12 C         -13.0475   -6.6054   18.7135 C.ar    1  UNL1        0.0499
     13 C         -17.1987   -8.2989   19.1003 C.ar    1  UNL1        0.0192
     14 C         -18.0739   -7.8847   20.2459 C.ar    1  UNL1        0.0031
     15 C         -19.4576   -8.4492   20.3749 C.ar    1  UNL1        0.0207
     16 C         -19.9662   -9.4279   19.3582 C.ar    1  UNL1        0.0989
     17 N         -19.0909   -9.8421   18.2126 N.ar    1  UNL1       -0.2423
     18 C         -17.7072   -9.2775   18.0836 C.ar    1  UNL1        0.0988
@<TRIPOS>BOND
     1     1     2    1
     2     2     3   am
     3     3     4    2
     4     3     5    1
     5     5     6    1
     6     6     7    1
     7     7     8   ar
     8     8     9   ar
     9     9    13    1
    10    13    14   ar
    11    14    15   ar
    12    15    16   ar
    13    16    17   ar
    14    17    18   ar
    15     9    10   ar
    16    10    11   ar
    17    11    12   ar
    18    12     2    1
    19    12     7   ar
    20    18    13   ar
