@<TRIPOS>MOLECULE
*****
 40 43 0 0 0
SMALL
GASTEIGER

@<TRIPOS>ATOM
      1 C           5.0566   -2.2381   19.0074 C.ar    1  UNL1        0.0611
      2 C           5.5150   -1.5118   17.7776 C.ar    1  UNL1        0.1037
      3 N           7.0090   -1.6234   17.7033 N.ar    1  UNL1       -0.2269
      4 C           7.4739   -2.4186   18.8871 C.ar    1  UNL1        0.1407
      5 N           8.8402   -2.8458   19.3353 N.ar    1  UNL1       -0.3374
      6 C           8.9997   -3.6529   20.5895 C.ar    1  UNL1        0.0734
      7 C           7.7931   -4.0328   21.3955 C.ar    1  UNL1        0.0171
      8 C           6.4268   -3.6056   20.9473 C.ar    1  UNL1        0.0046
      9 C           6.2673   -2.7985   19.6931 C.ar    1  UNL1        0.0386
     10 H           9.6321   -2.5964   18.8063 H       1  UNL1        0.1674
     11 C           7.9527   -4.8400   22.6497 C.ar    1  UNL1        0.0015
     12 C           7.2805   -4.3990   23.9161 C.ar    1  UNL1        0.0014
     13 C           7.4401   -5.2062   25.1703 C.ar    1  UNL1        0.0199
     14 C           8.2719   -6.4544   25.1581 C.ar    1  UNL1        0.1222
     15 C           8.9441   -6.8954   23.8917 C.ar    1  UNL1        0.0199
     16 C           8.7845   -6.0882   22.6375 C.ar    1  UNL1        0.0014
     17 S           8.4315   -7.2616   26.4123 S.O2    1  UNL1        0.0634
     18 O           7.3725   -8.2110   25.9360 O.2     1  UNL1       -0.1528
     19 O           9.4906   -6.3121   26.8885 O.2     1  UNL1       -0.1528
     20 N           8.5912   -8.0687   27.6664 N.3     1  UNL1       -0.1526
     21 C           8.3439   -9.5480   27.6428 C.3     1  UNL1        0.1150
     22 C           8.9981   -7.3966   28.9442 C.3     1  UNL1        0.1150
     23 C           3.6368   -2.3792   19.4702 C.2     1  UNL1        0.2015
     24 O           2.8410   -3.5925   19.0900 O.2     1  UNL1       -0.2864
     25 C           2.4987   -0.2968   22.6512 C.ar    1  UNL1        0.0920
     26 C           1.7646    0.8374   21.9997 C.ar    1  UNL1        0.0204
     27 C           1.6545    0.8995   20.5050 C.ar    1  UNL1        0.0312
     28 C           2.2785   -0.1727   19.6618 C.ar    1  UNL1        0.1454
     29 F           2.1685   -0.1107   18.1672 F       1  UNL1       -0.2040
     30 C           3.0127   -1.3069   20.3134 C.ar    1  UNL1        0.0951
     31 C           3.1228   -1.3690   21.8081 C.ar    1  UNL1        0.1598
     32 F           3.8570   -2.5033   22.4595 F       1  UNL1       -0.2026
     33 N           2.6088   -0.3588   24.1459 N.pl3   1  UNL1       -0.2166
     34 H           1.8011   -0.4867   24.6941 H       1  UNL1        0.1734
     35 S           3.9495   -0.2261   24.8053 S.O2    1  UNL1        0.0540
     36 O           4.0468    1.1907   24.3223 O.2     1  UNL1       -0.1545
     37 O           3.8522   -1.6429   25.2883 O.2     1  UNL1       -0.1545
     38 C           5.2902   -0.0935   25.4647 C.3     1  UNL1        0.1724
     39 C           6.6851   -0.7773   23.3822 C.3     1  UNL1        0.0019
     40 C           6.4892   -0.7703   24.8693 C.3     1  UNL1        0.0273
@<TRIPOS>BOND
     1    39    40    1
     2    40    38    1
     3    38    35    1
     4    35    36    2
     5    35    37    2
     6    35    33    1
     7    33    25    1
     8    25    26   ar
     9    26    27   ar
    10    27    28   ar
    11    28    29    1
    12    28    30   ar
    13    30    23    1
    14    23    24    2
    15    23     1    1
    16     1     2   ar
    17     2     3   ar
    18     3     4   ar
    19     4     5   ar
    20     5     6   ar
    21     6     7   ar
    22     7    11    1
    23    11    12   ar
    24    12    13   ar
    25    13    14   ar
    26    14    17    1
    27    17    18    2
    28    17    19    2
    29    17    20    1
    30    20    21    1
    31    20    22    1
    32    14    15   ar
    33    15    16   ar
    34     7     8   ar
    35     8     9   ar
    36    30    31   ar
    37    31    32    1
    38    31    25   ar
    39     9     1   ar
    40     9     4    1
    41    16    11   ar
    42    33    34    1
    43     5    10    1
@<TRIPOS>MOLECULE
*****
 40 43 0 0 0
SMALL
GASTEIGER

@<TRIPOS>ATOM
      1 C           0.3545    2.4025   22.8876 C.ar    1  UNL1        0.0611
      2 C          -0.7633    2.9733   22.0662 C.ar    1  UNL1        0.1037
      3 N          -0.8634    2.1741   20.8008 N.ar    1  UNL1       -0.2269
      4 C           0.1924    1.1094   20.8401 C.ar    1  UNL1        0.1407
      5 N           0.5656    0.0296   19.8682 N.ar    1  UNL1       -0.3374
      6 C           1.6916   -0.9091   20.1860 C.ar    1  UNL1        0.0734
      7 C           2.4443   -0.7680   21.4758 C.ar    1  UNL1        0.0171
      8 C           2.0711    0.3118   22.4477 C.ar    1  UNL1        0.0046
      9 C           0.9451    1.2505   22.1299 C.ar    1  UNL1        0.0386
     10 H           0.0716   -0.0630   19.0217 H       1  UNL1        0.1674
     11 C           3.5703   -1.7067   21.7936 C.ar    1  UNL1        0.0015
     12 C           3.9879   -1.9220   23.2181 C.ar    1  UNL1        0.0014
     13 C           5.1139   -2.8607   23.5359 C.ar    1  UNL1        0.0199
     14 C           5.8223   -3.5841   22.4291 C.ar    1  UNL1        0.1222
     15 C           5.4047   -3.3688   21.0046 C.ar    1  UNL1        0.0199
     16 C           4.2787   -2.4301   20.6868 C.ar    1  UNL1        0.0014
     17 S           6.9483   -4.5228   22.7469 S.O2    1  UNL1        0.0634
     18 O           6.6816   -4.3466   24.2124 O.2     1  UNL1       -0.1528
     19 O           7.2149   -4.6991   21.2813 O.2     1  UNL1       -0.1528
     20 N           8.0742   -5.4615   23.0646 N.3     1  UNL1       -0.1526
     21 C           9.2991   -5.4838   22.1990 C.3     1  UNL1        0.1150
     22 C           7.9754   -6.3781   24.2480 C.3     1  UNL1        0.1150
     23 C           0.8029    2.8968   24.2310 C.2     1  UNL1        0.2015
     24 O           1.9404    3.8693   24.3309 O.2     1  UNL1       -0.2864
     25 C          -0.0115    0.7847   27.4908 C.ar    1  UNL1        0.0920
     26 C          -1.2645    1.4618   27.9615 C.ar    1  UNL1        0.0204
     27 C          -1.8284    2.6171   27.1887 C.ar    1  UNL1        0.0312
     28 C          -1.1393    3.0955   25.9452 C.ar    1  UNL1        0.1454
     29 F          -1.7032    4.2508   25.1725 F       1  UNL1       -0.2040
     30 C           0.1137    2.4184   25.4745 C.ar    1  UNL1        0.0951
     31 C           0.6775    1.2631   26.2473 C.ar    1  UNL1        0.1598
     32 F           1.9306    0.5860   25.7765 F       1  UNL1       -0.2026
     33 N           0.5523   -0.3707   28.2635 N.pl3   1  UNL1       -0.2166
     34 H           0.1352   -1.2597   28.1941 H       1  UNL1        0.1734
     35 S           1.7517   -0.1714   29.1421 S.O2    1  UNL1        0.0540
     36 O           0.9387    0.6984   30.0546 O.2     1  UNL1       -0.1545
     37 O           2.5646   -1.0412   28.2296 O.2     1  UNL1       -0.1545
     38 C           2.9510    0.0278   30.0206 C.3     1  UNL1        0.1724
     39 C           3.6359   -0.2593   32.5103 C.3     1  UNL1        0.0019
     40 C           3.1582   -0.8519   31.2178 C.3     1  UNL1        0.0273
@<TRIPOS>BOND
     1    39    40    1
     2    40    38    1
     3    38    35    1
     4    35    36    2
     5    35    37    2
     6    35    33    1
     7    33    25    1
     8    25    26   ar
     9    26    27   ar
    10    27    28   ar
    11    28    29    1
    12    28    30   ar
    13    30    23    1
    14    23    24    2
    15    23     1    1
    16     1     2   ar
    17     2     3   ar
    18     3     4   ar
    19     4     5   ar
    20     5     6   ar
    21     6     7   ar
    22     7    11    1
    23    11    12   ar
    24    12    13   ar
    25    13    14   ar
    26    14    17    1
    27    17    18    2
    28    17    19    2
    29    17    20    1
    30    20    21    1
    31    20    22    1
    32    14    15   ar
    33    15    16   ar
    34     7     8   ar
    35     8     9   ar
    36    30    31   ar
    37    31    32    1
    38    31    25   ar
    39     9     1   ar
    40     9     4    1
    41    16    11   ar
    42    33    34    1
    43     5    10    1
@<TRIPOS>MOLECULE
*****
 40 43 0 0 0
SMALL
GASTEIGER

@<TRIPOS>ATOM
      1 C           4.9998   -3.3299   22.4998 C.ar    1  UNL1        0.0611
      2 C           6.0496   -3.9570   23.3685 C.ar    1  UNL1        0.1037
      3 N           6.0564   -3.2338   24.6826 N.ar    1  UNL1       -0.2269
      4 C           5.0108   -2.1597   24.6261 C.ar    1  UNL1        0.1407
      5 N           4.5690   -1.1353   25.6288 N.ar    1  UNL1       -0.3374
      6 C           3.4742   -0.1703   25.2823 C.ar    1  UNL1        0.0734
      7 C           2.8212   -0.2297   23.9333 C.ar    1  UNL1        0.0171
      8 C           3.2630   -1.2541   22.9306 C.ar    1  UNL1        0.0046
      9 C           4.3578   -2.2191   23.2770 C.ar    1  UNL1        0.0386
     10 H           4.9976   -1.0964   26.5142 H       1  UNL1        0.1674
     11 C           1.7263    0.7354   23.5869 C.ar    1  UNL1        0.0015
     12 C           1.2797    0.8833   22.1626 C.ar    1  UNL1        0.0014
     13 C           0.1848    1.8483   21.8162 C.ar    1  UNL1        0.0199
     14 C          -0.4635    2.6655   22.8942 C.ar    1  UNL1        0.1222
     15 C          -0.0169    2.5175   24.3185 C.ar    1  UNL1        0.0199
     16 C           1.0780    1.5525   24.6648 C.ar    1  UNL1        0.0014
     17 S          -1.5583    3.6305   22.5478 S.O2    1  UNL1        0.0634
     18 O          -1.2349    4.4364   23.7709 O.2     1  UNL1       -0.1528
     19 O          -1.8817    2.8246   21.3248 O.2     1  UNL1       -0.1528
     20 N          -2.6531    4.5955   22.2015 N.3     1  UNL1       -0.1526
     21 C          -3.1455    4.6955   20.7882 C.3     1  UNL1        0.1150
     22 C          -3.2556    5.4607   23.2686 C.3     1  UNL1        0.1150
     23 C           4.6529   -3.7413   21.0997 C.2     1  UNL1        0.2015
     24 O           3.9535   -5.0449   20.8525 O.2     1  UNL1       -0.2864
     25 C           4.3091   -1.0802   18.1755 C.ar    1  UNL1        0.0920
     26 C           5.7104   -1.0642   17.6406 C.ar    1  UNL1        0.0204
     27 C           6.7591   -1.9406   18.2586 C.ar    1  UNL1        0.0312
     28 C           6.4067   -2.8329   19.4116 C.ar    1  UNL1        0.1454
     29 F           7.4555   -3.7093   20.0297 F       1  UNL1       -0.2040
     30 C           5.0054   -2.8489   19.9466 C.ar    1  UNL1        0.0951
     31 C           3.9566   -1.9725   19.3285 C.ar    1  UNL1        0.1598
     32 F           2.5553   -1.9885   19.8635 F       1  UNL1       -0.2026
     33 N           3.2603   -0.2038   17.5574 N.pl3   1  UNL1       -0.2166
     34 H           2.8766   -0.4382   16.6816 H       1  UNL1        0.1734
     35 S           2.7962    1.0297   18.2737 S.O2    1  UNL1        0.0540
     36 O           4.1849    1.5925   18.2043 O.2     1  UNL1       -0.1545
     37 O           1.4076    0.4668   18.3432 O.2     1  UNL1       -0.1545
     38 C           2.3320    2.2631   18.9900 C.3     1  UNL1        0.1724
     39 C           0.2334    3.7416   18.5899 C.3     1  UNL1        0.0019
     40 C           1.6375    3.3547   18.2310 C.3     1  UNL1        0.0273
@<TRIPOS>BOND
     1    39    40    1
     2    40    38    1
     3    38    35    1
     4    35    36    2
     5    35    37    2
     6    35    33    1
     7    33    25    1
     8    25    26   ar
     9    26    27   ar
    10    27    28   ar
    11    28    29    1
    12    28    30   ar
    13    30    23    1
    14    23    24    2
    15    23     1    1
    16     1     2   ar
    17     2     3   ar
    18     3     4   ar
    19     4     5   ar
    20     5     6   ar
    21     6     7   ar
    22     7    11    1
    23    11    12   ar
    24    12    13   ar
    25    13    14   ar
    26    14    17    1
    27    17    18    2
    28    17    19    2
    29    17    20    1
    30    20    21    1
    31    20    22    1
    32    14    15   ar
    33    15    16   ar
    34     7     8   ar
    35     8     9   ar
    36    30    31   ar
    37    31    32    1
    38    31    25   ar
    39     9     1   ar
    40     9     4    1
    41    16    11   ar
    42    33    34    1
    43     5    10    1
@<TRIPOS>MOLECULE
*****
 40 43 0 0 0
SMALL
GASTEIGER

@<TRIPOS>ATOM
      1 C           6.7169   -3.3609   30.1075 C.ar    1  UNL1        0.0611
      2 C           6.8414   -4.3104   31.2620 C.ar    1  UNL1        0.1037
      3 N           6.9938   -5.6960   30.7081 N.ar    1  UNL1       -0.2269
      4 C           6.9636   -5.6028   29.2113 C.ar    1  UNL1        0.1407
      5 N           7.0698   -6.6457   28.1384 N.ar    1  UNL1       -0.3374
      6 C           7.0049   -6.2453   26.6943 C.ar    1  UNL1        0.0734
      7 C           6.8338   -4.8021   26.3231 C.ar    1  UNL1        0.0171
      8 C           6.7276   -3.7592   27.3960 C.ar    1  UNL1        0.0046
      9 C           6.7925   -4.1596   28.8401 C.ar    1  UNL1        0.0386
     10 H           7.1821   -7.5929   28.3821 H       1  UNL1        0.1674
     11 C           6.7688   -4.4018   24.8789 C.ar    1  UNL1        0.0015
     12 C           7.7025   -5.0263   23.8848 C.ar    1  UNL1        0.0014
     13 C           7.6375   -4.6259   22.4407 C.ar    1  UNL1        0.0199
     14 C           6.6390   -3.6011   21.9907 C.ar    1  UNL1        0.1222
     15 C           5.7053   -2.9765   22.9849 C.ar    1  UNL1        0.0199
     16 C           5.7703   -3.3769   24.4289 C.ar    1  UNL1        0.0014
     17 S           6.5740   -3.2007   20.5466 S.O2    1  UNL1        0.0634
     18 O           7.3128   -1.9346   20.8644 O.2     1  UNL1       -0.1528
     19 O           5.8352   -4.4668   20.2288 O.2     1  UNL1       -0.1528
     20 N           6.5091   -2.8003   19.1025 N.3     1  UNL1       -0.1526
     21 C           5.3075   -3.1572   18.2786 C.3     1  UNL1        0.1150
     22 C           7.6457   -2.0431   18.4822 C.3     1  UNL1        0.1150
     23 C           6.5468   -1.8736   30.2035 C.2     1  UNL1        0.2015
     24 O           7.7409   -0.9731   30.0887 O.2     1  UNL1       -0.2864
     25 C           2.8718   -0.5679   29.4689 C.ar    1  UNL1        0.0920
     26 C           2.4539   -0.1133   30.8359 C.ar    1  UNL1        0.0204
     27 C           3.4004   -0.2455   31.9921 C.ar    1  UNL1        0.0312
     28 C           4.7646   -0.8322   31.7814 C.ar    1  UNL1        0.1454
     29 F           5.7111   -0.9644   32.9375 F       1  UNL1       -0.2040
     30 C           5.1825   -1.2868   30.4143 C.ar    1  UNL1        0.0951
     31 C           4.2360   -1.1547   29.2581 C.ar    1  UNL1        0.1598
     32 F           4.6539   -1.6093   27.8911 F       1  UNL1       -0.2026
     33 N           1.9253   -0.4358   28.3127 N.pl3   1  UNL1       -0.2166
     34 H           1.8816   -1.1428   27.6290 H       1  UNL1        0.1734
     35 S           1.0455    0.7737   28.1982 S.O2    1  UNL1        0.0540
     36 O          -0.1485   -0.0611   28.5550 O.2     1  UNL1       -0.1545
     37 O           2.2395    1.6085   27.8414 O.2     1  UNL1       -0.1545
     38 C           0.1658    1.9832   28.0836 C.3     1  UNL1        0.1724
     39 C          -0.8077    2.0898   25.6771 C.3     1  UNL1        0.0019
     40 C          -1.0143    1.9673   27.1577 C.3     1  UNL1        0.0273
@<TRIPOS>BOND
     1    39    40    1
     2    40    38    1
     3    38    35    1
     4    35    36    2
     5    35    37    2
     6    35    33    1
     7    33    25    1
     8    25    26   ar
     9    26    27   ar
    10    27    28   ar
    11    28    29    1
    12    28    30   ar
    13    30    23    1
    14    23    24    2
    15    23     1    1
    16     1     2   ar
    17     2     3   ar
    18     3     4   ar
    19     4     5   ar
    20     5     6   ar
    21     6     7   ar
    22     7    11    1
    23    11    12   ar
    24    12    13   ar
    25    13    14   ar
    26    14    17    1
    27    17    18    2
    28    17    19    2
    29    17    20    1
    30    20    21    1
    31    20    22    1
    32    14    15   ar
    33    15    16   ar
    34     7     8   ar
    35     8     9   ar
    36    30    31   ar
    37    31    32    1
    38    31    25   ar
    39     9     1   ar
    40     9     4    1
    41    16    11   ar
    42    33    34    1
    43     5    10    1
@<TRIPOS>MOLECULE
*****
 40 43 0 0 0
SMALL
GASTEIGER

@<TRIPOS>ATOM
      1 C           3.9756   -1.9590   19.1118 C.ar    1  UNL1        0.0611
      2 C           3.8175   -1.4260   17.7187 C.ar    1  UNL1        0.1037
      3 N           3.1627   -0.0796   17.8091 N.ar    1  UNL1       -0.2269
      4 C           2.9161    0.2197   19.2581 C.ar    1  UNL1        0.1407
      5 N           2.2990    1.3997   19.9484 N.ar    1  UNL1       -0.3374
      6 C           2.1844    1.4182   21.4439 C.ar    1  UNL1        0.0734
      7 C           2.6868    0.2566   22.2491 C.ar    1  UNL1        0.0171
      8 C           3.3039   -0.9234   21.5588 C.ar    1  UNL1        0.0046
      9 C           3.4186   -0.9419   20.0633 C.ar    1  UNL1        0.0386
     10 H           1.9692    2.1621   19.4200 H       1  UNL1        0.1674
     11 C           2.5721    0.2752   23.7446 C.ar    1  UNL1        0.0015
     12 C           3.4562   -0.6068   24.5756 C.ar    1  UNL1        0.0014
     13 C           3.3415   -0.5883   26.0711 C.ar    1  UNL1        0.0199
     14 C           2.3428    0.3122   26.7356 C.ar    1  UNL1        0.1222
     15 C           1.4587    1.1942   25.9046 C.ar    1  UNL1        0.0199
     16 C           1.5734    1.1757   24.4091 C.ar    1  UNL1        0.0014
     17 S           2.2280    0.3308   28.2311 S.O2    1  UNL1        0.0634
     18 O           1.8431    1.7798   28.1836 O.2     1  UNL1       -0.1528
     19 O           2.6130   -1.1181   28.2786 O.2     1  UNL1       -0.1528
     20 N           2.1133    0.3494   29.7265 N.3     1  UNL1       -0.1526
     21 C           1.3351    1.4371   30.4056 C.3     1  UNL1        0.1150
     22 C           2.7768   -0.7199   30.5430 C.3     1  UNL1        0.1150
     23 C           4.5841   -3.2776   19.4876 C.2     1  UNL1        0.2015
     24 O           3.9553   -4.5552   19.0165 O.2     1  UNL1       -0.2864
     25 C           6.9811   -3.8421   22.5998 C.ar    1  UNL1        0.0920
     26 C           8.2959   -3.4002   22.0288 C.ar    1  UNL1        0.0204
     27 C           8.3734   -2.9175   20.6107 C.ar    1  UNL1        0.0312
     28 C           7.1362   -2.8766   19.7636 C.ar    1  UNL1        0.1454
     29 F           7.2137   -2.3938   18.3456 F       1  UNL1       -0.2040
     30 C           5.8214   -3.3184   20.3347 C.ar    1  UNL1        0.0951
     31 C           5.7439   -3.8012   21.7528 C.ar    1  UNL1        0.1598
     32 F           4.4291   -4.2431   22.3238 F       1  UNL1       -0.2026
     33 N           6.9037   -4.3248   24.0179 N.pl3   1  UNL1       -0.2166
     34 H           6.1736   -4.0185   24.6030 H       1  UNL1        0.1734
     35 S           7.9386   -5.2744   24.5445 S.O2    1  UNL1        0.0540
     36 O           8.2199   -4.3373   25.6814 O.2     1  UNL1       -0.1545
     37 O           7.6572   -6.2115   23.4076 O.2     1  UNL1       -0.1545
     38 C           8.9734   -6.2240   25.0710 C.3     1  UNL1        0.1724
     39 C           7.5515   -7.9781   26.3561 C.3     1  UNL1        0.0019
     40 C           8.6099   -7.6535   25.3440 C.3     1  UNL1        0.0273
@<TRIPOS>BOND
     1    39    40    1
     2    40    38    1
     3    38    35    1
     4    35    36    2
     5    35    37    2
     6    35    33    1
     7    33    25    1
     8    25    26   ar
     9    26    27   ar
    10    27    28   ar
    11    28    29    1
    12    28    30   ar
    13    30    23    1
    14    23    24    2
    15    23     1    1
    16     1     2   ar
    17     2     3   ar
    18     3     4   ar
    19     4     5   ar
    20     5     6   ar
    21     6     7   ar
    22     7    11    1
    23    11    12   ar
    24    12    13   ar
    25    13    14   ar
    26    14    17    1
    27    17    18    2
    28    17    19    2
    29    17    20    1
    30    20    21    1
    31    20    22    1
    32    14    15   ar
    33    15    16   ar
    34     7     8   ar
    35     8     9   ar
    36    30    31   ar
    37    31    32    1
    38    31    25   ar
    39     9     1   ar
    40     9     4    1
    41    16    11   ar
    42    33    34    1
    43     5    10    1
@<TRIPOS>MOLECULE
*****
 40 43 0 0 0
SMALL
GASTEIGER

@<TRIPOS>ATOM
      1 C           7.5688   -4.0431   27.5595 C.ar    1  UNL1        0.0611
      2 C           7.9493   -5.3982   27.0408 C.ar    1  UNL1        0.1037
      3 N           7.8763   -6.3686   28.1822 N.ar    1  UNL1       -0.2269
      4 C           7.4508   -5.6133   29.4063 C.ar    1  UNL1        0.1407
      5 N           7.2118   -6.0487   30.8217 N.ar    1  UNL1       -0.3374
      6 C           6.7827   -5.0467   31.8522 C.ar    1  UNL1        0.0734
      7 C           6.5927   -3.6094   31.4673 C.ar    1  UNL1        0.0171
      8 C           6.8317   -3.1741   30.0519 C.ar    1  UNL1        0.0046
      9 C           7.2607   -4.1761   29.0214 C.ar    1  UNL1        0.0386
     10 H           7.3365   -6.9920   31.0743 H       1  UNL1        0.1674
     11 C           6.1636   -2.6075   32.4979 C.ar    1  UNL1        0.0015
     12 C           4.7725   -2.6554   33.0569 C.ar    1  UNL1        0.0014
     13 C           4.3435   -1.6534   34.0875 C.ar    1  UNL1        0.0199
     14 C           5.3056   -0.6036   34.5590 C.ar    1  UNL1        0.1222
     15 C           6.6967   -0.5557   33.9999 C.ar    1  UNL1        0.0199
     16 C           7.1257   -1.5577   32.9694 C.ar    1  UNL1        0.0014
     17 S           4.8766    0.3984   35.5896 S.O2    1  UNL1        0.0634
     18 O           5.5495   -0.4119   36.6575 O.2     1  UNL1       -0.1528
     19 O           4.2036    1.2086   34.5216 O.2     1  UNL1       -0.1528
     20 N           4.4476    1.4003   36.6201 N.3     1  UNL1       -0.1526
     21 C           4.6156    2.8672   36.3555 C.3     1  UNL1        0.1150
     22 C           3.8505    0.9354   37.9153 C.3     1  UNL1        0.1150
     23 C           7.5072   -2.7772   26.7571 C.2     1  UNL1        0.2015
     24 O           8.4388   -1.6443   27.0707 O.2     1  UNL1       -0.2864
     25 C           5.7829   -3.1739   23.2046 C.ar    1  UNL1        0.0920
     26 C           4.5275   -2.3786   23.4085 C.ar    1  UNL1        0.0204
     27 C           4.2654   -1.7162   24.7285 C.ar    1  UNL1        0.0312
     28 C           5.2586   -1.8491   25.8447 C.ar    1  UNL1        0.1454
     29 F           4.9964   -1.1867   27.1648 F       1  UNL1       -0.2040
     30 C           6.5140   -2.6443   25.6408 C.ar    1  UNL1        0.0951
     31 C           6.7761   -3.3067   24.3208 C.ar    1  UNL1        0.1598
     32 F           8.0315   -4.1020   24.1170 F       1  UNL1       -0.2026
     33 N           6.0451   -3.8363   21.8846 N.pl3   1  UNL1       -0.2166
     34 H           6.7024   -4.5665   21.8222 H       1  UNL1        0.1734
     35 S           5.3056   -3.3861   20.6596 S.O2    1  UNL1        0.0540
     36 O           4.3671   -4.5479   20.7992 O.2     1  UNL1       -0.1545
     37 O           6.2441   -2.2243   20.5200 O.2     1  UNL1       -0.1545
     38 C           4.5662   -2.9359   19.4347 C.3     1  UNL1        0.1724
     39 C           2.7668   -1.2627   20.2791 C.3     1  UNL1        0.0019
     40 C           3.1301   -2.5151   19.5378 C.3     1  UNL1        0.0273
@<TRIPOS>BOND
     1    39    40    1
     2    40    38    1
     3    38    35    1
     4    35    36    2
     5    35    37    2
     6    35    33    1
     7    33    25    1
     8    25    26   ar
     9    26    27   ar
    10    27    28   ar
    11    28    29    1
    12    28    30   ar
    13    30    23    1
    14    23    24    2
    15    23     1    1
    16     1     2   ar
    17     2     3   ar
    18     3     4   ar
    19     4     5   ar
    20     5     6   ar
    21     6     7   ar
    22     7    11    1
    23    11    12   ar
    24    12    13   ar
    25    13    14   ar
    26    14    17    1
    27    17    18    2
    28    17    19    2
    29    17    20    1
    30    20    21    1
    31    20    22    1
    32    14    15   ar
    33    15    16   ar
    34     7     8   ar
    35     8     9   ar
    36    30    31   ar
    37    31    32    1
    38    31    25   ar
    39     9     1   ar
    40     9     4    1
    41    16    11   ar
    42    33    34    1
    43     5    10    1
@<TRIPOS>MOLECULE
*****
 40 43 0 0 0
SMALL
GASTEIGER

@<TRIPOS>ATOM
      1 C           5.1067   -3.5956   20.5304 C.ar    1  UNL1        0.0611
      2 C           6.2598   -4.4913   20.1867 C.ar    1  UNL1        0.1037
      3 N           7.1142   -4.6372   21.4109 N.ar    1  UNL1       -0.2269
      4 C           6.4892   -3.8317   22.5112 C.ar    1  UNL1        0.1407
      5 N           6.8895   -3.6013   23.9382 N.ar    1  UNL1       -0.3374
      6 C           6.0492   -2.7271   24.8211 C.ar    1  UNL1        0.0734
      7 C           4.8085   -2.0833   24.2769 C.ar    1  UNL1        0.0171
      8 C           4.4081   -2.3137   22.8498 C.ar    1  UNL1        0.0046
      9 C           5.2485   -3.1879   21.9669 C.ar    1  UNL1        0.0386
     10 H           7.7038   -4.0238   24.2954 H       1  UNL1        0.1674
     11 C           3.9681   -1.2090   25.1598 C.ar    1  UNL1        0.0015
     12 C           3.9447   -1.4411   26.6415 C.ar    1  UNL1        0.0014
     13 C           3.1043   -0.5668   27.5245 C.ar    1  UNL1        0.0199
     14 C           2.2873    0.5395   26.9256 C.ar    1  UNL1        0.1222
     15 C           2.3108    0.7715   25.4438 C.ar    1  UNL1        0.0199
     16 C           3.1511   -0.1027   24.5609 C.ar    1  UNL1        0.0014
     17 S           1.4470    1.4137   27.8084 S.O2    1  UNL1        0.0634
     18 O           0.9349    0.1989   28.5240 O.2     1  UNL1       -0.1528
     19 O           1.9590    2.6285   27.0929 O.2     1  UNL1       -0.1528
     20 N           0.6066    2.2879   28.6913 N.3     1  UNL1       -0.1526
     21 C           0.4215    1.9362   30.1377 C.3     1  UNL1        0.1150
     22 C          -0.0487    3.5140   28.1277 C.3     1  UNL1        0.1150
     23 C           4.0053   -3.1803   19.6007 C.2     1  UNL1        0.2015
     24 O           2.9962   -4.1881   19.1360 O.2     1  UNL1       -0.2864
     25 C           2.6490    0.5119   19.0729 C.ar    1  UNL1        0.0920
     26 C           3.7282    1.0890   18.2055 C.ar    1  UNL1        0.0204
     27 C           4.8996    0.2430   17.8031 C.ar    1  UNL1        0.0312
     28 C           4.9920   -1.1801   18.2681 C.ar    1  UNL1        0.1454
     29 F           6.1635   -2.0261   17.8657 F       1  UNL1       -0.2040
     30 C           3.9129   -1.7572   19.1356 C.ar    1  UNL1        0.0951
     31 C           2.7414   -0.9112   19.5380 C.ar    1  UNL1        0.1598
     32 F           1.6623   -1.4883   20.4054 F       1  UNL1       -0.2026
     33 N           1.4776    1.3579   19.4753 N.pl3   1  UNL1       -0.2166
     34 H           0.9666    1.8483   18.7915 H       1  UNL1        0.1734
     35 S           1.0847    1.4567   20.9196 S.O2    1  UNL1        0.0540
     36 O           2.4311    2.0313   21.2466 O.2     1  UNL1       -0.1545
     37 O          -0.2618    0.8820   20.5926 O.2     1  UNL1       -0.1545
     38 C           0.6917    1.5554   22.3638 C.3     1  UNL1        0.1724
     39 C          -0.3054    3.0844   24.2127 C.3     1  UNL1        0.0019
     40 C          -0.3120    2.5815   22.7995 C.3     1  UNL1        0.0273
@<TRIPOS>BOND
     1    39    40    1
     2    40    38    1
     3    38    35    1
     4    35    36    2
     5    35    37    2
     6    35    33    1
     7    33    25    1
     8    25    26   ar
     9    26    27   ar
    10    27    28   ar
    11    28    29    1
    12    28    30   ar
    13    30    23    1
    14    23    24    2
    15    23     1    1
    16     1     2   ar
    17     2     3   ar
    18     3     4   ar
    19     4     5   ar
    20     5     6   ar
    21     6     7   ar
    22     7    11    1
    23    11    12   ar
    24    12    13   ar
    25    13    14   ar
    26    14    17    1
    27    17    18    2
    28    17    19    2
    29    17    20    1
    30    20    21    1
    31    20    22    1
    32    14    15   ar
    33    15    16   ar
    34     7     8   ar
    35     8     9   ar
    36    30    31   ar
    37    31    32    1
    38    31    25   ar
    39     9     1   ar
    40     9     4    1
    41    16    11   ar
    42    33    34    1
    43     5    10    1
@<TRIPOS>MOLECULE
*****
 40 43 0 0 0
SMALL
GASTEIGER

@<TRIPOS>ATOM
      1 C           2.8148   -1.3737   20.1661 C.ar    1  UNL1        0.0611
      2 C           1.8363   -0.4920   19.4484 C.ar    1  UNL1        0.1037
      3 N           1.2534    0.4628   20.4477 N.ar    1  UNL1       -0.2269
      4 C           1.8717    0.1712   21.7829 C.ar    1  UNL1        0.1407
      5 N           1.6806    0.7926   23.1347 N.ar    1  UNL1       -0.3374
      6 C           2.4546    0.2789   24.3124 C.ar    1  UNL1        0.0734
      7 C           3.4196   -0.8562   24.1383 C.ar    1  UNL1        0.0171
      8 C           3.6107   -1.4776   22.7865 C.ar    1  UNL1        0.0046
      9 C           2.8367   -0.9639   21.6088 C.ar    1  UNL1        0.0386
     10 H           1.0472    1.5376   23.2489 H       1  UNL1        0.1674
     11 C           4.1936   -1.3699   25.3161 C.ar    1  UNL1        0.0015
     12 C           3.7130   -1.0902   26.7092 C.ar    1  UNL1        0.0014
     13 C           4.4869   -1.6039   27.8870 C.ar    1  UNL1        0.0199
     14 C           5.7415   -2.3973   27.6716 C.ar    1  UNL1        0.1222
     15 C           6.2222   -2.6771   26.2784 C.ar    1  UNL1        0.0199
     16 C           5.4482   -2.1634   25.1007 C.ar    1  UNL1        0.0014
     17 S           6.5155   -2.9110   28.8493 S.O2    1  UNL1        0.0634
     18 O           6.2687   -4.3197   28.3970 O.2     1  UNL1       -0.1528
     19 O           6.7623   -1.5023   29.3016 O.2     1  UNL1       -0.1528
     20 N           7.2895   -3.4247   30.0270 N.3     1  UNL1       -0.1526
     21 C           6.6104   -3.5974   31.3533 C.3     1  UNL1        0.1150
     22 C           8.7427   -3.7658   29.8785 C.3     1  UNL1        0.1150
     23 C           3.6287   -2.4725   19.5492 C.2     1  UNL1        0.2015
     24 O           2.9650   -3.7476   19.1210 O.2     1  UNL1       -0.2864
     25 C           7.5450   -3.0050   19.9087 C.ar    1  UNL1        0.0920
     26 C           8.0615   -1.9432   18.9835 C.ar    1  UNL1        0.0204
     27 C           7.1004   -1.0579   18.2469 C.ar    1  UNL1        0.0312
     28 C           5.6229   -1.2343   18.4355 C.ar    1  UNL1        0.1454
     29 F           4.6618   -0.3490   17.6989 F       1  UNL1       -0.2040
     30 C           5.1063   -2.2960   19.3606 C.ar    1  UNL1        0.0951
     31 C           6.0674   -3.1813   20.0972 C.ar    1  UNL1        0.1598
     32 F           5.5508   -4.2431   21.0224 F       1  UNL1       -0.2026
     33 N           8.5061   -3.8903   20.6452 N.pl3   1  UNL1       -0.2166
     34 H           9.2232   -4.3537   20.1550 H       1  UNL1        0.1734
     35 S           8.3746   -4.0695   22.1287 S.O2    1  UNL1        0.0540
     36 O           8.6126   -2.6018   22.3271 O.2     1  UNL1       -0.1545
     37 O           8.1367   -5.5371   21.9303 O.2     1  UNL1       -0.1545
     38 C           8.2431   -4.2488   23.6121 C.3     1  UNL1        0.1724
     39 C           7.5314   -5.9982   25.3962 C.3     1  UNL1        0.0019
     40 C           8.3756   -5.6150   24.2171 C.3     1  UNL1        0.0273
@<TRIPOS>BOND
     1    39    40    1
     2    40    38    1
     3    38    35    1
     4    35    36    2
     5    35    37    2
     6    35    33    1
     7    33    25    1
     8    25    26   ar
     9    26    27   ar
    10    27    28   ar
    11    28    29    1
    12    28    30   ar
    13    30    23    1
    14    23    24    2
    15    23     1    1
    16     1     2   ar
    17     2     3   ar
    18     3     4   ar
    19     4     5   ar
    20     5     6   ar
    21     6     7   ar
    22     7    11    1
    23    11    12   ar
    24    12    13   ar
    25    13    14   ar
    26    14    17    1
    27    17    18    2
    28    17    19    2
    29    17    20    1
    30    20    21    1
    31    20    22    1
    32    14    15   ar
    33    15    16   ar
    34     7     8   ar
    35     8     9   ar
    36    30    31   ar
    37    31    32    1
    38    31    25   ar
    39     9     1   ar
    40     9     4    1
    41    16    11   ar
    42    33    34    1
    43     5    10    1
@<TRIPOS>MOLECULE
*****
 40 43 0 0 0
SMALL
GASTEIGER

@<TRIPOS>ATOM
      1 C           3.7164   -1.7978   19.1569 C.ar    1  UNL1        0.0611
      2 C           3.6067   -1.2229   17.7758 C.ar    1  UNL1        0.1037
      3 N           3.0546    0.1667   17.8948 N.ar    1  UNL1       -0.2269
      4 C           2.8230    0.4506   19.3494 C.ar    1  UNL1        0.1407
      5 N           2.2926    1.6578   20.0644 N.ar    1  UNL1       -0.3374
      6 C           2.1711    1.6508   21.5594 C.ar    1  UNL1        0.0734
      7 C           2.5801    0.4366   22.3394 C.ar    1  UNL1        0.0171
      8 C           3.1106   -0.7706   21.6245 C.ar    1  UNL1        0.0046
      9 C           3.2320   -0.7636   20.1294 C.ar    1  UNL1        0.0386
     10 H           2.0241    2.4547   19.5524 H       1  UNL1        0.1674
     11 C           2.4586    0.4296   23.8345 C.ar    1  UNL1        0.0015
     12 C           1.3732    1.2206   24.5025 C.ar    1  UNL1        0.0014
     13 C           1.2517    1.2137   25.9976 C.ar    1  UNL1        0.0199
     14 C           2.2157    0.4157   26.8247 C.ar    1  UNL1        0.1222
     15 C           3.3011   -0.3753   26.1566 C.ar    1  UNL1        0.0199
     16 C           3.4226   -0.3683   24.6616 C.ar    1  UNL1        0.0014
     17 S           2.0942    0.4087   28.3197 S.O2    1  UNL1        0.0634
     18 O           1.6458    1.8398   28.2900 O.2     1  UNL1       -0.1528
     19 O           2.5426   -1.0223   28.3495 O.2     1  UNL1       -0.1528
     20 N           1.9728    0.4017   29.8147 N.3     1  UNL1       -0.1526
     21 C           1.2034    1.4857   30.5098 C.3     1  UNL1        0.1150
     22 C           2.6208   -0.6892   30.6148 C.3     1  UNL1        0.1150
     23 C           4.2217   -3.1667   19.5045 C.2     1  UNL1        0.2015
     24 O           3.4277   -4.3795   19.1190 O.2     1  UNL1       -0.2864
     25 C           6.8253   -3.9395   22.3983 C.ar    1  UNL1        0.0920
     26 C           8.1196   -3.6350   21.7039 C.ar    1  UNL1        0.0204
     27 C           8.1145   -3.1743   20.2764 C.ar    1  UNL1        0.0312
     28 C           6.8153   -3.0183   19.5433 C.ar    1  UNL1        0.1454
     29 F           6.8102   -2.5576   18.1157 F       1  UNL1       -0.2040
     30 C           5.5210   -3.3228   20.2377 C.ar    1  UNL1        0.0951
     31 C           5.5261   -3.7834   21.6652 C.ar    1  UNL1        0.1598
     32 F           4.2318   -4.0880   22.3595 F       1  UNL1       -0.2026
     33 N           6.8304   -4.4001   23.8258 N.pl3   1  UNL1       -0.2166
     34 H           6.5349   -5.3121   24.0499 H       1  UNL1        0.1734
     35 S           7.2857   -3.4712   24.9120 S.O2    1  UNL1        0.0540
     36 O           8.5569   -4.2554   25.0498 O.2     1  UNL1       -0.1545
     37 O           6.0144   -2.6870   24.7742 O.2     1  UNL1       -0.1545
     38 C           7.7408   -2.5423   25.9982 C.3     1  UNL1        0.1724
     39 C           7.0996   -0.2806   27.1045 C.3     1  UNL1        0.0019
     40 C           6.7428   -1.6857   26.7196 C.3     1  UNL1        0.0273
@<TRIPOS>BOND
     1    39    40    1
     2    40    38    1
     3    38    35    1
     4    35    36    2
     5    35    37    2
     6    35    33    1
     7    33    25    1
     8    25    26   ar
     9    26    27   ar
    10    27    28   ar
    11    28    29    1
    12    28    30   ar
    13    30    23    1
    14    23    24    2
    15    23     1    1
    16     1     2   ar
    17     2     3   ar
    18     3     4   ar
    19     4     5   ar
    20     5     6   ar
    21     6     7   ar
    22     7    11    1
    23    11    12   ar
    24    12    13   ar
    25    13    14   ar
    26    14    17    1
    27    17    18    2
    28    17    19    2
    29    17    20    1
    30    20    21    1
    31    20    22    1
    32    14    15   ar
    33    15    16   ar
    34     7     8   ar
    35     8     9   ar
    36    30    31   ar
    37    31    32    1
    38    31    25   ar
    39     9     1   ar
    40     9     4    1
    41    16    11   ar
    42    33    34    1
    43     5    10    1
