@<TRIPOS>MOLECULE
*****
 42 43 0 0 0
SMALL
GASTEIGER

@<TRIPOS>ATOM
      1 O          -7.9651  -17.0065   21.4827 O.3     1  UNL1       -0.2926
      2 P          -7.8715  -15.6936   22.2021 P.3     1  UNL1        0.3697
      3 O          -8.7257  -15.0548   21.1474 O.2     1  UNL1       -0.2553
      4 O          -7.7780  -14.3807   22.9215 O.3     1  UNL1       -0.3218
      5 H          -8.2786  -13.7082   22.4335 H       1  UNL1        0.2198
      6 C          -7.0174  -16.3323   23.2568 C.3     1  UNL1        0.2579
      7 O          -5.6816  -15.7421   23.5991 O.3     1  UNL1       -0.3426
      8 C          -4.7652  -16.4591   24.5458 C.3     1  UNL1        0.1387
      9 C          -4.7749  -16.1134   26.0054 C.3     1  UNL1        0.0342
     10 C          -3.8390  -17.5218   24.0329 C.3     1  UNL1        0.1384
     11 N          -3.1650  -17.3515   22.7037 N.ar    1  UNL1       -0.2918
     12 C          -2.3144  -16.1876   22.2892 C.ar    1  UNL1        0.1798
     13 N          -1.8470  -16.4320   20.8850 N.ar    1  UNL1       -0.2195
     14 C          -2.4088  -17.7469   20.4316 C.ar    1  UNL1        0.1481
     15 C          -2.2838  -18.5001   19.1405 C.ar    1  UNL1        0.1480
     16 N          -1.4692  -17.9318   18.0165 N.pl3   1  UNL1       -0.3413
     17 N          -2.9734  -19.8216   18.9735 N.ar    1  UNL1       -0.2078
     18 C          -3.7881  -20.3899   20.0975 C.ar    1  UNL1        0.2015
     19 N          -3.9130  -19.6366   21.3886 N.ar    1  UNL1       -0.2048
     20 C          -3.2234  -18.3151   21.5557 C.ar    1  UNL1        0.1674
     21 H          -1.0165  -17.0644   18.1262 H       1  UNL1        0.1438
     22 H          -1.3871  -18.4262   17.1691 H       1  UNL1        0.1438
     23 C          -7.1013  -18.1572   21.9065 C.3     1  UNL1        0.1514
     24 C          -7.4998  -19.5613   21.5610 C.3     1  UNL1        0.0326
     25 C          -7.2956  -20.0776   20.1676 C.3     1  UNL1        0.0026
     26 C          -8.0972  -19.5115   19.0331 C.3     1  UNL1        0.0001
     27 C          -9.5177  -19.9474   18.8275 C.3     1  UNL1        0.0000
     28 C         -10.4626  -19.9982   19.9914 C.3     1  UNL1        0.0000
     29 C         -10.9278  -18.7260   20.6358 C.3     1  UNL1        0.0000
     30 C         -11.1068  -17.4879   19.8082 C.3     1  UNL1        0.0000
     31 C         -11.8835  -16.3266   20.3541 C.3     1  UNL1        0.0000
     32 C         -11.7689  -15.9630   21.8048 C.3     1  UNL1        0.0000
     33 C         -12.8961  -16.2689   22.7460 C.3     1  UNL1        0.0000
     34 C         -13.3627  -17.6835   22.9227 C.3     1  UNL1        0.0000
     35 C         -13.5565  -18.2428   24.3009 C.3     1  UNL1        0.0000
     36 C         -12.4080  -18.8913   25.0155 C.3     1  UNL1        0.0000
     37 C         -11.2988  -19.5265   24.2306 C.3     1  UNL1        0.0000
     38 C          -9.9365  -18.8990   24.2148 C.3     1  UNL1        0.0010
     39 C          -9.6936  -17.6147   24.9507 C.3     1  UNL1        0.0140
     40 C          -9.1286  -17.6416   26.3399 C.3     1  UNL1        0.0770
     41 C          -7.8763  -15.1735   27.4978 C.1     1  UNL1       -0.0141
     42 C          -8.5024  -16.4075   26.9189 C.1     1  UNL1       -0.0779
@<TRIPOS>BOND
     1    41    42    3
     2    42    40    1
     3    40    39    1
     4    39    38    1
     5    38    37    1
     6    37    36    1
     7    36    35    1
     8    35    34    1
     9    34    33    1
    10    33    32    1
    11    32    31    1
    12    31    30    1
    13    30    29    1
    14    29    28    1
    15    28    27    1
    16    27    26    1
    17    26    25    1
    18    25    24    1
    19    24    23    1
    20    23     1    1
    21     1     2    1
    22     2     3    2
    23     2     4    1
    24     2     6    1
    25     6     7    1
    26     7     8    1
    27     8     9    1
    28     8    10    1
    29    10    11    1
    30    11    12   ar
    31    12    13   ar
    32    13    14   ar
    33    14    15   ar
    34    15    16    1
    35    15    17   ar
    36    17    18   ar
    37    18    19   ar
    38    19    20   ar
    39    20    11   ar
    40    20    14   ar
    41     4     5    1
    42    16    21    1
    43    16    22    1
@<TRIPOS>MOLECULE
*****
 42 43 0 0 0
SMALL
GASTEIGER

@<TRIPOS>ATOM
      1 O          -8.2350  -16.2927   26.0661 O.3     1  UNL1       -0.2926
      2 P          -7.4060  -15.4925   27.0266 P.3     1  UNL1        0.3697
      3 O          -8.6240  -14.7156   27.4305 O.2     1  UNL1       -0.2553
      4 O          -6.5771  -14.6923   27.9870 O.3     1  UNL1       -0.3218
      5 H          -7.1409  -14.0462   28.4403 H       1  UNL1        0.2198
      6 C          -6.1881  -16.2694   26.6227 C.3     1  UNL1        0.2579
      7 O          -5.1010  -15.6027   25.8331 O.3     1  UNL1       -0.3426
      8 C          -4.9319  -15.9165   24.3760 C.3     1  UNL1        0.1387
      9 C          -5.5633  -15.0338   23.3405 C.3     1  UNL1        0.0342
     10 C          -4.1313  -17.1130   23.9545 C.3     1  UNL1        0.1384
     11 N          -3.3311  -17.0711   22.6865 N.ar    1  UNL1       -0.2918
     12 C          -2.4015  -15.9713   22.2666 C.ar    1  UNL1        0.1798
     13 N          -1.8158  -16.3422   20.9364 N.ar    1  UNL1       -0.2195
     14 C          -2.3834  -17.6712   20.5342 C.ar    1  UNL1        0.1481
     15 C          -2.1684  -18.5293   19.3229 C.ar    1  UNL1        0.1480
     16 N          -1.2319  -18.0788   18.2412 N.pl3   1  UNL1       -0.3413
     17 N          -2.8900  -19.8378   19.1932 N.ar    1  UNL1       -0.2078
     18 C          -3.8265  -20.2884   20.2748 C.ar    1  UNL1        0.2015
     19 N          -4.0414  -19.4303   21.4862 N.ar    1  UNL1       -0.2048
     20 C          -3.3199  -18.1217   21.6159 C.ar    1  UNL1        0.1674
     21 H          -0.7583  -17.2199   18.3263 H       1  UNL1        0.1438
     22 H          -1.0909  -18.6420   17.4461 H       1  UNL1        0.1438
     23 C          -8.9484  -15.6068   24.9390 C.3     1  UNL1        0.1514
     24 C          -8.9920  -16.2430   23.5813 C.3     1  UNL1        0.0326
     25 C          -8.1825  -17.4751   23.3040 C.3     1  UNL1        0.0026
     26 C          -7.6238  -17.7124   21.9324 C.3     1  UNL1        0.0001
     27 C          -7.4385  -19.1136   21.4301 C.3     1  UNL1        0.0000
     28 C          -7.1891  -19.3608   19.9718 C.3     1  UNL1        0.0000
     29 C          -8.2862  -19.9036   19.1047 C.3     1  UNL1        0.0000
     30 C          -9.6112  -19.2030   19.0451 C.3     1  UNL1        0.0000
     31 C         -10.7830  -19.7485   19.8062 C.3     1  UNL1        0.0000
     32 C         -10.9580  -19.4107   21.2571 C.3     1  UNL1        0.0000
     33 C         -10.9330  -20.4991   22.2889 C.3     1  UNL1        0.0000
     34 C         -10.0879  -20.3474   23.5188 C.3     1  UNL1        0.0000
     35 C         -10.6912  -19.8077   24.7816 C.3     1  UNL1        0.0000
     36 C         -11.4350  -18.5053   24.7605 C.3     1  UNL1        0.0000
     37 C         -12.8963  -18.4816   24.4229 C.3     1  UNL1        0.0000
     38 C         -13.3687  -17.7788   23.1848 C.3     1  UNL1        0.0010
     39 C         -12.8530  -16.4090   22.8569 C.3     1  UNL1        0.0140
     40 C         -11.5884  -16.2532   22.0654 C.3     1  UNL1        0.0770
     41 C         -11.7205  -15.7240   19.1154 C.1     1  UNL1       -0.0141
     42 C         -11.6544  -15.9886   20.5904 C.1     1  UNL1       -0.0779
@<TRIPOS>BOND
     1    41    42    3
     2    42    40    1
     3    40    39    1
     4    39    38    1
     5    38    37    1
     6    37    36    1
     7    36    35    1
     8    35    34    1
     9    34    33    1
    10    33    32    1
    11    32    31    1
    12    31    30    1
    13    30    29    1
    14    29    28    1
    15    28    27    1
    16    27    26    1
    17    26    25    1
    18    25    24    1
    19    24    23    1
    20    23     1    1
    21     1     2    1
    22     2     3    2
    23     2     4    1
    24     2     6    1
    25     6     7    1
    26     7     8    1
    27     8     9    1
    28     8    10    1
    29    10    11    1
    30    11    12   ar
    31    12    13   ar
    32    13    14   ar
    33    14    15   ar
    34    15    16    1
    35    15    17   ar
    36    17    18   ar
    37    18    19   ar
    38    19    20   ar
    39    20    11   ar
    40    20    14   ar
    41     4     5    1
    42    16    21    1
    43    16    22    1
@<TRIPOS>MOLECULE
*****
 42 43 0 0 0
SMALL
GASTEIGER

@<TRIPOS>ATOM
      1 O          -7.3725  -16.3847   26.3668 O.3     1  UNL1       -0.2926
      2 P          -7.0412  -15.1559   27.1607 P.3     1  UNL1        0.3697
      3 O          -8.3902  -15.2143   27.8140 O.2     1  UNL1       -0.2553
      4 O          -6.7099  -13.9272   27.9546 O.3     1  UNL1       -0.3218
      5 H          -7.4609  -13.6979   28.5240 H       1  UNL1        0.2198
      6 C          -5.6923  -15.0975   26.5073 C.3     1  UNL1        0.2579
      7 O          -5.0952  -16.3359   25.9073 O.3     1  UNL1       -0.3426
      8 C          -4.6372  -16.3315   24.4790 C.3     1  UNL1        0.1387
      9 C          -5.1029  -15.2539   23.5453 C.3     1  UNL1        0.0342
     10 C          -3.7133  -17.4049   23.9844 C.3     1  UNL1        0.1384
     11 N          -3.0653  -17.2747   22.6378 N.ar    1  UNL1       -0.2918
     12 C          -2.2231  -16.1242   22.1721 C.ar    1  UNL1        0.1798
     13 N          -1.7831  -16.4108   20.7670 N.ar    1  UNL1       -0.2195
     14 C          -2.3534  -17.7384   20.3643 C.ar    1  UNL1        0.1481
     15 C          -2.2535  -18.5300   19.0942 C.ar    1  UNL1        0.1480
     16 N          -1.4611  -17.9960   17.9380 N.pl3   1  UNL1       -0.3413
     17 N          -2.9461  -19.8556   18.9802 N.ar    1  UNL1       -0.2078
     18 C          -3.7386  -20.3896   20.1365 C.ar    1  UNL1        0.2015
     19 N          -3.8385  -19.5979   21.4066 N.ar    1  UNL1       -0.2048
     20 C          -3.1459  -18.2723   21.5205 C.ar    1  UNL1        0.1674
     21 H          -1.0065  -17.1260   18.0127 H       1  UNL1        0.1438
     22 H          -1.3955  -18.5156   17.1043 H       1  UNL1        0.1438
     23 C          -8.6813  -16.4778   25.6399 C.3     1  UNL1        0.1514
     24 C          -8.8297  -15.8618   24.2803 C.3     1  UNL1        0.0326
     25 C          -9.8834  -16.3661   23.3394 C.3     1  UNL1        0.0026
     26 C          -9.7051  -16.2065   21.8586 C.3     1  UNL1        0.0001
     27 C         -10.9055  -16.0863   20.9673 C.3     1  UNL1        0.0000
     28 C         -12.2847  -16.1579   21.5527 C.3     1  UNL1        0.0000
     29 C         -12.8578  -17.4823   21.9623 C.3     1  UNL1        0.0000
     30 C         -13.4557  -17.6508   23.3276 C.3     1  UNL1        0.0000
     31 C         -12.9265  -18.7060   24.2531 C.3     1  UNL1        0.0000
     32 C         -11.5775  -18.5394   24.8874 C.3     1  UNL1        0.0000
     33 C         -10.6478  -19.7119   24.9917 C.3     1  UNL1        0.0000
     34 C         -10.3577  -20.5489   23.7813 C.3     1  UNL1        0.0000
     35 C         -10.0589  -19.8896   22.4675 C.3     1  UNL1        0.0000
     36 C         -10.8477  -20.2591   21.2463 C.3     1  UNL1        0.0000
     37 C         -10.6804  -19.4736   19.9794 C.3     1  UNL1        0.0000
     38 C          -9.7815  -19.9852   18.8930 C.3     1  UNL1        0.0010
     39 C          -8.3538  -19.5306   18.8247 C.3     1  UNL1        0.0140
     40 C          -7.3784  -19.9603   19.8802 C.3     1  UNL1        0.0770
     41 C          -6.8834  -18.2109   22.2667 C.1     1  UNL1       -0.0141
     42 C          -7.1309  -19.0856   21.0735 C.1     1  UNL1       -0.0779
@<TRIPOS>BOND
     1    41    42    3
     2    42    40    1
     3    40    39    1
     4    39    38    1
     5    38    37    1
     6    37    36    1
     7    36    35    1
     8    35    34    1
     9    34    33    1
    10    33    32    1
    11    32    31    1
    12    31    30    1
    13    30    29    1
    14    29    28    1
    15    28    27    1
    16    27    26    1
    17    26    25    1
    18    25    24    1
    19    24    23    1
    20    23     1    1
    21     1     2    1
    22     2     3    2
    23     2     4    1
    24     2     6    1
    25     6     7    1
    26     7     8    1
    27     8     9    1
    28     8    10    1
    29    10    11    1
    30    11    12   ar
    31    12    13   ar
    32    13    14   ar
    33    14    15   ar
    34    15    16    1
    35    15    17   ar
    36    17    18   ar
    37    18    19   ar
    38    19    20   ar
    39    20    11   ar
    40    20    14   ar
    41     4     5    1
    42    16    21    1
    43    16    22    1
@<TRIPOS>MOLECULE
*****
 42 43 0 0 0
SMALL
GASTEIGER

@<TRIPOS>ATOM
      1 O          -7.6977  -15.0434   25.0444 O.3     1  UNL1       -0.2926
      2 P          -7.1602  -15.5779   26.3388 P.3     1  UNL1        0.3697
      3 O          -8.5233  -16.0953   26.6911 O.2     1  UNL1       -0.2553
      4 O          -6.6227  -16.1124   27.6331 O.3     1  UNL1       -0.3218
      5 H          -7.3379  -16.5431   28.1269 H       1  UNL1        0.2198
      6 C          -5.7971  -15.0604   25.9864 C.3     1  UNL1        0.2579
      7 O          -5.1066  -15.5486   24.7475 O.3     1  UNL1       -0.3426
      8 C          -4.5827  -16.9527   24.6847 C.3     1  UNL1        0.1387
      9 C          -3.7024  -17.4745   25.7814 C.3     1  UNL1        0.0342
     10 C          -4.9390  -17.8351   23.5251 C.3     1  UNL1        0.1384
     11 N          -3.8574  -18.4042   22.6555 N.ar    1  UNL1       -0.2918
     12 C          -3.6714  -19.8529   22.3142 C.ar    1  UNL1        0.1798
     13 N          -2.4708  -19.9685   21.4224 N.ar    1  UNL1       -0.2195
     14 C          -1.9149  -18.5912   21.2125 C.ar    1  UNL1        0.1481
     15 C          -0.7391  -18.0926   20.4259 C.ar    1  UNL1        0.1480
     16 N           0.1178  -19.0594   19.6637 N.pl3   1  UNL1       -0.3413
     17 N          -0.4203  -16.6271   20.4014 N.ar    1  UNL1       -0.2078
     18 C          -1.2772  -15.6603   21.1635 C.ar    1  UNL1        0.2015
     19 N          -2.4530  -16.1589   21.9502 N.ar    1  UNL1       -0.2048
     20 C          -2.7719  -17.6244   21.9746 C.ar    1  UNL1        0.1674
     21 H          -0.0915  -20.0213   19.6798 H       1  UNL1        0.1438
     22 H           0.8895  -18.7321   19.1474 H       1  UNL1        0.1438
     23 C          -8.4624  -15.9444   24.1207 C.3     1  UNL1        0.1514
     24 C          -7.9868  -16.1541   22.7136 C.3     1  UNL1        0.0326
     25 C          -8.9728  -16.4679   21.6276 C.3     1  UNL1        0.0026
     26 C         -10.1384  -15.5553   21.3863 C.3     1  UNL1        0.0001
     27 C         -10.8284  -15.5560   20.0545 C.3     1  UNL1        0.0000
     28 C         -12.0713  -16.3715   19.8540 C.3     1  UNL1        0.0000
     29 C         -12.6075  -17.2098   20.9765 C.3     1  UNL1        0.0000
     30 C         -12.9426  -16.5743   22.2933 C.3     1  UNL1        0.0000
     31 C         -12.4957  -17.2182   23.5722 C.3     1  UNL1        0.0000
     32 C         -11.5990  -18.4201   23.5334 C.3     1  UNL1        0.0000
     33 C         -11.2990  -19.1729   24.7956 C.3     1  UNL1        0.0000
     34 C         -10.0188  -19.9443   24.9225 C.3     1  UNL1        0.0000
     35 C          -9.3168  -20.4400   23.6931 C.3     1  UNL1        0.0000
     36 C          -8.2464  -19.6066   23.0532 C.3     1  UNL1        0.0000
     37 C          -7.3354  -20.2142   22.0280 C.3     1  UNL1        0.0000
     38 C          -6.9088  -19.4121   20.8344 C.3     1  UNL1        0.0010
     39 C          -7.3010  -19.8531   19.4554 C.3     1  UNL1        0.0140
     40 C          -8.6552  -19.5037   18.9129 C.3     1  UNL1        0.0770
     41 C         -11.0983  -19.9007   20.6082 C.1     1  UNL1       -0.0141
     42 C          -9.8768  -19.7022   19.7606 C.1     1  UNL1       -0.0779
@<TRIPOS>BOND
     1    41    42    3
     2    42    40    1
     3    40    39    1
     4    39    38    1
     5    38    37    1
     6    37    36    1
     7    36    35    1
     8    35    34    1
     9    34    33    1
    10    33    32    1
    11    32    31    1
    12    31    30    1
    13    30    29    1
    14    29    28    1
    15    28    27    1
    16    27    26    1
    17    26    25    1
    18    25    24    1
    19    24    23    1
    20    23     1    1
    21     1     2    1
    22     2     3    2
    23     2     4    1
    24     2     6    1
    25     6     7    1
    26     7     8    1
    27     8     9    1
    28     8    10    1
    29    10    11    1
    30    11    12   ar
    31    12    13   ar
    32    13    14   ar
    33    14    15   ar
    34    15    16    1
    35    15    17   ar
    36    17    18   ar
    37    18    19   ar
    38    19    20   ar
    39    20    11   ar
    40    20    14   ar
    41     4     5    1
    42    16    21    1
    43    16    22    1
@<TRIPOS>MOLECULE
*****
 42 43 0 0 0
SMALL
GASTEIGER

@<TRIPOS>ATOM
      1 O           7.4738   -4.7551   29.8484 O.3     1  UNL1       -0.2926
      2 P           7.0312   -5.1382   31.2294 P.3     1  UNL1        0.3697
      3 O           7.5183   -6.5377   30.9974 O.2     1  UNL1       -0.2553
      4 O           6.5885   -5.5213   32.6105 O.3     1  UNL1       -0.3218
      5 H           6.7901   -6.4571   32.7667 H       1  UNL1        0.2198
      6 C           6.5440   -3.7386   31.4615 C.3     1  UNL1        0.2579
      7 O           7.1733   -2.8926   32.5283 O.3     1  UNL1       -0.3426
      8 C           6.9114   -1.4161   32.5665 C.3     1  UNL1        0.1387
      9 C           6.2869   -0.7963   33.7813 C.3     1  UNL1        0.0342
     10 C           7.2741   -0.5593   31.3897 C.3     1  UNL1        0.1384
     11 N           6.6833   -0.8479   30.0415 N.ar    1  UNL1       -0.2918
     12 C           7.4487   -1.2019   28.8010 C.ar    1  UNL1        0.1798
     13 N           6.4619   -1.4059   27.6899 N.ar    1  UNL1       -0.2195
     14 C           5.0866   -1.1779   28.2437 C.ar    1  UNL1        0.1481
     15 C           3.7274   -1.2398   27.6123 C.ar    1  UNL1        0.1480
     16 N           3.5905   -1.5847   26.1590 N.pl3   1  UNL1       -0.3413
     17 N           2.5051   -0.9568   28.4344 N.ar    1  UNL1       -0.2078
     18 C           2.6419   -0.6119   29.8877 C.ar    1  UNL1        0.2015
     19 N           4.0011   -0.5501   30.5191 N.ar    1  UNL1       -0.2048
     20 C           5.2235   -0.8330   29.6971 C.ar    1  UNL1        0.1674
     21 H           4.3928   -1.7704   25.6194 H       1  UNL1        0.1438
     22 H           2.6984   -1.6253   25.7446 H       1  UNL1        0.1438
     23 C           6.5421   -4.9316   28.6862 C.3     1  UNL1        0.1514
     24 C           7.0480   -5.5183   27.4017 C.3     1  UNL1        0.0326
     25 C           7.5459   -4.6175   26.3105 C.3     1  UNL1        0.0026
     26 C           6.6479   -4.2630   25.1625 C.3     1  UNL1        0.0001
     27 C           7.0754   -4.5614   23.7560 C.3     1  UNL1        0.0000
     28 C           6.5521   -3.7319   22.6211 C.3     1  UNL1        0.0000
     29 C           5.1142   -3.8463   22.2091 C.3     1  UNL1        0.0000
     30 C           4.2042   -2.6595   22.3246 C.3     1  UNL1        0.0000
     31 C           4.7595   -1.3247   22.7243 C.3     1  UNL1        0.0000
     32 C           3.9017   -0.0976   22.6329 C.3     1  UNL1        0.0000
     33 C           2.4776   -0.2104   22.1756 C.3     1  UNL1        0.0000
     34 C           2.0989    0.2186   20.7890 C.3     1  UNL1        0.0000
     35 C           2.3983   -0.6726   19.6202 C.3     1  UNL1        0.0000
     36 C           2.8009   -0.0745   18.3048 C.3     1  UNL1        0.0000
     37 C           4.2094   -0.2261   17.8117 C.3     1  UNL1        0.0000
     38 C           5.3401   -0.3294   18.7919 C.3     1  UNL1        0.0010
     39 C           5.9287   -1.6696   19.1196 C.3     1  UNL1        0.0140
     40 C           5.5656   -2.8698   18.2964 C.3     1  UNL1        0.0770
     41 C           3.2834   -4.6280   19.1332 C.1     1  UNL1       -0.0141
     42 C           4.4245   -3.7489   18.7148 C.1     1  UNL1       -0.0779
@<TRIPOS>BOND
     1    41    42    3
     2    42    40    1
     3    40    39    1
     4    39    38    1
     5    38    37    1
     6    37    36    1
     7    36    35    1
     8    35    34    1
     9    34    33    1
    10    33    32    1
    11    32    31    1
    12    31    30    1
    13    30    29    1
    14    29    28    1
    15    28    27    1
    16    27    26    1
    17    26    25    1
    18    25    24    1
    19    24    23    1
    20    23     1    1
    21     1     2    1
    22     2     3    2
    23     2     4    1
    24     2     6    1
    25     6     7    1
    26     7     8    1
    27     8     9    1
    28     8    10    1
    29    10    11    1
    30    11    12   ar
    31    12    13   ar
    32    13    14   ar
    33    14    15   ar
    34    15    16    1
    35    15    17   ar
    36    17    18   ar
    37    18    19   ar
    38    19    20   ar
    39    20    11   ar
    40    20    14   ar
    41     4     5    1
    42    16    21    1
    43    16    22    1
@<TRIPOS>MOLECULE
*****
 42 43 0 0 0
SMALL
GASTEIGER

@<TRIPOS>ATOM
      1 O           7.2848   -3.9291   29.3867 O.3     1  UNL1       -0.2926
      2 P           7.0367   -4.6465   30.6804 P.3     1  UNL1        0.3697
      3 O           7.0650   -5.9604   29.9573 O.2     1  UNL1       -0.2553
      4 O           6.7887   -5.3639   31.9742 O.3     1  UNL1       -0.3218
      5 H           6.7524   -6.3196   31.8121 H       1  UNL1        0.2198
      6 C           7.0085   -3.3327   31.4035 C.3     1  UNL1        0.2579
      7 O           6.5000   -3.2630   32.8130 O.3     1  UNL1       -0.3426
      8 C           5.5406   -2.1811   33.2117 C.3     1  UNL1        0.1387
      9 C           4.0630   -2.4350   33.1666 C.3     1  UNL1        0.0342
     10 C           6.0590   -0.8452   33.6555 C.3     1  UNL1        0.1384
     11 N           5.4505   -0.1618   34.8441 N.ar    1  UNL1       -0.2918
     12 C           5.8802   -0.3270   36.2717 C.ar    1  UNL1        0.1798
     13 N           5.0008    0.5395   37.1236 N.ar    1  UNL1       -0.2195
     14 C           4.0276    1.2402   36.2226 C.ar    1  UNL1        0.1481
     15 C           2.9242    2.2168   36.5030 C.ar    1  UNL1        0.1480
     16 N           2.6463    2.6503   37.9118 N.pl3   1  UNL1       -0.3413
     17 N           2.0988    2.7601   35.3745 N.ar    1  UNL1       -0.2078
     18 C           2.3767    2.3267   33.9656 C.ar    1  UNL1        0.2015
     19 N           3.4801    1.3500   33.6852 N.ar    1  UNL1       -0.2048
     20 C           4.3055    0.8067   34.8137 C.ar    1  UNL1        0.1674
     21 H           3.1880    2.2937   38.6525 H       1  UNL1        0.1438
     22 H           1.9221    3.2913   38.0958 H       1  UNL1        0.1438
     23 C           6.4118   -4.2027   28.1980 C.3     1  UNL1        0.1514
     24 C           7.0285   -4.4123   26.8468 C.3     1  UNL1        0.0326
     25 C           6.9747   -5.7643   26.1994 C.3     1  UNL1        0.0026
     26 C           8.2372   -6.4167   25.7192 C.3     1  UNL1        0.0001
     27 C           8.1753   -7.4948   24.6782 C.3     1  UNL1        0.0000
     28 C           8.8729   -7.3088   23.3634 C.3     1  UNL1        0.0000
     29 C           9.4069   -5.9598   22.9819 C.3     1  UNL1        0.0000
     30 C           8.8589   -5.2488   21.7802 C.3     1  UNL1        0.0000
     31 C           7.5461   -4.5287   21.8687 C.3     1  UNL1        0.0000
     32 C           7.2501   -3.6510   23.0485 C.3     1  UNL1        0.0000
     33 C           5.8318   -3.4379   23.4877 C.3     1  UNL1        0.0000
     34 C           4.7097   -3.6047   22.5064 C.3     1  UNL1        0.0000
     35 C           4.0635   -2.3977   21.8937 C.3     1  UNL1        0.0000
     36 C           3.7175   -2.3917   20.4341 C.3     1  UNL1        0.0000
     37 C           3.7783   -3.6650   19.6437 C.3     1  UNL1        0.0000
     38 C           4.8850   -3.8818   18.6547 C.3     1  UNL1        0.0010
     39 C           5.7003   -2.7179   18.1744 C.3     1  UNL1        0.0140
     40 C           7.0524   -2.4535   18.7675 C.3     1  UNL1        0.0770
     41 C           7.3487   -0.4760   21.0041 C.1     1  UNL1       -0.0141
     42 C           7.2005   -1.4647   19.8858 C.1     1  UNL1       -0.0779
@<TRIPOS>BOND
     1    41    42    3
     2    42    40    1
     3    40    39    1
     4    39    38    1
     5    38    37    1
     6    37    36    1
     7    36    35    1
     8    35    34    1
     9    34    33    1
    10    33    32    1
    11    32    31    1
    12    31    30    1
    13    30    29    1
    14    29    28    1
    15    28    27    1
    16    27    26    1
    17    26    25    1
    18    25    24    1
    19    24    23    1
    20    23     1    1
    21     1     2    1
    22     2     3    2
    23     2     4    1
    24     2     6    1
    25     6     7    1
    26     7     8    1
    27     8     9    1
    28     8    10    1
    29    10    11    1
    30    11    12   ar
    31    12    13   ar
    32    13    14   ar
    33    14    15   ar
    34    15    16    1
    35    15    17   ar
    36    17    18   ar
    37    18    19   ar
    38    19    20   ar
    39    20    11   ar
    40    20    14   ar
    41     4     5    1
    42    16    21    1
    43    16    22    1
@<TRIPOS>MOLECULE
*****
 42 43 0 0 0
SMALL
GASTEIGER

@<TRIPOS>ATOM
      1 O           3.6683   -0.2317   28.4392 O.3     1  UNL1       -0.2926
      2 P           2.9263   -0.5994   29.6899 P.3     1  UNL1        0.3697
      3 O           4.2127   -0.5733   30.4608 O.2     1  UNL1       -0.2553
      4 O           2.1843   -0.9671   30.9406 O.3     1  UNL1       -0.3218
      5 H           2.8087   -1.0304   31.6802 H       1  UNL1        0.2198
      6 C           1.6398   -0.6256   28.9190 C.3     1  UNL1        0.2579
      7 O           0.4389    0.1075   29.4388 O.3     1  UNL1       -0.3426
      8 C           0.1784    1.5206   29.0083 C.3     1  UNL1        0.1387
      9 C           0.8674    2.6561   29.7053 C.3     1  UNL1        0.0342
     10 C          -0.7713    1.7982   27.8808 C.3     1  UNL1        0.1384
     11 N          -0.2479    1.9789   26.4867 N.ar    1  UNL1       -0.2918
     12 C           1.1185    1.5951   26.0012 C.ar    1  UNL1        0.1798
     13 N           1.2118    1.9542   24.5478 N.ar    1  UNL1       -0.2195
     14 C          -0.0969    2.5600   24.1351 C.ar    1  UNL1        0.1481
     15 C          -0.5836    3.0997   22.8229 C.ar    1  UNL1        0.1480
     16 N           0.3185    3.0844   21.6246 N.pl3   1  UNL1       -0.3413
     17 N          -1.9725    3.6547   22.7091 N.ar    1  UNL1       -0.2078
     18 C          -2.8746    3.6700   23.9074 C.ar    1  UNL1        0.2015
     19 N          -2.3879    3.1303   25.2195 N.ar    1  UNL1       -0.2048
     20 C          -0.9991    2.5753   25.3334 C.ar    1  UNL1        0.1674
     21 H           1.2301    2.7201   21.6994 H       1  UNL1        0.1438
     22 H          -0.0010    3.4386   20.7634 H       1  UNL1        0.1438
     23 C           3.3738   -0.9477   27.1545 C.3     1  UNL1        0.1514
     24 C           4.4687   -1.1756   26.1548 C.3     1  UNL1        0.0326
     25 C           4.1329   -1.6297   24.7652 C.3     1  UNL1        0.0026
     26 C           5.1528   -2.3688   23.9507 C.3     1  UNL1        0.0001
     27 C           4.7110   -3.3678   22.9227 C.3     1  UNL1        0.0000
     28 C           5.0699   -3.1681   21.4801 C.3     1  UNL1        0.0000
     29 C           4.2636   -3.8379   20.4070 C.3     1  UNL1        0.0000
     30 C           4.0657   -3.1595   19.0839 C.3     1  UNL1        0.0000
     31 C           5.2329   -2.9531   18.1647 C.3     1  UNL1        0.0000
     32 C           5.9616   -1.6420   18.1606 C.3     1  UNL1        0.0000
     33 C           5.3618   -0.4528   17.4707 C.3     1  UNL1        0.0000
     34 C           4.9306    0.7401   18.2713 C.3     1  UNL1        0.0000
     35 C           3.5092    1.2144   18.2043 C.3     1  UNL1        0.0000
     36 C           2.3883    0.2192   18.1477 C.3     1  UNL1        0.0000
     37 C           1.2022    0.3733   19.0530 C.3     1  UNL1        0.0000
     38 C           1.0742   -0.4880   20.2744 C.3     1  UNL1        0.0010
     39 C           2.2747   -0.7552   21.1331 C.3     1  UNL1        0.0140
     40 C           2.9475    0.3749   21.8543 C.3     1  UNL1        0.0770
     41 C           5.9363    0.6263   21.7920 C.1     1  UNL1       -0.0141
     42 C           4.4420    0.5006   21.8231 C.1     1  UNL1       -0.0779
@<TRIPOS>BOND
     1    41    42    3
     2    42    40    1
     3    40    39    1
     4    39    38    1
     5    38    37    1
     6    37    36    1
     7    36    35    1
     8    35    34    1
     9    34    33    1
    10    33    32    1
    11    32    31    1
    12    31    30    1
    13    30    29    1
    14    29    28    1
    15    28    27    1
    16    27    26    1
    17    26    25    1
    18    25    24    1
    19    24    23    1
    20    23     1    1
    21     1     2    1
    22     2     3    2
    23     2     4    1
    24     2     6    1
    25     6     7    1
    26     7     8    1
    27     8     9    1
    28     8    10    1
    29    10    11    1
    30    11    12   ar
    31    12    13   ar
    32    13    14   ar
    33    14    15   ar
    34    15    16    1
    35    15    17   ar
    36    17    18   ar
    37    18    19   ar
    38    19    20   ar
    39    20    11   ar
    40    20    14   ar
    41     4     5    1
    42    16    21    1
    43    16    22    1
@<TRIPOS>MOLECULE
*****
 42 43 0 0 0
SMALL
GASTEIGER

@<TRIPOS>ATOM
      1 O           7.3718   -4.3413   29.6942 O.3     1  UNL1       -0.2926
      2 P           6.9372   -4.6395   31.0986 P.3     1  UNL1        0.3697
      3 O           6.9126   -6.1050   30.7798 O.2     1  UNL1       -0.2553
      4 O           6.5025   -4.9377   32.5029 O.3     1  UNL1       -0.3218
      5 H           6.3939   -5.8955   32.6112 H       1  UNL1        0.2198
      6 C           6.9617   -3.1740   31.4174 C.3     1  UNL1        0.2579
      7 O           6.6182   -2.7010   32.7987 O.3     1  UNL1       -0.3426
      8 C           5.9254   -1.3844   32.9901 C.3     1  UNL1        0.1387
      9 C           6.6964   -0.1048   32.8560 C.3     1  UNL1        0.0342
     10 C           4.4616   -1.3475   33.3157 C.3     1  UNL1        0.1384
     11 N           3.6526   -0.1255   32.9954 N.ar    1  UNL1       -0.2918
     12 C           3.5204    1.0950   33.8572 C.ar    1  UNL1        0.1798
     13 N           2.6200    2.0652   33.1516 N.ar    1  UNL1       -0.2195
     14 C           2.1958    1.4443   31.8537 C.ar    1  UNL1        0.1481
     15 C           1.3108    1.9369   30.7473 C.ar    1  UNL1        0.1480
     16 N           0.6725    3.2909   30.8438 N.pl3   1  UNL1       -0.3413
     17 N           1.0640    1.0754   29.5444 N.ar    1  UNL1       -0.2078
     18 C           1.7023   -0.2786   29.4479 C.ar    1  UNL1        0.2015
     19 N           2.5873   -0.7712   30.5543 N.ar    1  UNL1       -0.2048
     20 C           2.8340    0.0903   31.7572 C.ar    1  UNL1        0.1674
     21 H           0.8345    3.8563   31.6333 H       1  UNL1        0.1438
     22 H           0.0917    3.6141   30.1176 H       1  UNL1        0.1438
     23 C           6.5599   -4.8402   28.5359 C.3     1  UNL1        0.1514
     24 C           7.2396   -5.4958   27.3705 C.3     1  UNL1        0.0326
     25 C           6.8563   -5.1197   25.9700 C.3     1  UNL1        0.0026
     26 C           6.6800   -3.6761   25.6027 C.3     1  UNL1        0.0001
     27 C           6.5704   -3.2769   24.1610 C.3     1  UNL1        0.0000
     28 C           5.4461   -3.8047   23.3200 C.3     1  UNL1        0.0000
     29 C           4.4662   -2.8554   22.6964 C.3     1  UNL1        0.0000
     30 C           4.8487   -1.4224   22.4727 C.3     1  UNL1        0.0000
     31 C           4.0871   -0.5880   21.4859 C.3     1  UNL1        0.0000
     32 C           2.6264   -0.8422   21.2582 C.3     1  UNL1        0.0000
     33 C           2.0990   -0.9859   19.8614 C.3     1  UNL1        0.0000
     34 C           2.4785    0.0143   18.8099 C.3     1  UNL1        0.0000
     35 C           3.4016   -0.3822   17.6961 C.3     1  UNL1        0.0000
     36 C           4.7000    0.3439   17.5036 C.3     1  UNL1        0.0000
     37 C           5.8380    0.1096   18.4523 C.3     1  UNL1        0.0000
     38 C           6.8870   -0.9121   18.1273 C.3     1  UNL1        0.0010
     39 C           6.5246   -2.3664   18.0678 C.3     1  UNL1        0.0140
     40 C           5.9908   -3.0569   19.2877 C.3     1  UNL1        0.0770
     41 C           3.3192   -4.4186   19.1924 C.1     1  UNL1       -0.0141
     42 C           4.6550   -3.7377   19.2401 C.1     1  UNL1       -0.0779
@<TRIPOS>BOND
     1    41    42    3
     2    42    40    1
     3    40    39    1
     4    39    38    1
     5    38    37    1
     6    37    36    1
     7    36    35    1
     8    35    34    1
     9    34    33    1
    10    33    32    1
    11    32    31    1
    12    31    30    1
    13    30    29    1
    14    29    28    1
    15    28    27    1
    16    27    26    1
    17    26    25    1
    18    25    24    1
    19    24    23    1
    20    23     1    1
    21     1     2    1
    22     2     3    2
    23     2     4    1
    24     2     6    1
    25     6     7    1
    26     7     8    1
    27     8     9    1
    28     8    10    1
    29    10    11    1
    30    11    12   ar
    31    12    13   ar
    32    13    14   ar
    33    14    15   ar
    34    15    16    1
    35    15    17   ar
    36    17    18   ar
    37    18    19   ar
    38    19    20   ar
    39    20    11   ar
    40    20    14   ar
    41     4     5    1
    42    16    21    1
    43    16    22    1
@<TRIPOS>MOLECULE
*****
 42 43 0 0 0
SMALL
GASTEIGER

@<TRIPOS>ATOM
      1 O           3.7952   -2.7169   19.0088 O.3     1  UNL1       -0.2926
      2 P           4.2491   -4.1286   19.2342 P.3     1  UNL1        0.3697
      3 O           2.8688   -4.6230   18.9176 O.2     1  UNL1       -0.2553
      4 O           4.7030   -5.5404   19.4597 O.3     1  UNL1       -0.3218
      5 H           3.9593   -6.1461   19.3152 H       1  UNL1        0.2198
      6 C           5.6295   -3.6343   19.5509 C.3     1  UNL1        0.2579
      7 O           6.5333   -4.4458   20.4309 O.3     1  UNL1       -0.3426
      8 C           7.6013   -3.7682   21.2373 C.3     1  UNL1        0.1387
      9 C           7.5234   -2.2927   21.4958 C.3     1  UNL1        0.0342
     10 C           8.7472   -4.5662   21.7853 C.3     1  UNL1        0.1384
     11 N           8.5076   -5.5775   22.8669 N.ar    1  UNL1       -0.2918
     12 C           8.8691   -7.0321   22.8098 C.ar    1  UNL1        0.1798
     13 N           8.4493   -7.6652   24.1032 N.ar    1  UNL1       -0.2195
     14 C           7.8283   -6.6018   24.9597 C.ar    1  UNL1        0.1481
     15 C           7.2347   -6.6418   26.3367 C.ar    1  UNL1        0.1480
     16 N           7.1986   -7.9321   27.1007 N.pl3   1  UNL1       -0.3413
     17 N           6.6771   -5.3914   26.9495 N.ar    1  UNL1       -0.2078
     18 C           6.7131   -4.1011   26.1855 C.ar    1  UNL1        0.2015
     19 N           7.3067   -4.0612   24.8085 N.ar    1  UNL1       -0.2048
     20 C           7.8643   -5.3115   24.1957 C.ar    1  UNL1        0.1674
     21 H           7.5646   -8.7528   26.6985 H       1  UNL1        0.1438
     22 H           6.8090   -7.9583   28.0045 H       1  UNL1        0.1438
     23 C           4.6292   -1.7839   18.1818 C.3     1  UNL1        0.1514
     24 C           3.9750   -0.6735   17.4144 C.3     1  UNL1        0.0326
     25 C           2.7007   -0.0631   17.9180 C.3     1  UNL1        0.0026
     26 C           2.7156    1.3061   18.5304 C.3     1  UNL1        0.0001
     27 C           2.8604    1.4621   20.0151 C.3     1  UNL1        0.0000
     28 C           4.2190    1.3952   20.6474 C.3     1  UNL1        0.0000
     29 C           4.6310    0.1721   21.4120 C.3     1  UNL1        0.0000
     30 C           3.6246   -0.8987   21.7130 C.3     1  UNL1        0.0000
     31 C           3.9005   -1.9062   22.7894 C.3     1  UNL1        0.0000
     32 C           4.8437   -1.5710   23.9066 C.3     1  UNL1        0.0000
     33 C           4.3131   -1.3266   25.2881 C.3     1  UNL1        0.0000
     34 C           3.1448   -0.4081   25.4912 C.3     1  UNL1        0.0000
     35 C           3.1466    0.9567   24.8689 C.3     1  UNL1        0.0000
     36 C           2.0564    1.3479   23.9158 C.3     1  UNL1        0.0000
     37 C           1.1041    2.4492   24.2768 C.3     1  UNL1        0.0000
     38 C          -0.2610    2.1179   24.8026 C.3     1  UNL1        0.0010
     39 C          -0.5482    2.2348   26.2702 C.3     1  UNL1        0.0140
     40 C           0.0713    1.2676   27.2350 C.3     1  UNL1        0.0770
     41 C          -1.6724   -0.3649   29.0502 C.1     1  UNL1       -0.0141
     42 C          -0.8006    0.4513   28.1426 C.1     1  UNL1       -0.0779
@<TRIPOS>BOND
     1    41    42    3
     2    42    40    1
     3    40    39    1
     4    39    38    1
     5    38    37    1
     6    37    36    1
     7    36    35    1
     8    35    34    1
     9    34    33    1
    10    33    32    1
    11    32    31    1
    12    31    30    1
    13    30    29    1
    14    29    28    1
    15    28    27    1
    16    27    26    1
    17    26    25    1
    18    25    24    1
    19    24    23    1
    20    23     1    1
    21     1     2    1
    22     2     3    2
    23     2     4    1
    24     2     6    1
    25     6     7    1
    26     7     8    1
    27     8     9    1
    28     8    10    1
    29    10    11    1
    30    11    12   ar
    31    12    13   ar
    32    13    14   ar
    33    14    15   ar
    34    15    16    1
    35    15    17   ar
    36    17    18   ar
    37    18    19   ar
    38    19    20   ar
    39    20    11   ar
    40    20    14   ar
    41     4     5    1
    42    16    21    1
    43    16    22    1
