@<TRIPOS>MOLECULE
*****
 42 46 0 0 0
SMALL
GASTEIGER

@<TRIPOS>ATOM
      1 C           7.0308   -3.4044   23.0751 C.ar    1  UNL1        0.0383
      2 C           6.0006   -3.4351   21.9852 C.ar    1  UNL1        0.0433
      3 N           4.7736   -2.7335   22.4875 N.ar    1  UNL1       -0.3260
      4 C           5.0455   -2.2691   23.8877 C.ar    1  UNL1        0.0606
      5 C           4.2031   -1.5224   24.8788 C.ar    1  UNL1        0.0203
      6 C           4.7556   -1.1902   26.2332 C.ar    1  UNL1        0.0384
      7 C           6.1507   -1.6049   26.5963 C.ar    1  UNL1        0.1392
      8 C           6.9932   -2.3517   25.6052 C.ar    1  UNL1        0.0389
      9 C           6.4406   -2.6838   24.2508 C.ar    1  UNL1        0.0256
     10 S           8.4093   -3.9913   23.0020 S.3     1  UNL1       -0.1142
     11 C           7.9123   -5.6316   24.2519 C.3     1  UNL1        0.0112
     12 C           8.5881   -5.4783   22.9215 C.3     1  UNL1        0.0434
     13 C           9.2640   -5.3251   21.5911 C.3     1  UNL1        0.0112
     14 C           8.7670   -6.9654   22.8410 C.3     1  UNL1        0.0112
     15 C           6.1680   -4.0580   20.6310 C.3     1  UNL1        0.0495
     16 C           5.9685   -3.2314   19.3954 C.3     1  UNL1        0.0376
     17 C           4.8262   -4.1144   18.9890 C.3     1  UNL1        0.0059
     18 C           7.1109   -2.3483   19.8017 C.3     1  UNL1        0.0059
     19 C           5.7690   -2.4047   18.1597 C.2     1  UNL1        0.0500
     20 O           4.3956   -1.9284   17.7896 O.co2   1  UNL1       -0.5492
     21 O           6.9428   -2.0543   17.2941 O.co2   1  UNL1       -0.5492
     22 C           3.4986   -2.5316   21.7236 C.3     1  UNL1        0.1324
     23 C           3.2650   -1.2502   20.9794 C.ar    1  UNL1        0.0004
     24 C           1.9838   -1.0426   20.2274 C.ar    1  UNL1       -0.0024
     25 C           1.7502    0.2386   19.4832 C.ar    1  UNL1       -0.0002
     26 C           2.7977    1.3122   19.4910 C.ar    1  UNL1        0.0015
     27 C           4.0789    1.1045   20.2430 C.ar    1  UNL1       -0.0002
     28 C           4.3125   -0.1767   20.9872 C.ar    1  UNL1       -0.0024
     29 C           2.5641    2.5935   18.7468 C.ar    1  UNL1        0.0192
     30 C           3.7290    3.3769   18.2184 C.ar    1  UNL1        0.0031
     31 C           3.4955    4.6582   17.4741 C.ar    1  UNL1        0.0207
     32 C           2.0971    5.1560   17.2584 C.ar    1  UNL1        0.0989
     33 N           0.9322    4.3726   17.7868 N.ar    1  UNL1       -0.2423
     34 C           1.1657    3.0913   18.5310 C.ar    1  UNL1        0.0988
     35 O           6.7033   -1.2728   27.9508 O.3     1  UNL1       -0.4690
     36 C           5.9685   -1.7013   29.1863 C.3     1  UNL1        0.2508
     37 C           6.3317   -2.9880   29.8665 C.ar    1  UNL1        0.1026
     38 C           6.5983   -4.2183   29.0509 C.ar    1  UNL1        0.0185
     39 C           6.9614   -5.5049   29.7312 C.ar    1  UNL1        0.0029
     40 C           7.0579   -5.5612   31.2270 C.ar    1  UNL1        0.0207
     41 C           6.7913   -4.3309   32.0426 C.ar    1  UNL1        0.0986
     42 N           6.4281   -3.0443   31.3623 N.ar    1  UNL1       -0.2445
@<TRIPOS>UNITY_ATOM_ATTR
20 1
charge -1
@<TRIPOS>BOND
     1    11    12    1
     2    12    13    1
     3    12    14    1
     4    12    10    1
     5    10     1    1
     6     1     2   ar
     7     2    15    1
     8    15    16    1
     9    16    17    1
    10    16    18    1
    11    16    19    1
    12    19    20   ar
    13    19    21   ar
    14     2     3   ar
    15     3    22    1
    16    22    23    1
    17    23    24   ar
    18    24    25   ar
    19    25    26   ar
    20    26    29    1
    21    29    30   ar
    22    30    31   ar
    23    31    32   ar
    24    32    33   ar
    25    33    34   ar
    26    26    27   ar
    27    27    28   ar
    28     3     4   ar
    29     4     5   ar
    30     5     6   ar
    31     6     7   ar
    32     7    35    1
    33    35    36    1
    34    36    37    1
    35    37    38   ar
    36    38    39   ar
    37    39    40   ar
    38    40    41   ar
    39    41    42   ar
    40     7     8   ar
    41     8     9   ar
    42     9     1   ar
    43    28    23   ar
    44     9     4   ar
    45    34    29   ar
    46    42    37   ar
@<TRIPOS>MOLECULE
*****
 42 46 0 0 0
SMALL
GASTEIGER

@<TRIPOS>ATOM
      1 C          -1.0239    4.1864   23.2048 C.ar    1  UNL1        0.0383
      2 C           0.0554    4.0408   22.1733 C.ar    1  UNL1        0.0433
      3 N          -0.5920    3.6548   20.8764 N.ar    1  UNL1       -0.3260
      4 C          -2.0713    3.5619   21.1063 C.ar    1  UNL1        0.0606
      5 C          -3.2098    3.2206   20.1912 C.ar    1  UNL1        0.0203
      6 C          -4.6152    3.2078   20.7152 C.ar    1  UNL1        0.0384
      7 C          -4.8822    3.5363   22.1542 C.ar    1  UNL1        0.1392
      8 C          -3.7437    3.8776   23.0693 C.ar    1  UNL1        0.0389
      9 C          -2.3383    3.8904   22.5453 C.ar    1  UNL1        0.0256
     10 S          -0.8240    4.5620   24.6432 S.3     1  UNL1       -0.1142
     11 C          -1.2393    2.6736   25.5158 C.3     1  UNL1        0.0112
     12 C          -1.7774    4.0631   25.6881 C.3     1  UNL1        0.0434
     13 C          -2.3156    5.4527   25.8605 C.3     1  UNL1        0.0112
     14 C          -2.7309    3.5643   26.7331 C.3     1  UNL1        0.0112
     15 C           1.5241    4.2452   22.3992 C.3     1  UNL1        0.0495
     16 C           2.4670    3.0828   22.3009 C.3     1  UNL1        0.0376
     17 C           1.5247    2.2494   23.1179 C.3     1  UNL1        0.0059
     18 C           3.4093    3.9161   21.4839 C.3     1  UNL1        0.0059
     19 C           3.4099    1.9203   22.2027 C.2     1  UNL1        0.0500
     20 O           4.7009    2.0630   21.4524 O.co2   1  UNL1       -0.5492
     21 O           3.0618    0.6151   22.8548 O.co2   1  UNL1       -0.5492
     22 C           0.1158    3.4055   19.5776 C.3     1  UNL1        0.1324
     23 C           0.9598    2.1772   19.4071 C.ar    1  UNL1        0.0004
     24 C           0.5276    0.8790   20.0217 C.ar    1  UNL1       -0.0024
     25 C           1.3715   -0.3493   19.8513 C.ar    1  UNL1       -0.0002
     26 C           2.6477   -0.2793   19.0660 C.ar    1  UNL1        0.0015
     27 C           3.0799    1.0189   18.4514 C.ar    1  UNL1       -0.0002
     28 C           2.2360    2.2472   18.6218 C.ar    1  UNL1       -0.0024
     29 C           3.4916   -1.5076   18.8955 C.ar    1  UNL1        0.0192
     30 C           3.1656   -2.7541   19.6634 C.ar    1  UNL1        0.0031
     31 C           4.0095   -3.9825   19.4929 C.ar    1  UNL1        0.0207
     32 C           5.1796   -3.9642   18.5545 C.ar    1  UNL1        0.0989
     33 N           5.5056   -2.7176   17.7866 N.ar    1  UNL1       -0.2423
     34 C           4.6617   -1.4893   17.9571 C.ar    1  UNL1        0.0988
     35 O          -6.2877    3.5235   22.6782 O.3     1  UNL1       -0.4690
     36 C          -7.0447    4.8099   22.8262 C.3     1  UNL1        0.2508
     37 C          -7.1856    5.4461   24.1773 C.ar    1  UNL1        0.1026
     38 C          -6.1722    5.1664   25.2473 C.ar    1  UNL1        0.0185
     39 C          -6.3132    5.8025   26.5984 C.ar    1  UNL1        0.0029
     40 C          -7.4674    6.7184   26.8795 C.ar    1  UNL1        0.0207
     41 C          -8.4807    6.9981   25.8095 C.ar    1  UNL1        0.0986
     42 N          -8.3398    6.3620   24.4584 N.ar    1  UNL1       -0.2445
@<TRIPOS>UNITY_ATOM_ATTR
20 1
charge -1
@<TRIPOS>BOND
     1    11    12    1
     2    12    13    1
     3    12    14    1
     4    12    10    1
     5    10     1    1
     6     1     2   ar
     7     2    15    1
     8    15    16    1
     9    16    17    1
    10    16    18    1
    11    16    19    1
    12    19    20   ar
    13    19    21   ar
    14     2     3   ar
    15     3    22    1
    16    22    23    1
    17    23    24   ar
    18    24    25   ar
    19    25    26   ar
    20    26    29    1
    21    29    30   ar
    22    30    31   ar
    23    31    32   ar
    24    32    33   ar
    25    33    34   ar
    26    26    27   ar
    27    27    28   ar
    28     3     4   ar
    29     4     5   ar
    30     5     6   ar
    31     6     7   ar
    32     7    35    1
    33    35    36    1
    34    36    37    1
    35    37    38   ar
    36    38    39   ar
    37    39    40   ar
    38    40    41   ar
    39    41    42   ar
    40     7     8   ar
    41     8     9   ar
    42     9     1   ar
    43    28    23   ar
    44     9     4   ar
    45    34    29   ar
    46    42    37   ar
@<TRIPOS>MOLECULE
*****
 42 46 0 0 0
SMALL
GASTEIGER

@<TRIPOS>ATOM
      1 C           4.3162   -1.9639   21.7541 C.ar    1  UNL1        0.0383
      2 C           3.7418   -0.6705   21.2567 C.ar    1  UNL1        0.0433
      3 N           3.8187    0.3299   22.3717 N.ar    1  UNL1       -0.3260
      4 C           4.4405   -0.3451   23.5581 C.ar    1  UNL1        0.0606
      5 C           4.7665    0.1480   24.9367 C.ar    1  UNL1        0.0203
      6 C           5.4000   -0.7766   25.9336 C.ar    1  UNL1        0.0384
      7 C           5.7075   -2.1943   25.5519 C.ar    1  UNL1        0.1392
      8 C           5.3815   -2.6873   24.1733 C.ar    1  UNL1        0.0389
      9 C           4.7480   -1.7628   23.1764 C.ar    1  UNL1        0.0256
     10 S           4.4374   -3.2352   20.9672 S.3     1  UNL1       -0.1142
     11 C           6.2626   -2.6583   20.0530 C.3     1  UNL1        0.0112
     12 C           4.9537   -3.1995   19.5594 C.3     1  UNL1        0.0434
     13 C           3.6447   -3.7408   19.0657 C.3     1  UNL1        0.0112
     14 C           5.4699   -3.1640   18.1515 C.3     1  UNL1        0.0112
     15 C           3.1878   -0.4214   19.8852 C.3     1  UNL1        0.0495
     16 C           1.9077    0.3430   19.7208 C.3     1  UNL1        0.0376
     17 C           2.6421    1.4103   18.9650 C.3     1  UNL1        0.0059
     18 C           1.1733   -0.7244   20.4767 C.3     1  UNL1        0.0059
     19 C           0.6276    1.1074   19.5564 C.2     1  UNL1        0.0500
     20 O          -0.4464    1.0048   20.5986 O.co2   1  UNL1       -0.5492
     21 O           0.4214    1.9744   18.3499 O.co2   1  UNL1       -0.5492
     22 C           3.3551    1.7552   22.3109 C.3     1  UNL1        0.1324
     23 C           2.0322    2.1396   22.9047 C.ar    1  UNL1        0.0004
     24 C           1.4004    3.4510   22.5429 C.ar    1  UNL1       -0.0024
     25 C           0.0776    3.8354   23.1366 C.ar    1  UNL1       -0.0002
     26 C          -0.6133    2.9083   24.0921 C.ar    1  UNL1        0.0015
     27 C           0.0185    1.5969   24.4539 C.ar    1  UNL1       -0.0002
     28 C           1.3412    1.2125   23.8602 C.ar    1  UNL1       -0.0024
     29 C          -1.9361    3.2926   24.6859 C.ar    1  UNL1        0.0192
     30 C          -3.0916    3.6270   23.7898 C.ar    1  UNL1        0.0031
     31 C          -4.4145    4.0114   24.3835 C.ar    1  UNL1        0.0207
     32 C          -4.5817    4.0613   25.8733 C.ar    1  UNL1        0.0989
     33 N          -3.4262    3.7270   26.7694 N.ar    1  UNL1       -0.2423
     34 C          -2.1034    3.3426   26.1757 C.ar    1  UNL1        0.0988
     35 O           6.3410   -3.1189   26.5488 O.3     1  UNL1       -0.4690
     36 C           7.7052   -3.6843   26.2860 C.3     1  UNL1        0.2508
     37 C           7.8993   -5.1698   26.2087 C.ar    1  UNL1        0.1026
     38 C           7.8822   -5.8601   24.8771 C.ar    1  UNL1        0.0185
     39 C           8.0763   -7.3454   24.7998 C.ar    1  UNL1        0.0029
     40 C           8.2874   -8.1405   26.0541 C.ar    1  UNL1        0.0207
     41 C           8.3045   -7.4502   27.3857 C.ar    1  UNL1        0.0986
     42 N           8.1104   -5.9648   27.4630 N.ar    1  UNL1       -0.2445
@<TRIPOS>UNITY_ATOM_ATTR
20 1
charge -1
@<TRIPOS>BOND
     1    11    12    1
     2    12    13    1
     3    12    14    1
     4    12    10    1
     5    10     1    1
     6     1     2   ar
     7     2    15    1
     8    15    16    1
     9    16    17    1
    10    16    18    1
    11    16    19    1
    12    19    20   ar
    13    19    21   ar
    14     2     3   ar
    15     3    22    1
    16    22    23    1
    17    23    24   ar
    18    24    25   ar
    19    25    26   ar
    20    26    29    1
    21    29    30   ar
    22    30    31   ar
    23    31    32   ar
    24    32    33   ar
    25    33    34   ar
    26    26    27   ar
    27    27    28   ar
    28     3     4   ar
    29     4     5   ar
    30     5     6   ar
    31     6     7   ar
    32     7    35    1
    33    35    36    1
    34    36    37    1
    35    37    38   ar
    36    38    39   ar
    37    39    40   ar
    38    40    41   ar
    39    41    42   ar
    40     7     8   ar
    41     8     9   ar
    42     9     1   ar
    43    28    23   ar
    44     9     4   ar
    45    34    29   ar
    46    42    37   ar
@<TRIPOS>MOLECULE
*****
 42 46 0 0 0
SMALL
GASTEIGER

@<TRIPOS>ATOM
      1 C          -2.7515    4.4625   23.2024 C.ar    1  UNL1        0.0383
      2 C          -2.0824    4.5322   21.8617 C.ar    1  UNL1        0.0433
      3 N          -0.8400    3.6938   21.9196 N.ar    1  UNL1       -0.3260
      4 C          -0.7412    3.1059   23.2960 C.ar    1  UNL1        0.0606
      5 C           0.2719    2.1994   23.9299 C.ar    1  UNL1        0.0203
      6 C           0.1036    1.7680   25.3566 C.ar    1  UNL1        0.0384
      7 C          -1.0777    2.2431   26.1494 C.ar    1  UNL1        0.1392
      8 C          -2.0908    3.1496   25.5156 C.ar    1  UNL1        0.0389
      9 C          -1.9225    3.5810   24.0889 C.ar    1  UNL1        0.0256
     10 S          -4.0258    5.1531   23.5889 S.3     1  UNL1       -0.1142
     11 C          -5.1133    3.3447   23.3721 C.3     1  UNL1        0.0112
     12 C          -5.3179    4.7645   22.9337 C.3     1  UNL1        0.0434
     13 C          -5.5226    6.1844   22.4953 C.3     1  UNL1        0.0112
     14 C          -6.6101    4.3761   22.2785 C.3     1  UNL1        0.0112
     15 C          -2.5702    5.3047   20.6720 C.3     1  UNL1        0.0495
     16 C          -2.6498    4.6420   19.3287 C.3     1  UNL1        0.0376
     17 C          -1.6930    5.6546   18.7725 C.3     1  UNL1        0.0059
     18 C          -3.6065    3.6295   19.8849 C.3     1  UNL1        0.0059
     19 C          -2.7293    3.9794   17.9853 C.2     1  UNL1        0.0500
     20 O          -1.4733    3.6735   17.2244 O.co2   1  UNL1       -0.5492
     21 O          -4.0647    3.6226   17.4029 O.co2   1  UNL1       -0.5492
     22 C           0.1328    3.4806   20.7979 C.3     1  UNL1        0.1324
     23 C           0.9075    2.1990   20.7103 C.ar    1  UNL1        0.0004
     24 C           0.1987    0.9140   20.3997 C.ar    1  UNL1       -0.0024
     25 C           0.9733   -0.3675   20.3121 C.ar    1  UNL1       -0.0002
     26 C           2.4566   -0.3640   20.5351 C.ar    1  UNL1        0.0015
     27 C           3.1653    0.9210   20.8457 C.ar    1  UNL1       -0.0002
     28 C           2.3908    2.2025   20.9333 C.ar    1  UNL1       -0.0024
     29 C           3.2312   -1.6456   20.4476 C.ar    1  UNL1        0.0192
     30 C           3.2553   -2.4211   19.1638 C.ar    1  UNL1        0.0031
     31 C           4.0299   -3.7027   19.0761 C.ar    1  UNL1        0.0207
     32 C           4.7804   -4.2087   20.2723 C.ar    1  UNL1        0.0989
     33 N           4.7563   -3.4331   21.5560 N.ar    1  UNL1       -0.2423
     34 C           3.9817   -2.1516   21.6437 C.ar    1  UNL1        0.0988
     35 O          -1.2460    1.8116   27.5762 O.3     1  UNL1       -0.4690
     36 C          -0.6084    0.5414   28.0558 C.3     1  UNL1        0.2508
     37 C           0.4230    0.5844   29.1442 C.ar    1  UNL1        0.1026
     38 C           0.4103    1.7009   30.1458 C.ar    1  UNL1        0.0185
     39 C           1.4417    1.7438   31.2341 C.ar    1  UNL1        0.0029
     40 C           2.4857    0.6703   31.3208 C.ar    1  UNL1        0.0207
     41 C           2.4984   -0.4462   30.3192 C.ar    1  UNL1        0.0986
     42 N           1.4670   -0.4891   29.2309 N.ar    1  UNL1       -0.2445
@<TRIPOS>UNITY_ATOM_ATTR
20 1
charge -1
@<TRIPOS>BOND
     1    11    12    1
     2    12    13    1
     3    12    14    1
     4    12    10    1
     5    10     1    1
     6     1     2   ar
     7     2    15    1
     8    15    16    1
     9    16    17    1
    10    16    18    1
    11    16    19    1
    12    19    20   ar
    13    19    21   ar
    14     2     3   ar
    15     3    22    1
    16    22    23    1
    17    23    24   ar
    18    24    25   ar
    19    25    26   ar
    20    26    29    1
    21    29    30   ar
    22    30    31   ar
    23    31    32   ar
    24    32    33   ar
    25    33    34   ar
    26    26    27   ar
    27    27    28   ar
    28     3     4   ar
    29     4     5   ar
    30     5     6   ar
    31     6     7   ar
    32     7    35    1
    33    35    36    1
    34    36    37    1
    35    37    38   ar
    36    38    39   ar
    37    39    40   ar
    38    40    41   ar
    39    41    42   ar
    40     7     8   ar
    41     8     9   ar
    42     9     1   ar
    43    28    23   ar
    44     9     4   ar
    45    34    29   ar
    46    42    37   ar
@<TRIPOS>MOLECULE
*****
 42 46 0 0 0
SMALL
GASTEIGER

@<TRIPOS>ATOM
      1 C          -3.2968    3.6843   22.3737 C.ar    1  UNL1        0.0383
      2 C          -2.9108    3.5108   20.9346 C.ar    1  UNL1        0.0433
      3 N          -1.4152    3.5815   20.8441 N.ar    1  UNL1       -0.3260
      4 C          -0.8769    3.7988   22.2272 C.ar    1  UNL1        0.0606
      5 C           0.5220    3.9471   22.7480 C.ar    1  UNL1        0.0203
      6 C           0.7579    4.1588   24.2140 C.ar    1  UNL1        0.0384
      7 C          -0.4050    4.2223   25.1594 C.ar    1  UNL1        0.1392
      8 C          -1.8038    4.0741   24.6386 C.ar    1  UNL1        0.0389
      9 C          -2.0398    3.8624   23.1726 C.ar    1  UNL1        0.0256
     10 S          -4.6944    3.6805   22.9183 S.3     1  UNL1       -0.1142
     11 C          -4.9970    5.7755   22.7782 C.3     1  UNL1        0.0112
     12 C          -5.1318    4.7549   23.8692 C.3     1  UNL1        0.0434
     13 C          -5.2666    3.7343   24.9603 C.3     1  UNL1        0.0112
     14 C          -5.5692    5.8293   24.8202 C.3     1  UNL1        0.0112
     15 C          -3.8547    3.3029   19.7875 C.3     1  UNL1        0.0495
     16 C          -4.7904    4.4013   19.3777 C.3     1  UNL1        0.0376
     17 C          -5.9412    3.4408   19.4306 C.3     1  UNL1        0.0059
     18 C          -3.6395    5.3619   19.3247 C.3     1  UNL1        0.0059
     19 C          -5.7261    5.4998   18.9678 C.2     1  UNL1        0.0500
     20 O          -7.0252    5.6881   19.6936 O.co2   1  UNL1       -0.5492
     21 O          -5.3627    6.4098   17.8322 O.co2   1  UNL1       -0.5492
     22 C          -0.6009    3.4569   19.5906 C.3     1  UNL1        0.1324
     23 C           0.3478    2.3070   19.4237 C.ar    1  UNL1        0.0004
     24 C           0.1105    1.0252   20.1658 C.ar    1  UNL1       -0.0024
     25 C           1.0591   -0.1247   19.9990 C.ar    1  UNL1       -0.0002
     26 C           2.2450    0.0072   19.0900 C.ar    1  UNL1        0.0015
     27 C           2.4822    1.2890   18.3479 C.ar    1  UNL1       -0.0002
     28 C           1.5337    2.4389   18.5147 C.ar    1  UNL1       -0.0024
     29 C           3.1936   -1.1427   18.9231 C.ar    1  UNL1        0.0192
     30 C           3.0688   -2.3516   19.8023 C.ar    1  UNL1        0.0031
     31 C           4.0174   -3.5016   19.6355 C.ar    1  UNL1        0.0207
     32 C           5.0909   -3.4425   18.5894 C.ar    1  UNL1        0.0989
     33 N           5.2158   -2.2336   17.7103 N.ar    1  UNL1       -0.2423
     34 C           4.2672   -1.0837   17.8771 C.ar    1  UNL1        0.0988
     35 O          -0.1689    4.4341   26.6255 O.3     1  UNL1       -0.4690
     36 C           0.8517    3.6059   27.3482 C.3     1  UNL1        0.2508
     37 C           0.4814    2.2512   27.8754 C.ar    1  UNL1        0.1026
     38 C          -0.9527    1.8118   27.8730 C.ar    1  UNL1        0.0185
     39 C          -1.3230    0.4572   28.4002 C.ar    1  UNL1        0.0029
     40 C          -0.2590   -0.4579   28.9299 C.ar    1  UNL1        0.0207
     41 C           1.1751   -0.0185   28.9323 C.ar    1  UNL1        0.0986
     42 N           1.5454    1.3361   28.4051 N.ar    1  UNL1       -0.2445
@<TRIPOS>UNITY_ATOM_ATTR
20 1
charge -1
@<TRIPOS>BOND
     1    11    12    1
     2    12    13    1
     3    12    14    1
     4    12    10    1
     5    10     1    1
     6     1     2   ar
     7     2    15    1
     8    15    16    1
     9    16    17    1
    10    16    18    1
    11    16    19    1
    12    19    20   ar
    13    19    21   ar
    14     2     3   ar
    15     3    22    1
    16    22    23    1
    17    23    24   ar
    18    24    25   ar
    19    25    26   ar
    20    26    29    1
    21    29    30   ar
    22    30    31   ar
    23    31    32   ar
    24    32    33   ar
    25    33    34   ar
    26    26    27   ar
    27    27    28   ar
    28     3     4   ar
    29     4     5   ar
    30     5     6   ar
    31     6     7   ar
    32     7    35    1
    33    35    36    1
    34    36    37    1
    35    37    38   ar
    36    38    39   ar
    37    39    40   ar
    38    40    41   ar
    39    41    42   ar
    40     7     8   ar
    41     8     9   ar
    42     9     1   ar
    43    28    23   ar
    44     9     4   ar
    45    34    29   ar
    46    42    37   ar
@<TRIPOS>MOLECULE
*****
 42 46 0 0 0
SMALL
GASTEIGER

@<TRIPOS>ATOM
      1 C           3.3578    0.6160   19.5399 C.ar    1  UNL1        0.0383
      2 C           4.4054   -0.4409   19.3518 C.ar    1  UNL1        0.0433
      3 N           5.5939   -0.0695   20.1882 N.ar    1  UNL1       -0.3260
      4 C           5.2807    1.2169   20.8933 C.ar    1  UNL1        0.0606
      5 C           6.0755    2.0572   21.8484 C.ar    1  UNL1        0.0203
      6 C           5.4882    3.3212   22.4027 C.ar    1  UNL1        0.0384
      7 C           4.1062    3.7449   22.0020 C.ar    1  UNL1        0.1392
      8 C           3.3115    2.9046   21.0470 C.ar    1  UNL1        0.0389
      9 C           3.8987    1.6406   20.4926 C.ar    1  UNL1        0.0256
     10 S           2.0064    0.6435   18.8895 S.3     1  UNL1       -0.1142
     11 C           0.8855    0.0703   20.5969 C.3     1  UNL1        0.0112
     12 C           0.8307    1.2129   19.6267 C.3     1  UNL1        0.0434
     13 C           0.7758    2.3556   18.6564 C.3     1  UNL1        0.0112
     14 C          -0.3450    1.7824   20.3638 C.3     1  UNL1        0.0112
     15 C           4.2856   -1.6558   18.4803 C.3     1  UNL1        0.0495
     16 C           4.4010   -3.0249   19.0821 C.3     1  UNL1        0.0376
     17 C           5.5369   -3.3373   18.1538 C.3     1  UNL1        0.0059
     18 C           3.2650   -2.7125   20.0105 C.3     1  UNL1        0.0059
     19 C           4.5163   -4.3941   19.6840 C.2     1  UNL1        0.0500
     20 O           4.7620   -5.5826   18.8025 O.co2   1  UNL1       -0.5492
     21 O           4.3860   -4.5747   21.1674 O.co2   1  UNL1       -0.5492
     22 C           6.8712   -0.8479   20.3000 C.3     1  UNL1        0.1324
     23 C           6.9953   -1.9435   21.3171 C.ar    1  UNL1        0.0004
     24 C           6.1951   -1.8846   22.5844 C.ar    1  UNL1       -0.0024
     25 C           6.3191   -2.9801   23.6014 C.ar    1  UNL1       -0.0002
     26 C           7.2435   -4.1347   23.3510 C.ar    1  UNL1        0.0015
     27 C           8.0437   -4.1936   22.0837 C.ar    1  UNL1       -0.0002
     28 C           7.9197   -3.0980   21.0667 C.ar    1  UNL1       -0.0024
     29 C           7.3676   -5.2302   24.3680 C.ar    1  UNL1        0.0192
     30 C           8.0453   -6.5180   24.0042 C.ar    1  UNL1        0.0031
     31 C           8.1695   -7.6137   25.0211 C.ar    1  UNL1        0.0207
     32 C           7.6159   -7.4216   26.4019 C.ar    1  UNL1        0.0989
     33 N           6.9382   -6.1338   26.7657 N.ar    1  UNL1       -0.2423
     34 C           6.8140   -5.0382   25.7489 C.ar    1  UNL1        0.0988
     35 O           3.5189    5.0090   22.5565 O.3     1  UNL1       -0.4690
     36 C           2.8071    4.9892   23.8767 C.3     1  UNL1        0.2508
     37 C           2.0036    3.7877   24.2776 C.ar    1  UNL1        0.1026
     38 C           0.6257    3.5867   23.7200 C.ar    1  UNL1        0.0185
     39 C          -0.1777    2.3852   24.1210 C.ar    1  UNL1        0.0029
     40 C           0.3968    1.3847   25.0796 C.ar    1  UNL1        0.0207
     41 C           1.7746    1.5857   25.6372 C.ar    1  UNL1        0.0986
     42 N           2.5781    2.7872   25.2362 N.ar    1  UNL1       -0.2445
@<TRIPOS>UNITY_ATOM_ATTR
20 1
charge -1
@<TRIPOS>BOND
     1    11    12    1
     2    12    13    1
     3    12    14    1
     4    12    10    1
     5    10     1    1
     6     1     2   ar
     7     2    15    1
     8    15    16    1
     9    16    17    1
    10    16    18    1
    11    16    19    1
    12    19    20   ar
    13    19    21   ar
    14     2     3   ar
    15     3    22    1
    16    22    23    1
    17    23    24   ar
    18    24    25   ar
    19    25    26   ar
    20    26    29    1
    21    29    30   ar
    22    30    31   ar
    23    31    32   ar
    24    32    33   ar
    25    33    34   ar
    26    26    27   ar
    27    27    28   ar
    28     3     4   ar
    29     4     5   ar
    30     5     6   ar
    31     6     7   ar
    32     7    35    1
    33    35    36    1
    34    36    37    1
    35    37    38   ar
    36    38    39   ar
    37    39    40   ar
    38    40    41   ar
    39    41    42   ar
    40     7     8   ar
    41     8     9   ar
    42     9     1   ar
    43    28    23   ar
    44     9     4   ar
    45    34    29   ar
    46    42    37   ar
@<TRIPOS>MOLECULE
*****
 42 46 0 0 0
SMALL
GASTEIGER

@<TRIPOS>ATOM
      1 C          -2.6035    3.9758   24.2263 C.ar    1  UNL1        0.0383
      2 C          -2.0993    4.1231   22.8212 C.ar    1  UNL1        0.0433
      3 N          -0.8162    3.3547   22.7063 N.ar    1  UNL1       -0.3260
      4 C          -0.5274    2.7325   24.0402 C.ar    1  UNL1        0.0606
      5 C           0.5987    1.8661   24.5208 C.ar    1  UNL1        0.0203
      6 C           0.6203    1.3834   25.9409 C.ar    1  UNL1        0.0384
      7 C          -0.4843    1.7673   26.8803 C.ar    1  UNL1        0.1392
      8 C          -1.6105    2.6337   26.3997 C.ar    1  UNL1        0.0389
      9 C          -1.6320    3.1164   24.9796 C.ar    1  UNL1        0.0256
     10 S          -3.8588    4.5815   24.7806 S.3     1  UNL1       -0.1142
     11 C          -4.5863    4.4733   26.7703 C.3     1  UNL1        0.0112
     12 C          -3.7927    5.4743   25.9841 C.3     1  UNL1        0.0434
     13 C          -2.9992    6.4755   25.1978 C.3     1  UNL1        0.0112
     14 C          -3.7266    6.3673   27.1875 C.3     1  UNL1        0.0112
     15 C          -2.7620    4.9020   21.7238 C.3     1  UNL1        0.0495
     16 C          -4.1098    4.4838   21.2156 C.3     1  UNL1        0.0376
     17 C          -3.5365    3.1687   20.7776 C.3     1  UNL1        0.0059
     18 C          -4.6831    5.7988   21.6537 C.3     1  UNL1        0.0059
     19 C          -5.4577    4.0654   20.7074 C.2     1  UNL1        0.0500
     20 O          -5.5625    3.1754   19.5045 O.co2   1  UNL1       -0.5492
     21 O          -6.7007    4.5371   21.4020 O.co2   1  UNL1       -0.5492
     22 C           0.0296    3.2304   21.4737 C.3     1  UNL1        0.1324
     23 C           0.8455    1.9924   21.2458 C.ar    1  UNL1        0.0004
     24 C           2.3193    2.0037   21.5246 C.ar    1  UNL1       -0.0024
     25 C           3.1352    0.7658   21.2966 C.ar    1  UNL1       -0.0002
     26 C           2.4773   -0.4833   20.7899 C.ar    1  UNL1        0.0015
     27 C           1.0035   -0.4945   20.5111 C.ar    1  UNL1       -0.0002
     28 C           0.1876    0.7433   20.7390 C.ar    1  UNL1       -0.0024
     29 C           3.2932   -1.7212   20.5620 C.ar    1  UNL1        0.0192
     30 C           3.2335   -2.4257   19.2391 C.ar    1  UNL1        0.0031
     31 C           4.0493   -3.6637   19.0110 C.ar    1  UNL1        0.0207
     32 C           4.9249   -4.1970   20.1060 C.ar    1  UNL1        0.0989
     33 N           4.9846   -3.4925   21.4288 N.ar    1  UNL1       -0.2423
     34 C           4.1688   -2.2546   21.6569 C.ar    1  UNL1        0.0988
     35 O          -0.4628    1.2846   28.3004 O.3     1  UNL1       -0.4690
     36 C           0.0829   -0.0750   28.6222 C.3     1  UNL1        0.2508
     37 C           1.4621   -0.2133   29.1956 C.ar    1  UNL1        0.1026
     38 C           2.5918   -0.6821   28.3274 C.ar    1  UNL1        0.0185
     39 C           3.9709   -0.8203   28.9008 C.ar    1  UNL1        0.0029
     40 C           4.2203   -0.4897   30.3425 C.ar    1  UNL1        0.0207
     41 C           3.0906   -0.0209   31.2108 C.ar    1  UNL1        0.0986
     42 N           1.7115    0.1173   30.6373 N.ar    1  UNL1       -0.2445
@<TRIPOS>UNITY_ATOM_ATTR
20 1
charge -1
@<TRIPOS>BOND
     1    11    12    1
     2    12    13    1
     3    12    14    1
     4    12    10    1
     5    10     1    1
     6     1     2   ar
     7     2    15    1
     8    15    16    1
     9    16    17    1
    10    16    18    1
    11    16    19    1
    12    19    20   ar
    13    19    21   ar
    14     2     3   ar
    15     3    22    1
    16    22    23    1
    17    23    24   ar
    18    24    25   ar
    19    25    26   ar
    20    26    29    1
    21    29    30   ar
    22    30    31   ar
    23    31    32   ar
    24    32    33   ar
    25    33    34   ar
    26    26    27   ar
    27    27    28   ar
    28     3     4   ar
    29     4     5   ar
    30     5     6   ar
    31     6     7   ar
    32     7    35    1
    33    35    36    1
    34    36    37    1
    35    37    38   ar
    36    38    39   ar
    37    39    40   ar
    38    40    41   ar
    39    41    42   ar
    40     7     8   ar
    41     8     9   ar
    42     9     1   ar
    43    28    23   ar
    44     9     4   ar
    45    34    29   ar
    46    42    37   ar
@<TRIPOS>MOLECULE
*****
 42 46 0 0 0
SMALL
GASTEIGER

@<TRIPOS>ATOM
      1 C           3.1834   -0.8664   21.5604 C.ar    1  UNL1        0.0383
      2 C           4.6091   -1.3322   21.5418 C.ar    1  UNL1        0.0433
      3 N           5.2288   -0.9807   22.8619 N.ar    1  UNL1       -0.3260
      4 C           4.1861   -0.2977   23.6963 C.ar    1  UNL1        0.0606
      5 C           4.2243    0.2690   25.0845 C.ar    1  UNL1        0.0203
      6 C           2.9985    0.9064   25.6684 C.ar    1  UNL1        0.0384
      7 C           1.7344    0.9770   24.8641 C.ar    1  UNL1        0.1392
      8 C           1.6961    0.4103   23.4758 C.ar    1  UNL1        0.0389
      9 C           2.9219   -0.2271   22.8919 C.ar    1  UNL1        0.0256
     10 S           2.1930   -1.0140   20.4436 S.3     1  UNL1       -0.1142
     11 C           0.3193   -0.0220   20.3720 C.3     1  UNL1        0.0112
     12 C           1.6633    0.2030   19.7451 C.3     1  UNL1        0.0434
     13 C           3.0073    0.4281   19.1181 C.3     1  UNL1        0.0112
     14 C           1.1336    1.4202   19.0465 C.3     1  UNL1        0.0112
     15 C           5.2948   -2.0274   20.4032 C.3     1  UNL1        0.0495
     16 C           4.7273   -3.3015   19.8514 C.3     1  UNL1        0.0376
     17 C           4.8397   -2.7495   18.4612 C.3     1  UNL1        0.0059
     18 C           4.6149   -3.8535   21.2415 C.3     1  UNL1        0.0059
     19 C           4.1598   -4.5757   19.2995 C.2     1  UNL1        0.0500
     20 O           5.0510   -5.7632   19.0862 O.co2   1  UNL1       -0.5492
     21 O           2.7011   -4.6623   18.9608 O.co2   1  UNL1       -0.5492
     22 C           6.6429   -1.2627   23.2750 C.3     1  UNL1        0.1324
     23 C           6.9699   -2.5244   24.0176 C.ar    1  UNL1        0.0004
     24 C           7.7540   -3.6103   23.3424 C.ar    1  UNL1       -0.0024
     25 C           8.0810   -4.8719   24.0849 C.ar    1  UNL1       -0.0002
     26 C           7.6240   -5.0475   25.5028 C.ar    1  UNL1        0.0015
     27 C           6.8400   -3.9615   26.1780 C.ar    1  UNL1       -0.0002
     28 C           6.5129   -2.7000   25.4355 C.ar    1  UNL1       -0.0024
     29 C           7.9510   -6.3091   26.2454 C.ar    1  UNL1        0.0192
     30 C           9.1219   -6.3459   27.1821 C.ar    1  UNL1        0.0031
     31 C           9.4490   -7.6075   27.9248 C.ar    1  UNL1        0.0207
     32 C           8.6050   -8.8322   27.7307 C.ar    1  UNL1        0.0989
     33 N           7.4340   -8.7954   26.7940 N.ar    1  UNL1       -0.2423
     34 C           7.1070   -7.5339   26.0514 C.ar    1  UNL1        0.0988
     35 O           0.5085    1.6144   25.4481 O.3     1  UNL1       -0.4690
     36 C          -0.0468    2.8683   24.8404 C.3     1  UNL1        0.2508
     37 C          -1.4873    3.2298   25.0510 C.ar    1  UNL1        0.1026
     38 C          -2.3834    3.4594   23.8703 C.ar    1  UNL1        0.0185
     39 C          -3.8238    3.8208   24.0810 C.ar    1  UNL1        0.0029
     40 C          -4.3682    3.9526   25.4725 C.ar    1  UNL1        0.0207
     41 C          -3.4722    3.7229   26.6532 C.ar    1  UNL1        0.0986
     42 N          -2.0318    3.3615   26.4425 N.ar    1  UNL1       -0.2445
@<TRIPOS>UNITY_ATOM_ATTR
20 1
charge -1
@<TRIPOS>BOND
     1    11    12    1
     2    12    13    1
     3    12    14    1
     4    12    10    1
     5    10     1    1
     6     1     2   ar
     7     2    15    1
     8    15    16    1
     9    16    17    1
    10    16    18    1
    11    16    19    1
    12    19    20   ar
    13    19    21   ar
    14     2     3   ar
    15     3    22    1
    16    22    23    1
    17    23    24   ar
    18    24    25   ar
    19    25    26   ar
    20    26    29    1
    21    29    30   ar
    22    30    31   ar
    23    31    32   ar
    24    32    33   ar
    25    33    34   ar
    26    26    27   ar
    27    27    28   ar
    28     3     4   ar
    29     4     5   ar
    30     5     6   ar
    31     6     7   ar
    32     7    35    1
    33    35    36    1
    34    36    37    1
    35    37    38   ar
    36    38    39   ar
    37    39    40   ar
    38    40    41   ar
    39    41    42   ar
    40     7     8   ar
    41     8     9   ar
    42     9     1   ar
    43    28    23   ar
    44     9     4   ar
    45    34    29   ar
    46    42    37   ar
@<TRIPOS>MOLECULE
*****
 42 46 0 0 0
SMALL
GASTEIGER

@<TRIPOS>ATOM
      1 C           5.4421   -1.8023   30.7679 C.ar    1  UNL1        0.0383
      2 C           6.4986   -1.8890   29.7067 C.ar    1  UNL1        0.0433
      3 N           6.0781   -1.0162   28.5616 N.ar    1  UNL1       -0.3260
      4 C           4.7617   -0.3900   28.9151 C.ar    1  UNL1        0.0606
      5 C           3.8701    0.5598   28.1714 C.ar    1  UNL1        0.0203
      6 C           2.5855    1.0237   28.7914 C.ar    1  UNL1        0.0384
      7 C           2.1924    0.5379   30.1550 C.ar    1  UNL1        0.1392
      8 C           3.0839   -0.4119   30.8987 C.ar    1  UNL1        0.0389
      9 C           4.3686   -0.8758   30.2787 C.ar    1  UNL1        0.0256
     10 S           5.4564   -2.5166   32.0869 S.3     1  UNL1       -0.1142
     11 C           4.0718   -2.4568   33.6928 C.3     1  UNL1        0.0112
     12 C           5.3457   -1.7368   33.3634 C.3     1  UNL1        0.0434
     13 C           6.6197   -1.0167   33.0340 C.3     1  UNL1        0.0112
     14 C           5.2351   -0.9569   34.6399 C.3     1  UNL1        0.0112
     15 C           7.7551   -2.7052   29.7781 C.3     1  UNL1        0.0495
     16 C           7.6773   -4.1806   30.0376 C.3     1  UNL1        0.0376
     17 C           6.7711   -4.3411   28.8531 C.3     1  UNL1        0.0059
     18 C           8.5835   -4.0200   31.2220 C.3     1  UNL1        0.0059
     19 C           7.5995   -5.6560   30.2970 C.2     1  UNL1        0.0500
     20 O           6.8530   -6.1688   31.4927 O.co2   1  UNL1       -0.5492
     21 O           8.2681   -6.6184   29.3607 O.co2   1  UNL1       -0.5492
     22 C           6.8402   -0.8063   27.2868 C.3     1  UNL1        0.1324
     23 C           6.2634   -1.2722   25.9828 C.ar    1  UNL1        0.0004
     24 C           5.6146   -0.2878   25.0553 C.ar    1  UNL1       -0.0024
     25 C           5.0378   -0.7535   23.7514 C.ar    1  UNL1       -0.0002
     26 C           5.1098   -2.2037   23.3749 C.ar    1  UNL1        0.0015
     27 C           5.7585   -3.1881   24.3023 C.ar    1  UNL1       -0.0002
     28 C           6.3354   -2.7224   25.6062 C.ar    1  UNL1       -0.0024
     29 C           4.5330   -2.6696   22.0709 C.ar    1  UNL1        0.0192
     30 C           3.7775   -1.7103   21.1997 C.ar    1  UNL1        0.0031
     31 C           3.2006   -2.1761   19.8957 C.ar    1  UNL1        0.0207
     32 C           3.3794   -3.6012   19.4629 C.ar    1  UNL1        0.0989
     33 N           4.1349   -4.5604   20.3342 N.ar    1  UNL1       -0.2423
     34 C           4.7117   -4.0947   21.6381 C.ar    1  UNL1        0.0988
     35 O           0.9077    1.0019   30.7750 O.3     1  UNL1       -0.4690
     36 C           0.6498    2.4681   30.9580 C.3     1  UNL1        0.2508
     37 C           0.9304    3.1198   32.2796 C.ar    1  UNL1        0.1026
     38 C           1.8673    2.4685   33.2531 C.ar    1  UNL1        0.0185
     39 C           2.1478    3.1202   34.5747 C.ar    1  UNL1        0.0029
     40 C           1.4913    4.4232   34.9228 C.ar    1  UNL1        0.0207
     41 C           0.5544    5.0746   33.9492 C.ar    1  UNL1        0.0986
     42 N           0.2739    4.4229   32.6277 N.ar    1  UNL1       -0.2445
@<TRIPOS>UNITY_ATOM_ATTR
20 1
charge -1
@<TRIPOS>BOND
     1    11    12    1
     2    12    13    1
     3    12    14    1
     4    12    10    1
     5    10     1    1
     6     1     2   ar
     7     2    15    1
     8    15    16    1
     9    16    17    1
    10    16    18    1
    11    16    19    1
    12    19    20   ar
    13    19    21   ar
    14     2     3   ar
    15     3    22    1
    16    22    23    1
    17    23    24   ar
    18    24    25   ar
    19    25    26   ar
    20    26    29    1
    21    29    30   ar
    22    30    31   ar
    23    31    32   ar
    24    32    33   ar
    25    33    34   ar
    26    26    27   ar
    27    27    28   ar
    28     3     4   ar
    29     4     5   ar
    30     5     6   ar
    31     6     7   ar
    32     7    35    1
    33    35    36    1
    34    36    37    1
    35    37    38   ar
    36    38    39   ar
    37    39    40   ar
    38    40    41   ar
    39    41    42   ar
    40     7     8   ar
    41     8     9   ar
    42     9     1   ar
    43    28    23   ar
    44     9     4   ar
    45    34    29   ar
    46    42    37   ar
