@<TRIPOS>MOLECULE
*****
 33 37 0 0 0
SMALL
GASTEIGER

@<TRIPOS>ATOM
      1 C          -0.0719    2.9393   19.6862 C.2     1  UNL1        0.1040
      2 N           0.8976    3.9425   19.1351 N.2     1  UNL1       -0.1483
      3 N           2.2022    3.2424   18.8942 N.2     1  UNL1       -0.1520
      4 C           2.0390    1.8066   19.2965 C.2     1  UNL1        0.0864
      5 C           2.9886    0.6456   19.2803 C.3     1  UNL1        0.0739
      6 C           2.5327   -0.7028   19.7535 C.2     1  UNL1       -0.0160
      7 C           1.1272   -0.8901   20.2430 C.2     1  UNL1       -0.0038
      8 C           0.1776    0.2709   20.2592 C.2     1  UNL1        0.0025
      9 C           0.6335    1.6193   19.7859 C.2     1  UNL1        0.0350
     10 C           3.4823   -1.8639   19.7374 C.2     1  UNL1        0.0007
     11 C           4.1052   -2.3411   21.0157 C.2     1  UNL1        0.0546
     12 C           5.0675   -3.4834   21.1548 C.2     1  UNL1        0.2495
     13 O           5.5757   -4.3489   20.0401 O.2     1  UNL1       -0.2698
     14 N           5.4323   -3.6082   22.6044 N.am    1  UNL1       -0.2804
     15 C           4.6955   -2.5430   23.3612 C.ar    1  UNL1        0.0506
     16 C           4.6655   -2.1851   24.8175 C.ar    1  UNL1        0.0147
     17 C           3.8152   -1.0440   25.2920 C.ar    1  UNL1        0.0013
     18 C           2.9950   -0.2609   24.3100 C.ar    1  UNL1        0.0001
     19 C           3.0251   -0.6189   22.8537 C.ar    1  UNL1        0.0014
     20 C           3.8753   -1.7600   22.3793 C.ar    1  UNL1        0.0179
     21 H           6.0473   -4.2725   22.9912 H       1  UNL1        0.1552
     22 C          -1.8855    3.2650   21.5179 C.2     1  UNL1        0.0016
     23 C          -1.4966    3.2088   20.0701 C.2     1  UNL1        0.0209
     24 C          -6.1597    4.0735   22.6697 C.ar    1  UNL1       -0.0061
     25 C          -5.1144    3.9110   23.7331 C.ar    1  UNL1       -0.0029
     26 C          -3.6896    3.6415   23.3491 C.ar    1  UNL1       -0.0003
     27 C          -3.3102    3.5345   21.9018 C.ar    1  UNL1        0.0000
     28 C          -4.3556    3.6971   20.8384 C.ar    1  UNL1       -0.0003
     29 C          -5.7803    3.9666   21.2224 C.ar    1  UNL1       -0.0029
     30 C          -7.5845    4.3430   23.0536 C.3     1  UNL1        0.0992
     31 C          -7.6507    6.8582   22.4057 C.3     1  UNL1        0.0899
     32 N          -8.0321    5.7462   23.3375 N.3     1  UNL1       -0.2665
     33 C          -8.8611    6.0376   24.5531 C.3     1  UNL1        0.0899
@<TRIPOS>BOND
     1    31    32    1
     2    32    33    1
     3    32    30    1
     4    30    24    1
     5    24    25   ar
     6    25    26   ar
     7    26    27   ar
     8    27    22    1
     9    22    23    2
    10    23     1    1
    11     1     2    2
    12     2     3    1
    13     3     4    2
    14     4     5    1
    15     5     6    1
    16     6    10    1
    17    10    11    2
    18    11    12    1
    19    12    13    2
    20    12    14   am
    21    14    15    1
    22    15    16   ar
    23    16    17   ar
    24    17    18   ar
    25    18    19   ar
    26    19    20   ar
    27     6     7    2
    28     7     8    1
    29     8     9    2
    30    27    28   ar
    31    28    29   ar
    32    29    24   ar
    33     9     1    1
    34     9     4    1
    35    20    11    1
    36    20    15   ar
    37    14    21    1
@<TRIPOS>MOLECULE
*****
 33 37 0 0 0
SMALL
GASTEIGER

@<TRIPOS>ATOM
      1 C         -15.5089    0.4748   18.5041 C.2     1  UNL1        0.1040
      2 N         -15.5578    0.6843   17.0196 N.2     1  UNL1       -0.1483
      3 N         -15.4917   -0.6609   16.3592 N.2     1  UNL1       -0.1520
      4 C         -15.4019   -1.7018   17.4356 C.2     1  UNL1        0.0864
      5 C         -15.3118   -3.1980   17.3799 C.3     1  UNL1        0.0739
      6 C         -15.2324   -3.9923   18.6498 C.2     1  UNL1       -0.0160
      7 C         -15.2430   -3.2904   19.9754 C.2     1  UNL1       -0.0038
      8 C         -15.3331   -1.7942   20.0311 C.2     1  UNL1        0.0025
      9 C         -15.4125   -0.9999   18.7612 C.2     1  UNL1        0.0350
     10 C         -15.1423   -5.4886   18.5941 C.2     1  UNL1        0.0007
     11 C         -13.8033   -6.1621   18.6520 C.2     1  UNL1        0.0546
     12 C         -13.5575   -7.6411   18.6070 C.2     1  UNL1        0.2495
     13 O         -14.6077   -8.7064   18.4962 O.2     1  UNL1       -0.2698
     14 N         -12.0772   -7.8678   18.6923 N.am    1  UNL1       -0.2804
     15 C         -11.4080   -6.5289   18.7900 C.ar    1  UNL1        0.0506
     16 C          -9.9652   -6.1336   18.8984 C.ar    1  UNL1        0.0147
     17 C          -9.5890   -4.6838   18.9820 C.ar    1  UNL1        0.0013
     18 C         -10.6558   -3.6295   18.9571 C.ar    1  UNL1        0.0001
     19 C         -12.0987   -4.0250   18.8487 C.ar    1  UNL1        0.0014
     20 C         -12.4748   -5.4747   18.7651 C.ar    1  UNL1        0.0179
     21 H         -11.6243   -8.7420   18.6853 H       1  UNL1        0.1552
     22 C         -16.6908    1.6112   20.5196 C.2     1  UNL1        0.0016
     23 C         -15.5492    1.5510   19.5482 C.2     1  UNL1        0.0209
     24 C         -16.8118    4.8397   23.6519 C.ar    1  UNL1       -0.0061
     25 C         -16.0053    5.0367   22.4026 C.ar    1  UNL1       -0.0029
     26 C         -15.9650    3.9605   21.3585 C.ar    1  UNL1       -0.0003
     27 C         -16.7311    2.6874   21.5637 C.ar    1  UNL1        0.0000
     28 C         -17.5376    2.4903   22.8129 C.ar    1  UNL1       -0.0003
     29 C         -17.5780    3.5665   23.8571 C.ar    1  UNL1       -0.0029
     30 C         -16.8522    5.9158   24.6961 C.3     1  UNL1        0.0992
     31 C         -14.8889    5.1973   26.2385 C.3     1  UNL1        0.0899
     32 N         -16.3090    5.6497   26.0687 N.3     1  UNL1       -0.2665
     33 C         -17.1856    5.8360   27.2714 C.3     1  UNL1        0.0899
@<TRIPOS>BOND
     1    31    32    1
     2    32    33    1
     3    32    30    1
     4    30    24    1
     5    24    25   ar
     6    25    26   ar
     7    26    27   ar
     8    27    22    1
     9    22    23    2
    10    23     1    1
    11     1     2    2
    12     2     3    1
    13     3     4    2
    14     4     5    1
    15     5     6    1
    16     6    10    1
    17    10    11    2
    18    11    12    1
    19    12    13    2
    20    12    14   am
    21    14    15    1
    22    15    16   ar
    23    16    17   ar
    24    17    18   ar
    25    18    19   ar
    26    19    20   ar
    27     6     7    2
    28     7     8    1
    29     8     9    2
    30    27    28   ar
    31    28    29   ar
    32    29    24   ar
    33     9     1    1
    34     9     4    1
    35    20    11    1
    36    20    15   ar
    37    14    21    1
@<TRIPOS>MOLECULE
*****
 33 37 0 0 0
SMALL
GASTEIGER

@<TRIPOS>ATOM
      1 C           8.2160   -5.0722   23.6098 C.2     1  UNL1        0.1040
      2 N           8.3134   -6.3424   22.8178 N.2     1  UNL1       -0.1483
      3 N           8.3116   -5.9820   21.3618 N.2     1  UNL1       -0.1520
      4 C           8.2131   -4.4891   21.2539 C.2     1  UNL1        0.0864
      5 C           8.1696   -3.5691   20.0700 C.3     1  UNL1        0.0739
      6 C           8.0670   -2.0868   20.2755 C.2     1  UNL1       -0.0160
      7 C           8.0079   -1.5246   21.6648 C.2     1  UNL1       -0.0038
      8 C           8.0514   -2.4446   22.8487 C.2     1  UNL1        0.0025
      9 C           8.1540   -3.9269   22.6432 C.2     1  UNL1        0.0350
     10 C           8.0234   -1.1667   19.0915 C.2     1  UNL1        0.0007
     11 C           6.7078   -0.6431   18.5966 C.2     1  UNL1        0.0546
     12 C           6.5084    0.2796   17.4310 C.2     1  UNL1        0.2495
     13 O           7.5895    0.8407   16.5555 O.2     1  UNL1       -0.2698
     14 N           5.0380    0.5428   17.2944 N.am    1  UNL1       -0.2804
     15 C           4.3286   -0.2172   18.3757 C.ar    1  UNL1        0.0506
     16 C           2.8764   -0.3366   18.7313 C.ar    1  UNL1        0.0147
     17 C           2.4560   -1.1889   19.8919 C.ar    1  UNL1        0.0013
     18 C           3.4881   -1.9219   20.6968 C.ar    1  UNL1        0.0001
     19 C           4.9404   -1.8025   20.3411 C.ar    1  UNL1        0.0014
     20 C           5.3607   -0.9502   19.1805 C.ar    1  UNL1        0.0179
     21 H           4.6131    1.1141   16.6144 H       1  UNL1        0.1552
     22 C           6.8883   -4.7102   25.8135 C.2     1  UNL1        0.0016
     23 C           8.1859   -4.9661   25.1057 C.2     1  UNL1        0.0209
     24 C           6.7979   -4.3917   30.3013 C.ar    1  UNL1       -0.0061
     25 C           6.5321   -3.1801   29.4580 C.ar    1  UNL1       -0.0029
     26 C           6.5622   -3.2863   27.9620 C.ar    1  UNL1       -0.0003
     27 C           6.8582   -4.6040   27.3095 C.ar    1  UNL1        0.0000
     28 C           7.1240   -5.8157   28.1528 C.ar    1  UNL1       -0.0003
     29 C           7.0939   -5.7095   29.6487 C.ar    1  UNL1       -0.0029
     30 C           6.7678   -4.2857   31.7972 C.3     1  UNL1        0.0992
     31 C           7.6179   -1.9936   32.6769 C.3     1  UNL1        0.0899
     32 N           6.4958   -2.9628   32.4499 N.3     1  UNL1       -0.2665
     33 C           5.1017   -2.6091   32.8757 C.3     1  UNL1        0.0899
@<TRIPOS>BOND
     1    31    32    1
     2    32    33    1
     3    32    30    1
     4    30    24    1
     5    24    25   ar
     6    25    26   ar
     7    26    27   ar
     8    27    22    1
     9    22    23    2
    10    23     1    1
    11     1     2    2
    12     2     3    1
    13     3     4    2
    14     4     5    1
    15     5     6    1
    16     6    10    1
    17    10    11    2
    18    11    12    1
    19    12    13    2
    20    12    14   am
    21    14    15    1
    22    15    16   ar
    23    16    17   ar
    24    17    18   ar
    25    18    19   ar
    26    19    20   ar
    27     6     7    2
    28     7     8    1
    29     8     9    2
    30    27    28   ar
    31    28    29   ar
    32    29    24   ar
    33     9     1    1
    34     9     4    1
    35    20    11    1
    36    20    15   ar
    37    14    21    1
@<TRIPOS>MOLECULE
*****
 33 37 0 0 0
SMALL
GASTEIGER

@<TRIPOS>ATOM
      1 C           0.2714    4.1952   19.2371 C.2     1  UNL1        0.1040
      2 N           0.6591    5.6424   19.1639 N.2     1  UNL1       -0.1483
      3 N          -0.4943    6.4572   19.6697 N.2     1  UNL1       -0.1520
      4 C          -1.5946    5.5137   20.0555 C.2     1  UNL1        0.0864
      5 C          -2.9664    5.7470   20.6158 C.3     1  UNL1        0.0739
      6 C          -3.8649    4.5821   20.9087 C.2     1  UNL1       -0.0160
      7 C          -3.3917    3.1841   20.6413 C.2     1  UNL1       -0.0038
      8 C          -2.0199    2.9508   20.0811 C.2     1  UNL1        0.0025
      9 C          -1.1214    4.1156   19.7882 C.2     1  UNL1        0.0350
     10 C          -5.2367    4.8154   21.4689 C.2     1  UNL1        0.0007
     11 C          -5.4779    4.6792   22.9431 C.2     1  UNL1        0.0546
     12 C          -6.7885    4.8806   23.6443 C.2     1  UNL1        0.2495
     13 O          -8.0879    5.2536   22.9946 O.2     1  UNL1       -0.2698
     14 N          -6.5714    4.6436   25.1095 N.am    1  UNL1       -0.2804
     15 C          -5.1267    4.2957   25.3138 C.ar    1  UNL1        0.0506
     16 C          -4.3393    3.9617   26.5460 C.ar    1  UNL1        0.0147
     17 C          -2.8760    3.6497   26.4394 C.ar    1  UNL1        0.0013
     18 C          -2.2001    3.6717   25.1004 C.ar    1  UNL1        0.0001
     19 C          -2.9876    4.0057   23.8681 C.ar    1  UNL1        0.0014
     20 C          -4.4509    4.3177   23.9749 C.ar    1  UNL1        0.0179
     21 H          -7.2569    4.7055   25.8135 H       1  UNL1        0.1552
     22 C           1.4463    1.9531   19.8229 C.2     1  UNL1        0.0016
     23 C           1.1265    3.0317   18.8307 C.2     1  UNL1        0.0209
     24 C           4.0115   -1.5372   18.6036 C.ar    1  UNL1       -0.0061
     25 C           3.0997   -1.6546   19.7888 C.ar    1  UNL1       -0.0029
     26 C           2.2446   -0.4911   20.1953 C.ar    1  UNL1       -0.0003
     27 C           2.3013    0.7896   19.4165 C.ar    1  UNL1        0.0000
     28 C           3.2131    0.9070   18.2313 C.ar    1  UNL1       -0.0003
     29 C           4.0682   -0.2565   17.8248 C.ar    1  UNL1       -0.0029
     30 C           4.8666   -2.7006   18.1971 C.3     1  UNL1        0.0992
     31 C           6.0843   -3.7937   20.2151 C.3     1  UNL1        0.0899
     32 N           5.0493   -3.8598   19.1314 N.3     1  UNL1       -0.2665
     33 C           4.1970   -5.0850   18.9822 C.3     1  UNL1        0.0899
@<TRIPOS>BOND
     1    31    32    1
     2    32    33    1
     3    32    30    1
     4    30    24    1
     5    24    25   ar
     6    25    26   ar
     7    26    27   ar
     8    27    22    1
     9    22    23    2
    10    23     1    1
    11     1     2    2
    12     2     3    1
    13     3     4    2
    14     4     5    1
    15     5     6    1
    16     6    10    1
    17    10    11    2
    18    11    12    1
    19    12    13    2
    20    12    14   am
    21    14    15    1
    22    15    16   ar
    23    16    17   ar
    24    17    18   ar
    25    18    19   ar
    26    19    20   ar
    27     6     7    2
    28     7     8    1
    29     8     9    2
    30    27    28   ar
    31    28    29   ar
    32    29    24   ar
    33     9     1    1
    34     9     4    1
    35    20    11    1
    36    20    15   ar
    37    14    21    1
@<TRIPOS>MOLECULE
*****
 33 37 0 0 0
SMALL
GASTEIGER

@<TRIPOS>ATOM
      1 C           0.3467    3.0349   23.3105 C.2     1  UNL1        0.1040
      2 N           0.6264    4.2431   22.4667 N.2     1  UNL1       -0.1483
      3 N          -0.2113    5.3743   22.9848 N.2     1  UNL1       -0.1520
      4 C          -1.0088    4.8653   24.1489 C.2     1  UNL1        0.0864
      5 C          -2.0044    5.5315   25.0515 C.3     1  UNL1        0.0739
      6 C          -2.6551    4.7519   26.1555 C.2     1  UNL1       -0.0160
      7 C          -2.3102    3.3060   26.3567 C.2     1  UNL1       -0.0038
      8 C          -1.3146    2.6398   25.4541 C.2     1  UNL1        0.0025
      9 C          -0.6639    3.4194   24.3501 C.2     1  UNL1        0.0350
     10 C          -3.6507    5.4181   27.0582 C.2     1  UNL1        0.0007
     11 C          -5.0807    5.5549   26.6264 C.2     1  UNL1        0.0546
     12 C          -6.1833    6.1938   27.4176 C.2     1  UNL1        0.2495
     13 O          -6.0496    6.8080   28.7795 O.2     1  UNL1       -0.2698
     14 N          -7.4432    6.1105   26.6078 N.am    1  UNL1       -0.2804
     15 C          -7.1192    5.4202   25.3160 C.ar    1  UNL1        0.0506
     16 C          -7.9651    5.0599   24.1309 C.ar    1  UNL1        0.0147
     17 C          -7.3509    4.3562   22.9572 C.ar    1  UNL1        0.0013
     18 C          -5.8907    4.0128   22.9687 C.ar    1  UNL1        0.0001
     19 C          -5.0448    4.3731   24.1539 C.ar    1  UNL1        0.0014
     20 C          -5.6591    5.0768   25.3276 C.ar    1  UNL1        0.0179
     21 H          -8.3275    6.4494   26.8768 H       1  UNL1        0.1552
     22 C           1.9948    1.4522   22.0739 C.2     1  UNL1        0.0016
     23 C           0.9684    1.6800   23.1439 C.2     1  UNL1        0.0209
     24 C           3.8600   -2.6124   21.5742 C.ar    1  UNL1       -0.0061
     25 C           3.2189   -1.9321   20.4011 C.ar    1  UNL1       -0.0029
     26 C           2.5971   -0.5772   20.5677 C.ar    1  UNL1       -0.0003
     27 C           2.6165    0.0973   21.9073 C.ar    1  UNL1        0.0000
     28 C           3.2576   -0.5829   23.0804 C.ar    1  UNL1       -0.0003
     29 C           3.8794   -1.9378   22.9138 C.ar    1  UNL1       -0.0029
     30 C           4.4817   -3.9673   21.4077 C.3     1  UNL1        0.0992
     31 C           4.7791   -4.9514   19.0217 C.3     1  UNL1        0.0899
     32 N           5.3513   -4.2525   20.2192 N.3     1  UNL1       -0.2665
     33 C           6.7930   -3.8388   20.2282 C.3     1  UNL1        0.0899
@<TRIPOS>BOND
     1    31    32    1
     2    32    33    1
     3    32    30    1
     4    30    24    1
     5    24    25   ar
     6    25    26   ar
     7    26    27   ar
     8    27    22    1
     9    22    23    2
    10    23     1    1
    11     1     2    2
    12     2     3    1
    13     3     4    2
    14     4     5    1
    15     5     6    1
    16     6    10    1
    17    10    11    2
    18    11    12    1
    19    12    13    2
    20    12    14   am
    21    14    15    1
    22    15    16   ar
    23    16    17   ar
    24    17    18   ar
    25    18    19   ar
    26    19    20   ar
    27     6     7    2
    28     7     8    1
    29     8     9    2
    30    27    28   ar
    31    28    29   ar
    32    29    24   ar
    33     9     1    1
    34     9     4    1
    35    20    11    1
    36    20    15   ar
    37    14    21    1
@<TRIPOS>MOLECULE
*****
 33 37 0 0 0
SMALL
GASTEIGER

@<TRIPOS>ATOM
      1 C         -16.1553   -0.1023   19.2636 C.2     1  UNL1        0.1040
      2 N         -16.6138    0.1253   17.8536 N.2     1  UNL1       -0.1483
      3 N         -16.0333   -0.9603   16.9966 N.2     1  UNL1       -0.1520
      4 C         -15.2161   -1.8588   17.8768 C.2     1  UNL1        0.0864
      5 C         -14.4131   -3.0913   17.5836 C.3     1  UNL1        0.0739
      6 C         -13.6855   -3.7935   18.6914 C.2     1  UNL1       -0.0160
      7 C         -13.7609   -3.2633   20.0925 C.2     1  UNL1       -0.0038
      8 C         -14.5639   -2.0308   20.3858 C.2     1  UNL1        0.0025
      9 C         -15.2915   -1.3285   19.2780 C.2     1  UNL1        0.0350
     10 C         -12.8824   -5.0261   18.3982 C.2     1  UNL1        0.0007
     11 C         -13.5137   -6.3807   18.5266 C.2     1  UNL1        0.0546
     12 C         -12.8397   -7.6956   18.2682 C.2     1  UNL1        0.2495
     13 O         -11.4161   -7.8867   17.8359 O.2     1  UNL1       -0.2698
     14 N         -13.8392   -8.7858   18.5179 N.am    1  UNL1       -0.2804
     15 C         -15.1310   -8.1447   18.9306 C.ar    1  UNL1        0.0506
     16 C         -16.4644   -8.7225   19.3022 C.ar    1  UNL1        0.0147
     17 C         -17.5968   -7.8138   19.6793 C.ar    1  UNL1        0.0013
     18 C         -17.3956   -6.3273   19.6847 C.ar    1  UNL1        0.0001
     19 C         -16.0621   -5.7496   19.3130 C.ar    1  UNL1        0.0014
     20 C         -14.9298   -6.6583   18.9360 C.ar    1  UNL1        0.0179
     21 H         -13.6760   -9.7524   18.4268 H       1  UNL1        0.1552
     22 C         -16.3577    2.2385   20.3728 C.2     1  UNL1        0.0016
     23 C         -16.5001    0.7472   20.4508 C.2     1  UNL1        0.0209
     24 C         -17.3920    4.7868   23.9344 C.ar    1  UNL1       -0.0061
     25 C         -16.7082    5.3986   22.7478 C.ar    1  UNL1       -0.0029
     26 C         -16.3634    4.5491   21.5606 C.ar    1  UNL1       -0.0003
     27 C         -16.7024    3.0879   21.5600 C.ar    1  UNL1        0.0000
     28 C         -17.3862    2.4762   22.7466 C.ar    1  UNL1       -0.0003
     29 C         -17.7310    3.3257   23.9339 C.ar    1  UNL1       -0.0029
     30 C         -17.7368    5.6363   25.1217 C.3     1  UNL1        0.0992
     31 C         -17.4533    5.8451   27.6958 C.3     1  UNL1        0.0899
     32 N         -16.8587    5.6175   26.3377 N.3     1  UNL1       -0.2665
     33 C         -15.3859    5.3712   26.1955 C.3     1  UNL1        0.0899
@<TRIPOS>BOND
     1    31    32    1
     2    32    33    1
     3    32    30    1
     4    30    24    1
     5    24    25   ar
     6    25    26   ar
     7    26    27   ar
     8    27    22    1
     9    22    23    2
    10    23     1    1
    11     1     2    2
    12     2     3    1
    13     3     4    2
    14     4     5    1
    15     5     6    1
    16     6    10    1
    17    10    11    2
    18    11    12    1
    19    12    13    2
    20    12    14   am
    21    14    15    1
    22    15    16   ar
    23    16    17   ar
    24    17    18   ar
    25    18    19   ar
    26    19    20   ar
    27     6     7    2
    28     7     8    1
    29     8     9    2
    30    27    28   ar
    31    28    29   ar
    32    29    24   ar
    33     9     1    1
    34     9     4    1
    35    20    11    1
    36    20    15   ar
    37    14    21    1
@<TRIPOS>MOLECULE
*****
 33 37 0 0 0
SMALL
GASTEIGER

@<TRIPOS>ATOM
      1 C          -1.8724    4.5004   19.1217 C.2     1  UNL1        0.1040
      2 N          -1.7699    5.9222   18.6547 N.2     1  UNL1       -0.1483
      3 N          -2.9598    6.6694   19.1800 N.2     1  UNL1       -0.1520
      4 C          -3.7976    5.7095   19.9715 C.2     1  UNL1        0.0864
      5 C          -5.0857    5.8828   20.7204 C.3     1  UNL1        0.0739
      6 C          -5.7016    4.7157   21.4333 C.2     1  UNL1       -0.0160
      7 C          -5.0295    3.3751   21.3973 C.2     1  UNL1       -0.0038
      8 C          -3.7415    3.2018   20.6484 C.2     1  UNL1        0.0025
      9 C          -3.1256    4.3689   19.9355 C.2     1  UNL1        0.0350
     10 C          -6.9897    4.8890   22.1822 C.2     1  UNL1        0.0007
     11 C          -6.9686    5.2770   23.6310 C.2     1  UNL1        0.0546
     12 C          -8.1693    5.4857   24.5054 C.2     1  UNL1        0.2495
     13 O          -9.6020    5.3431   24.0847 O.2     1  UNL1       -0.2698
     14 N          -7.6858    5.8621   25.8746 N.am    1  UNL1       -0.2804
     15 C          -6.1862    5.8860   25.8463 C.ar    1  UNL1        0.0506
     16 C          -5.1672    6.1903   26.9041 C.ar    1  UNL1        0.0147
     17 C          -3.7048    6.1331   26.5752 C.ar    1  UNL1        0.0013
     18 C          -3.2615    5.7714   25.1885 C.ar    1  UNL1        0.0001
     19 C          -4.2806    5.4671   24.1308 C.ar    1  UNL1        0.0014
     20 C          -5.7430    5.5244   24.4597 C.ar    1  UNL1        0.0179
     21 H          -8.2531    6.0589   26.6548 H       1  UNL1        0.1552
     22 C          -0.2348    2.6626   19.9529 C.2     1  UNL1        0.0016
     23 C          -0.8935    3.4028   18.8267 C.2     1  UNL1        0.0209
     24 C           2.7018   -0.6302   19.0679 C.ar    1  UNL1       -0.0061
     25 C           2.8956    0.7295   18.4649 C.ar    1  UNL1       -0.0029
     26 C           1.9167    1.8271   18.7599 C.ar    1  UNL1       -0.0003
     27 C           0.7441    1.5650   19.6579 C.ar    1  UNL1        0.0000
     28 C           0.5503    0.2053   20.2609 C.ar    1  UNL1       -0.0003
     29 C           1.5292   -0.8923   19.9659 C.ar    1  UNL1       -0.0029
     30 C           3.6806   -1.7280   18.7729 C.3     1  UNL1        0.0992
     31 C           4.3195   -2.6474   21.1174 C.3     1  UNL1        0.0899
     32 N           3.8225   -2.8812   19.7216 N.3     1  UNL1       -0.2665
     33 C           3.4673   -4.2682   19.2745 C.3     1  UNL1        0.0899
@<TRIPOS>BOND
     1    31    32    1
     2    32    33    1
     3    32    30    1
     4    30    24    1
     5    24    25   ar
     6    25    26   ar
     7    26    27   ar
     8    27    22    1
     9    22    23    2
    10    23     1    1
    11     1     2    2
    12     2     3    1
    13     3     4    2
    14     4     5    1
    15     5     6    1
    16     6    10    1
    17    10    11    2
    18    11    12    1
    19    12    13    2
    20    12    14   am
    21    14    15    1
    22    15    16   ar
    23    16    17   ar
    24    17    18   ar
    25    18    19   ar
    26    19    20   ar
    27     6     7    2
    28     7     8    1
    29     8     9    2
    30    27    28   ar
    31    28    29   ar
    32    29    24   ar
    33     9     1    1
    34     9     4    1
    35    20    11    1
    36    20    15   ar
    37    14    21    1
@<TRIPOS>MOLECULE
*****
 33 37 0 0 0
SMALL
GASTEIGER

@<TRIPOS>ATOM
      1 C           0.0680    2.2532   22.4980 C.2     1  UNL1        0.1040
      2 N          -0.9386    2.4525   21.4039 N.2     1  UNL1       -0.1483
      3 N          -0.6595    1.4451   20.3282 N.2     1  UNL1       -0.1520
      4 C           0.5196    0.6232   20.7574 C.2     1  UNL1        0.0864
      5 C           1.2419   -0.5154   20.1004 C.3     1  UNL1        0.0739
      6 C           2.4139   -1.1546   20.7844 C.2     1  UNL1       -0.0160
      7 C           2.8635   -0.6551   22.1254 C.2     1  UNL1       -0.0038
      8 C           2.1412    0.4835   22.7824 C.2     1  UNL1        0.0025
      9 C           0.9692    1.1227   22.0984 C.2     1  UNL1        0.0350
     10 C           3.1363   -2.2933   20.1274 C.2     1  UNL1        0.0007
     11 C           4.2747   -2.0183   19.1902 C.2     1  UNL1        0.0546
     12 C           5.0869   -3.0488   18.4633 C.2     1  UNL1        0.2495
     13 O           4.9033   -4.5352   18.5460 O.2     1  UNL1       -0.2698
     14 N           6.1150   -2.3320   17.6392 N.am    1  UNL1       -0.2804
     15 C           5.9381   -0.8583   17.8567 C.ar    1  UNL1        0.0506
     16 C           6.6658    0.3319   17.3057 C.ar    1  UNL1        0.0147
     17 C           6.2562    1.7162   17.7133 C.ar    1  UNL1        0.0013
     18 C           5.1188    1.9100   18.6719 C.ar    1  UNL1        0.0001
     19 C           4.3911    0.7197   19.2228 C.ar    1  UNL1        0.0014
     20 C           4.8008   -0.6645   18.8152 C.ar    1  UNL1        0.0179
     21 H           6.7877   -2.7545   17.0576 H       1  UNL1        0.1552
     22 C          -0.0204    2.3626   25.0923 C.2     1  UNL1        0.0016
     23 C           0.1577    3.0454   23.7686 C.2     1  UNL1        0.0209
     24 C           0.2486    4.7390   28.9040 C.ar    1  UNL1       -0.0061
     25 C          -0.1679    5.4109   27.6293 C.ar    1  UNL1       -0.0029
     26 C          -0.2575    4.6187   26.3587 C.ar    1  UNL1       -0.0003
     27 C           0.0693    3.1547   26.3629 C.ar    1  UNL1        0.0000
     28 C           0.4858    2.4829   27.6377 C.ar    1  UNL1       -0.0003
     29 C           0.5755    3.2751   28.9083 C.ar    1  UNL1       -0.0029
     30 C           0.3384    5.5312   30.1747 C.3     1  UNL1        0.0992
     31 C           2.3641    4.8156   31.6357 C.3     1  UNL1        0.0899
     32 N           0.8818    4.8937   31.4190 N.3     1  UNL1       -0.2665
     33 C          -0.0568    4.3344   32.4466 C.3     1  UNL1        0.0899
@<TRIPOS>BOND
     1    31    32    1
     2    32    33    1
     3    32    30    1
     4    30    24    1
     5    24    25   ar
     6    25    26   ar
     7    26    27   ar
     8    27    22    1
     9    22    23    2
    10    23     1    1
    11     1     2    2
    12     2     3    1
    13     3     4    2
    14     4     5    1
    15     5     6    1
    16     6    10    1
    17    10    11    2
    18    11    12    1
    19    12    13    2
    20    12    14   am
    21    14    15    1
    22    15    16   ar
    23    16    17   ar
    24    17    18   ar
    25    18    19   ar
    26    19    20   ar
    27     6     7    2
    28     7     8    1
    29     8     9    2
    30    27    28   ar
    31    28    29   ar
    32    29    24   ar
    33     9     1    1
    34     9     4    1
    35    20    11    1
    36    20    15   ar
    37    14    21    1
@<TRIPOS>MOLECULE
*****
 33 37 0 0 0
SMALL
GASTEIGER

@<TRIPOS>ATOM
      1 C           4.8182   -3.5106   21.7699 C.2     1  UNL1        0.1040
      2 N           5.0705   -4.2473   20.4879 N.2     1  UNL1       -0.1483
      3 N           4.3004   -3.5603   19.3993 N.2     1  UNL1       -0.1520
      4 C           3.5721   -2.3991   20.0086 C.2     1  UNL1        0.0864
      5 C           2.6589   -1.3657   19.4186 C.3     1  UNL1        0.0739
      6 C           2.0658   -0.3017   20.2937 C.2     1  UNL1       -0.0160
      7 C           2.3858   -0.2709   21.7588 C.2     1  UNL1       -0.0038
      8 C           3.2990   -1.3043   22.3488 C.2     1  UNL1        0.0025
      9 C           3.8922   -2.3684   21.4737 C.2     1  UNL1        0.0350
     10 C           1.1525    0.7318   19.7037 C.2     1  UNL1        0.0007
     11 C           1.7258    1.9559   19.0535 C.2     1  UNL1        0.0546
     12 C           0.9419    3.0690   18.4238 C.2     1  UNL1        0.2495
     13 O          -0.5530    3.1534   18.3339 O.2     1  UNL1       -0.2698
     14 N           1.9153    4.0828   17.9000 N.am    1  UNL1       -0.2804
     15 C           3.3009    3.5964   18.2058 C.ar    1  UNL1        0.0506
     16 C           4.6540    4.1806   17.9272 C.ar    1  UNL1        0.0147
     17 C           5.8902    3.4502   18.3615 C.ar    1  UNL1        0.0013
     18 C           5.7731    2.1356   19.0745 C.ar    1  UNL1        0.0001
     19 C           4.4198    1.5514   19.3530 C.ar    1  UNL1        0.0014
     20 C           3.1838    2.2818   18.9187 C.ar    1  UNL1        0.0179
     21 H           1.6852    4.9205   17.4367 H       1  UNL1        0.1552
     22 C           6.8099   -4.3309   23.2228 C.2     1  UNL1        0.0016
     23 C           5.3914   -3.8556   23.1125 C.2     1  UNL1        0.0209
     24 C           8.5293   -5.3658   27.2504 C.ar    1  UNL1       -0.0061
     25 C           8.3708   -6.4311   26.2065 C.ar    1  UNL1       -0.0029
     26 C           7.7976   -6.0862   24.8639 C.ar    1  UNL1       -0.0003
     27 C           7.3831   -4.6759   24.5653 C.ar    1  UNL1        0.0000
     28 C           7.5416   -3.6105   25.6092 C.ar    1  UNL1       -0.0003
     29 C           8.1147   -3.9555   26.9518 C.ar    1  UNL1       -0.0029
     30 C           9.1025   -5.7107   28.5930 C.3     1  UNL1        0.0992
     31 C           9.1405   -4.3950   30.8330 C.3     1  UNL1        0.0899
     32 N           8.4109   -5.2542   29.8434 N.3     1  UNL1       -0.2665
     33 C           6.9897   -5.6568   30.1041 C.3     1  UNL1        0.0899
@<TRIPOS>BOND
     1    31    32    1
     2    32    33    1
     3    32    30    1
     4    30    24    1
     5    24    25   ar
     6    25    26   ar
     7    26    27   ar
     8    27    22    1
     9    22    23    2
    10    23     1    1
    11     1     2    2
    12     2     3    1
    13     3     4    2
    14     4     5    1
    15     5     6    1
    16     6    10    1
    17    10    11    2
    18    11    12    1
    19    12    13    2
    20    12    14   am
    21    14    15    1
    22    15    16   ar
    23    16    17   ar
    24    17    18   ar
    25    18    19   ar
    26    19    20   ar
    27     6     7    2
    28     7     8    1
    29     8     9    2
    30    27    28   ar
    31    28    29   ar
    32    29    24   ar
    33     9     1    1
    34     9     4    1
    35    20    11    1
    36    20    15   ar
    37    14    21    1
