@<TRIPOS>MOLECULE
*****
 26 29 0 0 0
SMALL
GASTEIGER

@<TRIPOS>ATOM
      1 C          -6.8764  -20.2304   20.9837 C.ar    1  UNL1        0.1385
      2 C          -7.2513  -20.5828   22.3927 C.ar    1  UNL1        0.0384
      3 C          -8.5256  -20.0567   22.9837 C.ar    1  UNL1        0.0203
      4 C          -9.4250  -19.1780   22.1657 C.ar    1  UNL1        0.0602
      5 C          -9.0501  -18.8256   20.7567 C.ar    1  UNL1        0.0204
      6 C          -7.7759  -19.3518   20.1657 C.ar    1  UNL1        0.0384
      7 C         -10.1279  -17.9453   20.1967 C.ar    1  UNL1        0.0233
      8 C         -11.1688  -17.7537   21.2596 C.ar    1  UNL1        0.1140
      9 N         -10.7345  -18.5156   22.4765 N.ar    1  UNL1       -0.3238
     10 C         -11.5873  -18.5077   23.7104 C.3     1  UNL1        0.1052
     11 C         -11.1530  -19.2695   24.9273 C.3     1  UNL1        0.0263
     12 C         -12.8746  -17.7379   23.7273 C.3     1  UNL1        0.1122
     13 N         -13.3090  -16.9760   22.5104 N.am    1  UNL1       -0.2978
     14 C         -12.4561  -16.9840   21.2765 C.2     1  UNL1        0.2618
     15 O         -12.8905  -16.2221   20.0596 O.2     1  UNL1       -0.2686
     16 H         -14.1539  -16.4708   22.5216 H       1  UNL1        0.1498
     17 O          -5.6021  -20.7566   20.3927 O.3     1  UNL1       -0.4791
     18 N          -1.8992  -18.1996   20.3896 N.3     1  UNL1       -0.2737
     19 C          -2.9071  -18.0612   19.2873 C.3     1  UNL1        0.0758
     20 C          -4.1414  -18.9135   19.2884 C.3     1  UNL1        0.0609
     21 C          -4.3678  -19.9043   20.3916 C.3     1  UNL1        0.1687
     22 C          -3.3598  -20.0427   21.4939 C.3     1  UNL1        0.0609
     23 C          -2.1256  -19.1903   21.4928 C.3     1  UNL1        0.0758
     24 C           0.6223  -17.8921   19.8442 C.3     1  UNL1        0.0173
     25 C          -0.6649  -17.3473   20.3885 C.3     1  UNL1        0.0576
     26 C          -0.7178  -15.9501   20.9318 C.3     1  UNL1        0.0173
@<TRIPOS>BOND
     1    24    25    1
     2    25    26    1
     3    25    18    1
     4    18    19    1
     5    19    20    1
     6    20    21    1
     7    21    17    1
     8    17     1    1
     9     1     2   ar
    10     2     3   ar
    11     3     4   ar
    12     4     5   ar
    13     5     6   ar
    14     5     7   ar
    15     7     8   ar
    16     8     9   ar
    17     9    10    1
    18    10    11    1
    19    10    12    1
    20    12    13    1
    21    13    14   am
    22    14    15    2
    23    21    22    1
    24    22    23    1
    25    23    18    1
    26     6     1   ar
    27    14     8    1
    28     9     4   ar
    29    13    16    1
@<TRIPOS>MOLECULE
*****
 26 29 0 0 0
SMALL
GASTEIGER

@<TRIPOS>ATOM
      1 C          -6.7227  -20.2425   21.0089 C.ar    1  UNL1        0.1385
      2 C          -7.3590  -19.5375   19.8479 C.ar    1  UNL1        0.0384
      3 C          -8.7128  -18.9103   20.0018 C.ar    1  UNL1        0.0203
      4 C          -9.4304  -18.9882   21.3167 C.ar    1  UNL1        0.0602
      5 C          -8.7941  -19.6932   22.4778 C.ar    1  UNL1        0.0204
      6 C          -7.4402  -20.3203   22.3239 C.ar    1  UNL1        0.0384
      7 C          -9.7349  -19.6095   23.6430 C.ar    1  UNL1        0.0233
      8 C         -10.9527  -18.8527   23.2022 C.ar    1  UNL1        0.1140
      9 N         -10.7645  -18.4687   21.7644 N.ar    1  UNL1       -0.3238
     10 C         -11.8322  -17.6957   21.0487 C.3     1  UNL1        0.1052
     11 C         -11.6440  -17.3117   19.6110 C.3     1  UNL1        0.0263
     12 C         -13.0881  -17.3066   21.7707 C.3     1  UNL1        0.1122
     13 N         -13.2763  -17.6906   23.2084 N.am    1  UNL1       -0.2978
     14 C         -12.2085  -18.4636   23.9242 C.2     1  UNL1        0.2618
     15 O         -12.3967  -18.8476   25.3620 O.2     1  UNL1       -0.2686
     16 H         -14.1006  -17.4352   23.6823 H       1  UNL1        0.1498
     17 O          -5.3687  -20.8696   20.8551 O.3     1  UNL1       -0.4791
     18 N          -1.7112  -18.2709   20.5106 N.3     1  UNL1       -0.2737
     19 C          -2.5066  -18.6124   19.2856 C.3     1  UNL1        0.0758
     20 C          -3.7258  -19.4787   19.4004 C.3     1  UNL1        0.0609
     21 C          -4.1496  -20.0034   20.7402 C.3     1  UNL1        0.1687
     22 C          -3.3541  -19.6618   21.9653 C.3     1  UNL1        0.0609
     23 C          -2.1350  -18.7955   21.8504 C.3     1  UNL1        0.0758
     24 C          -0.5705  -15.9488   20.7486 C.3     1  UNL1        0.0173
     25 C          -0.4921  -17.4046   20.3958 C.3     1  UNL1        0.0576
     26 C           0.8056  -17.9942   19.9282 C.3     1  UNL1        0.0173
@<TRIPOS>BOND
     1    24    25    1
     2    25    26    1
     3    25    18    1
     4    18    19    1
     5    19    20    1
     6    20    21    1
     7    21    17    1
     8    17     1    1
     9     1     2   ar
    10     2     3   ar
    11     3     4   ar
    12     4     5   ar
    13     5     6   ar
    14     5     7   ar
    15     7     8   ar
    16     8     9   ar
    17     9    10    1
    18    10    11    1
    19    10    12    1
    20    12    13    1
    21    13    14   am
    22    14    15    2
    23    21    22    1
    24    22    23    1
    25    23    18    1
    26     6     1   ar
    27    14     8    1
    28     9     4   ar
    29    13    16    1
@<TRIPOS>MOLECULE
*****
 26 29 0 0 0
SMALL
GASTEIGER

@<TRIPOS>ATOM
      1 C           7.7366   -4.0038   25.4830 C.ar    1  UNL1        0.1385
      2 C           7.2673   -2.6663   25.9735 C.ar    1  UNL1        0.0384
      3 C           6.9067   -2.4815   27.4178 C.ar    1  UNL1        0.0203
      4 C           7.0155   -3.6342   28.3714 C.ar    1  UNL1        0.0602
      5 C           7.4848   -4.9717   27.8808 C.ar    1  UNL1        0.0204
      6 C           7.8453   -5.1565   26.4366 C.ar    1  UNL1        0.0384
      7 C           7.4915   -5.9164   29.0459 C.ar    1  UNL1        0.0233
      8 C           7.0264   -5.1628   30.2566 C.ar    1  UNL1        0.1140
      9 N           6.7322   -3.7522   29.8397 N.ar    1  UNL1       -0.3238
     10 C           6.2443   -2.7576   30.8509 C.3     1  UNL1        0.1052
     11 C           5.9501   -1.3471   30.4341 C.3     1  UNL1        0.0263
     12 C           6.0507   -3.1735   32.2791 C.3     1  UNL1        0.1122
     13 N           6.3449   -4.5841   32.6959 N.am    1  UNL1       -0.2978
     14 C           6.8328   -5.5787   31.6846 C.2     1  UNL1        0.2618
     15 O           7.1270   -6.9893   32.1015 O.2     1  UNL1       -0.2686
     16 H           6.2178   -4.8570   33.6332 H       1  UNL1        0.1498
     17 O           8.0971   -4.1887   24.0387 O.3     1  UNL1       -0.4791
     18 N           4.9669   -3.6485   20.8512 N.3     1  UNL1       -0.2737
     19 C           6.4056   -3.8282   20.4667 C.3     1  UNL1        0.0758
     20 C           7.4491   -4.0083   21.5292 C.3     1  UNL1        0.0609
     21 C           7.0538   -4.0086   22.9762 C.3     1  UNL1        0.1687
     22 C           5.6150   -3.8289   23.3607 C.3     1  UNL1        0.0609
     23 C           4.5716   -3.6488   22.2982 C.3     1  UNL1        0.0758
     24 C           3.3787   -4.6625   19.0626 C.3     1  UNL1        0.0173
     25 C           3.9236   -3.4684   19.7887 C.3     1  UNL1        0.0576
     26 C           3.4251   -2.0942   19.4523 C.3     1  UNL1        0.0173
@<TRIPOS>BOND
     1    24    25    1
     2    25    26    1
     3    25    18    1
     4    18    19    1
     5    19    20    1
     6    20    21    1
     7    21    17    1
     8    17     1    1
     9     1     2   ar
    10     2     3   ar
    11     3     4   ar
    12     4     5   ar
    13     5     6   ar
    14     5     7   ar
    15     7     8   ar
    16     8     9   ar
    17     9    10    1
    18    10    11    1
    19    10    12    1
    20    12    13    1
    21    13    14   am
    22    14    15    2
    23    21    22    1
    24    22    23    1
    25    23    18    1
    26     6     1   ar
    27    14     8    1
    28     9     4   ar
    29    13    16    1
@<TRIPOS>MOLECULE
*****
 26 29 0 0 0
SMALL
GASTEIGER

@<TRIPOS>ATOM
      1 C           7.3375   -3.5788   21.3708 C.ar    1  UNL1        0.1385
      2 C           8.2520   -4.7602   21.2371 C.ar    1  UNL1        0.0384
      3 C           8.5106   -5.6460   22.4196 C.ar    1  UNL1        0.0203
      4 C           7.8546   -5.3505   23.7358 C.ar    1  UNL1        0.0602
      5 C           6.9401   -4.1692   23.8695 C.ar    1  UNL1        0.0204
      6 C           6.6815   -3.2833   22.6870 C.ar    1  UNL1        0.0384
      7 C           6.4393   -4.1283   25.2829 C.ar    1  UNL1        0.0233
      8 C           7.0443   -5.2844   26.0227 C.ar    1  UNL1        0.1140
      9 N           7.9191   -6.0398   25.0666 N.ar    1  UNL1       -0.3238
     10 C           8.6612   -7.2577   25.5312 C.3     1  UNL1        0.1052
     11 C           9.5360   -8.0131   24.5751 C.3     1  UNL1        0.0263
     12 C           8.5287   -7.7202   26.9519 C.3     1  UNL1        0.1122
     13 N           7.6539   -6.9648   27.9080 N.am    1  UNL1       -0.2978
     14 C           6.9117   -5.7469   27.4434 C.2     1  UNL1        0.2618
     15 O           6.0370   -4.9914   28.3996 O.2     1  UNL1       -0.2686
     16 H           7.5669   -7.2683   28.8405 H       1  UNL1        0.1498
     17 O           7.0789   -2.6929   20.1883 O.3     1  UNL1       -0.4791
     18 N           3.0395   -0.7848   19.6471 N.3     1  UNL1       -0.2737
     19 C           4.2404    0.0686   19.9288 C.3     1  UNL1        0.0758
     20 C           5.5869   -0.5674   20.1093 C.3     1  UNL1        0.0609
     21 C           5.7324   -2.0569   20.0079 C.3     1  UNL1        0.1687
     22 C           4.5315   -2.9103   19.7261 C.3     1  UNL1        0.0609
     23 C           3.1850   -2.2743   19.5457 C.3     1  UNL1        0.0758
     24 C           1.4216    0.7038   18.2628 C.3     1  UNL1        0.0173
     25 C           1.6931   -0.1488   19.4666 C.3     1  UNL1        0.0576
     26 C           0.6181   -0.3654   20.4901 C.3     1  UNL1        0.0173
@<TRIPOS>BOND
     1    24    25    1
     2    25    26    1
     3    25    18    1
     4    18    19    1
     5    19    20    1
     6    20    21    1
     7    21    17    1
     8    17     1    1
     9     1     2   ar
    10     2     3   ar
    11     3     4   ar
    12     4     5   ar
    13     5     6   ar
    14     5     7   ar
    15     7     8   ar
    16     8     9   ar
    17     9    10    1
    18    10    11    1
    19    10    12    1
    20    12    13    1
    21    13    14   am
    22    14    15    2
    23    21    22    1
    24    22    23    1
    25    23    18    1
    26     6     1   ar
    27    14     8    1
    28     9     4   ar
    29    13    16    1
@<TRIPOS>MOLECULE
*****
 26 29 0 0 0
SMALL
GASTEIGER

@<TRIPOS>ATOM
      1 C         -14.7414   -4.5913   19.9827 C.ar    1  UNL1        0.1385
      2 C         -16.2157   -4.3169   19.9517 C.ar    1  UNL1        0.0384
      3 C         -17.1768   -5.4190   19.6178 C.ar    1  UNL1        0.0203
      4 C         -16.6636   -6.7955   19.3148 C.ar    1  UNL1        0.0602
      5 C         -15.1893   -7.0700   19.3458 C.ar    1  UNL1        0.0204
      6 C         -14.2282   -5.9679   19.6798 C.ar    1  UNL1        0.0384
      7 C         -14.9797   -8.5158   19.0057 C.ar    1  UNL1        0.0233
      8 C         -16.3245   -9.1349   18.7645 C.ar    1  UNL1        0.1140
      9 N         -17.3653   -8.0718   18.9555 N.ar    1  UNL1       -0.3238
     10 C         -18.8173   -8.4031   18.7776 C.3     1  UNL1        0.1052
     11 C         -19.8580   -7.3399   18.9687 C.3     1  UNL1        0.0263
     12 C         -19.2287   -9.7976   18.4087 C.3     1  UNL1        0.1122
     13 N         -18.1879  -10.8607   18.2176 N.am    1  UNL1       -0.2978
     14 C         -16.7358  -10.5294   18.3955 C.2     1  UNL1        0.2618
     15 O         -15.6950  -11.5926   18.2045 O.2     1  UNL1       -0.2686
     16 H         -18.4579  -11.7760   17.9755 H       1  UNL1        0.1498
     17 O         -13.7801   -3.4892   20.3167 O.3     1  UNL1       -0.4791
     18 N         -13.7252    0.2731   17.8485 N.3     1  UNL1       -0.2737
     19 C         -12.5167   -0.6146   17.8897 C.3     1  UNL1        0.0758
     20 C         -12.5350   -1.8687   18.7124 C.3     1  UNL1        0.0609
     21 C         -13.7618   -2.2351   19.4940 C.3     1  UNL1        0.1687
     22 C         -14.9703   -1.3474   19.4528 C.3     1  UNL1        0.0609
     23 C         -14.9519   -0.0933   18.6301 C.3     1  UNL1        0.0758
     24 C         -12.4884    1.8817   16.2259 C.3     1  UNL1        0.0173
     25 C         -13.7068    1.5272   17.0258 C.3     1  UNL1        0.0576
     26 C         -14.9069    2.4268   17.0030 C.3     1  UNL1        0.0173
@<TRIPOS>BOND
     1    24    25    1
     2    25    26    1
     3    25    18    1
     4    18    19    1
     5    19    20    1
     6    20    21    1
     7    21    17    1
     8    17     1    1
     9     1     2   ar
    10     2     3   ar
    11     3     4   ar
    12     4     5   ar
    13     5     6   ar
    14     5     7   ar
    15     7     8   ar
    16     8     9   ar
    17     9    10    1
    18    10    11    1
    19    10    12    1
    20    12    13    1
    21    13    14   am
    22    14    15    2
    23    21    22    1
    24    22    23    1
    25    23    18    1
    26     6     1   ar
    27    14     8    1
    28     9     4   ar
    29    13    16    1
@<TRIPOS>MOLECULE
*****
 26 29 0 0 0
SMALL
GASTEIGER

@<TRIPOS>ATOM
      1 C           2.2721    1.3094   23.0813 C.ar    1  UNL1        0.1385
      2 C           2.7222    0.0251   23.7122 C.ar    1  UNL1        0.0384
      3 C           3.2829   -1.0736   22.8587 C.ar    1  UNL1        0.0203
      4 C           3.3936   -0.8880   21.3744 C.ar    1  UNL1        0.0602
      5 C           2.9435    0.3962   20.7435 C.ar    1  UNL1        0.0204
      6 C           2.3828    1.4949   21.5969 C.ar    1  UNL1        0.0384
      7 C           3.1731    0.2917   19.2648 C.ar    1  UNL1        0.0233
      8 C           3.7651   -1.0572   18.9819 C.ar    1  UNL1        0.1140
      9 N           3.9014   -1.7863   20.2856 N.ar    1  UNL1       -0.3238
     10 C           4.4702   -3.1740   20.3130 C.3     1  UNL1        0.1052
     11 C           4.6065   -3.9031   21.6168 C.3     1  UNL1        0.0263
     12 C           4.9028   -3.8325   19.0367 C.3     1  UNL1        0.1122
     13 N           4.7665   -3.1034   17.7329 N.am    1  UNL1       -0.2978
     14 C           4.1976   -1.7157   17.7055 C.2     1  UNL1        0.2618
     15 O           4.0614   -0.9866   16.4017 O.2     1  UNL1       -0.2686
     16 H           5.0504   -3.5357   16.8952 H       1  UNL1        0.1498
     17 O           1.7113    2.4081   23.9347 O.3     1  UNL1       -0.4791
     18 N           0.2117    1.4961   28.0783 N.3     1  UNL1       -0.2737
     19 C          -0.6797    1.2746   26.8924 C.3     1  UNL1        0.0758
     20 C          -0.1799    1.5786   25.5112 C.3     1  UNL1        0.0609
     21 C           1.2114    2.1041   25.3159 C.3     1  UNL1        0.1687
     22 C           2.1029    2.3255   26.5018 C.3     1  UNL1        0.0609
     23 C           1.6030    2.0215   27.8830 C.3     1  UNL1        0.0758
     24 C          -1.4690    0.2863   29.6472 C.3     1  UNL1        0.0173
     25 C          -0.2882    1.1920   29.4594 C.3     1  UNL1        0.0576
     26 C           0.3928    1.7938   30.6529 C.3     1  UNL1        0.0173
@<TRIPOS>BOND
     1    24    25    1
     2    25    26    1
     3    25    18    1
     4    18    19    1
     5    19    20    1
     6    20    21    1
     7    21    17    1
     8    17     1    1
     9     1     2   ar
    10     2     3   ar
    11     3     4   ar
    12     4     5   ar
    13     5     6   ar
    14     5     7   ar
    15     7     8   ar
    16     8     9   ar
    17     9    10    1
    18    10    11    1
    19    10    12    1
    20    12    13    1
    21    13    14   am
    22    14    15    2
    23    21    22    1
    24    22    23    1
    25    23    18    1
    26     6     1   ar
    27    14     8    1
    28     9     4   ar
    29    13    16    1
@<TRIPOS>MOLECULE
*****
 26 29 0 0 0
SMALL
GASTEIGER

@<TRIPOS>ATOM
      1 C          -0.2513    3.2451   20.6388 C.ar    1  UNL1        0.1385
      2 C          -1.3525    3.4147   19.6345 C.ar    1  UNL1        0.0384
      3 C          -2.7662    3.6081   20.0972 C.ar    1  UNL1        0.0203
      4 C          -3.0787    3.6319   21.5640 C.ar    1  UNL1        0.0602
      5 C          -1.9775    3.4622   22.5683 C.ar    1  UNL1        0.0204
      6 C          -0.5639    3.2688   22.1057 C.ar    1  UNL1        0.0384
      7 C          -2.5852    3.5290   23.9381 C.ar    1  UNL1        0.0233
      8 C          -4.0619    3.7400   23.7804 C.ar    1  UNL1        0.1140
      9 N          -4.3669    3.8035   22.3132 N.ar    1  UNL1       -0.3238
     10 C          -5.7782    4.0095   21.8488 C.3     1  UNL1        0.1052
     11 C          -6.0833    4.0731   20.3815 C.3     1  UNL1        0.0263
     12 C          -6.8845    4.1519   22.8517 C.3     1  UNL1        0.1122
     13 N          -6.5795    4.0884   24.3189 N.am    1  UNL1       -0.2978
     14 C          -5.1681    3.8824   24.7833 C.2     1  UNL1        0.2618
     15 O          -4.8630    3.8188   26.2507 O.2     1  UNL1       -0.2686
     16 H          -7.3056    4.1818   24.9772 H       1  UNL1        0.1498
     17 O           1.1624    3.0517   20.1762 O.3     1  UNL1       -0.4791
     18 N           3.0394   -1.0355   20.3254 N.3     1  UNL1       -0.2737
     19 C           3.9035    0.1892   20.3834 C.3     1  UNL1        0.0758
     20 C           3.2779    1.5516   20.3337 C.3     1  UNL1        0.0609
     21 C           1.7881    1.6893   20.2260 C.3     1  UNL1        0.1687
     22 C           0.9240    0.4645   20.1679 C.3     1  UNL1        0.0609
     23 C           1.5496   -0.8978   20.2176 C.3     1  UNL1        0.0758
     24 C           3.5820   -3.3052   19.1836 C.3     1  UNL1        0.0173
     25 C           3.6650   -2.3978   20.3751 C.3     1  UNL1        0.0576
     26 C           4.3738   -2.8528   21.6164 C.3     1  UNL1        0.0173
@<TRIPOS>BOND
     1    24    25    1
     2    25    26    1
     3    25    18    1
     4    18    19    1
     5    19    20    1
     6    20    21    1
     7    21    17    1
     8    17     1    1
     9     1     2   ar
    10     2     3   ar
    11     3     4   ar
    12     4     5   ar
    13     5     6   ar
    14     5     7   ar
    15     7     8   ar
    16     8     9   ar
    17     9    10    1
    18    10    11    1
    19    10    12    1
    20    12    13    1
    21    13    14   am
    22    14    15    2
    23    21    22    1
    24    22    23    1
    25    23    18    1
    26     6     1   ar
    27    14     8    1
    28     9     4   ar
    29    13    16    1
@<TRIPOS>MOLECULE
*****
 26 29 0 0 0
SMALL
GASTEIGER

@<TRIPOS>ATOM
      1 C           2.4013    1.5261   23.2019 C.ar    1  UNL1        0.1385
      2 C           2.7646    0.2331   23.8699 C.ar    1  UNL1        0.0384
      3 C           3.2651   -0.9195   23.0508 C.ar    1  UNL1        0.0203
      4 C           3.4023   -0.7791   21.5637 C.ar    1  UNL1        0.0602
      5 C           3.0390    0.5139   20.8957 C.ar    1  UNL1        0.0204
      6 C           2.5385    1.6664   21.7148 C.ar    1  UNL1        0.0384
      7 C           3.2770    0.3576   19.4230 C.ar    1  UNL1        0.0233
      8 C           3.7873   -1.0320   19.1807 C.ar    1  UNL1        0.1140
      9 N           3.8648   -1.7345   20.5037 N.ar    1  UNL1       -0.3238
     10 C           4.3465   -3.1533   20.5724 C.3     1  UNL1        0.1052
     11 C           4.4240   -3.8559   21.8954 C.3     1  UNL1        0.0263
     12 C           4.7506   -3.8697   19.3180 C.3     1  UNL1        0.1122
     13 N           4.6731   -3.1672   17.9950 N.am    1  UNL1       -0.2978
     14 C           4.1915   -1.7483   17.9264 C.2     1  UNL1        0.2618
     15 O           4.1140   -1.0457   16.6032 O.2     1  UNL1       -0.2686
     16 H           4.9384   -3.6374   17.1717 H       1  UNL1        0.1498
     17 O           1.9007    2.6787   24.0210 O.3     1  UNL1       -0.4791
     18 N          -2.5237    3.3370   24.5114 N.3     1  UNL1       -0.2737
     19 C          -1.7171    2.7846   25.6490 C.3     1  UNL1        0.0758
     20 C          -0.2422    2.5652   25.4855 C.3     1  UNL1        0.0609
     21 C           0.4259    2.8981   24.1845 C.3     1  UNL1        0.1687
     22 C          -0.3808    3.4505   23.0469 C.3     1  UNL1        0.0609
     23 C          -1.8556    3.6700   23.2103 C.3     1  UNL1        0.0758
     24 C          -4.9292    3.2804   23.5313 C.3     1  UNL1        0.0173
     25 C          -3.9985    3.5564   24.6748 C.3     1  UNL1        0.0576
     26 C          -4.5428    4.0519   25.9819 C.3     1  UNL1        0.0173
@<TRIPOS>BOND
     1    24    25    1
     2    25    26    1
     3    25    18    1
     4    18    19    1
     5    19    20    1
     6    20    21    1
     7    21    17    1
     8    17     1    1
     9     1     2   ar
    10     2     3   ar
    11     3     4   ar
    12     4     5   ar
    13     5     6   ar
    14     5     7   ar
    15     7     8   ar
    16     8     9   ar
    17     9    10    1
    18    10    11    1
    19    10    12    1
    20    12    13    1
    21    13    14   am
    22    14    15    2
    23    21    22    1
    24    22    23    1
    25    23    18    1
    26     6     1   ar
    27    14     8    1
    28     9     4   ar
    29    13    16    1
@<TRIPOS>MOLECULE
*****
 26 29 0 0 0
SMALL
GASTEIGER

@<TRIPOS>ATOM
      1 C           6.5810   -4.1877   22.5898 C.ar    1  UNL1        0.1385
      2 C           5.1228   -3.9015   22.7941 C.ar    1  UNL1        0.0384
      3 C           4.3990   -2.9861   21.8518 C.ar    1  UNL1        0.0203
      4 C           5.1334   -2.3568   20.7051 C.ar    1  UNL1        0.0602
      5 C           6.5916   -2.6430   20.5009 C.ar    1  UNL1        0.0204
      6 C           7.3154   -3.5585   21.4432 C.ar    1  UNL1        0.0384
      7 C           7.0479   -1.8833   19.2907 C.ar    1  UNL1        0.0233
      8 C           5.8718   -1.1275   18.7470 C.ar    1  UNL1        0.1140
      9 N           4.6885   -1.4202   19.6212 N.ar    1  UNL1       -0.3238
     10 C           3.3589   -0.7960   19.3173 C.3     1  UNL1        0.1052
     11 C           2.1756   -1.0887   20.1914 C.3     1  UNL1        0.0263
     12 C           3.2125    0.1208   18.1392 C.3     1  UNL1        0.1122
     13 N           4.3958    0.4135   17.2650 N.am    1  UNL1       -0.2978
     14 C           5.7255   -0.2107   17.5690 C.2     1  UNL1        0.2618
     15 O           6.9088    0.0820   16.6947 O.2     1  UNL1       -0.2686
     16 H           4.2997    1.0153   16.4918 H       1  UNL1        0.1498
     17 O           7.3049   -5.1032   23.5322 O.3     1  UNL1       -0.4791
     18 N           6.9147   -4.5226   27.9775 N.3     1  UNL1       -0.2737
     19 C           7.0578   -3.3328   27.0755 C.3     1  UNL1        0.0758
     20 C           7.1878   -3.5263   25.5936 C.3     1  UNL1        0.0609
     21 C           7.1748   -4.9097   25.0139 C.3     1  UNL1        0.1687
     22 C           7.0317   -6.0996   25.9160 C.3     1  UNL1        0.0609
     23 C           6.9017   -5.9060   27.3978 C.3     1  UNL1        0.0758
     24 C           6.9141   -5.5036   30.3832 C.3     1  UNL1        0.0173
     25 C           6.7847   -4.3291   29.4592 C.3     1  UNL1        0.0576
     26 C           6.5251   -2.9610   30.0170 C.3     1  UNL1        0.0173
@<TRIPOS>BOND
     1    24    25    1
     2    25    26    1
     3    25    18    1
     4    18    19    1
     5    19    20    1
     6    20    21    1
     7    21    17    1
     8    17     1    1
     9     1     2   ar
    10     2     3   ar
    11     3     4   ar
    12     4     5   ar
    13     5     6   ar
    14     5     7   ar
    15     7     8   ar
    16     8     9   ar
    17     9    10    1
    18    10    11    1
    19    10    12    1
    20    12    13    1
    21    13    14   am
    22    14    15    2
    23    21    22    1
    24    22    23    1
    25    23    18    1
    26     6     1   ar
    27    14     8    1
    28     9     4   ar
    29    13    16    1
