@<TRIPOS>MOLECULE
*****
 28 31 0 0 0
SMALL
GASTEIGER

@<TRIPOS>ATOM
      1 C          -7.7763  -20.1813   21.8807 C.3     1  UNL1        0.1363
      2 N          -6.4036  -19.6566   21.5802 N.ar    1  UNL1       -0.2667
      3 C          -5.9861  -18.3107   22.0940 C.ar    1  UNL1        0.2036
      4 N          -4.6133  -17.7860   21.7935 N.ar    1  UNL1       -0.2147
      5 C          -3.6581  -18.6073   20.9793 C.ar    1  UNL1        0.0911
      6 C          -4.0756  -19.9532   20.4656 C.ar    1  UNL1        0.0801
      7 C          -5.4483  -20.4779   20.7661 C.ar    1  UNL1        0.2645
      8 O          -5.8658  -21.8240   20.2523 O.2     1  UNL1       -0.2668
      9 C          -2.2853  -18.0826   20.6789 C.ar    1  UNL1        0.0485
     10 C          -1.3277  -18.9068   19.8705 C.ar    1  UNL1        0.0244
     11 C           0.0450  -18.3821   19.5700 C.ar    1  UNL1        0.0991
     12 N           0.4602  -17.0332   20.0780 N.ar    1  UNL1       -0.2400
     13 C          -0.4975  -16.2090   20.8864 C.ar    1  UNL1        0.1285
     14 C          -1.8702  -16.7337   21.1868 C.ar    1  UNL1        0.1606
     15 F          -2.8279  -15.9094   21.9953 F       1  UNL1       -0.2025
     16 N          -6.9413  -17.4893   22.9082 N.pl3   1  UNL1       -0.2740
     17 C          -6.4409  -16.3079   23.6852 C.3     1  UNL1        0.1257
     18 C          -7.3962  -15.4865   24.4995 C.3     1  UNL1        0.1640
     19 O          -8.8518  -15.8466   24.5367 O.3     1  UNL1       -0.3483
     20 C          -9.3522  -17.0281   23.7596 C.3     1  UNL1        0.1572
     21 C          -8.3970  -17.8494   22.9454 C.3     1  UNL1        0.1276
     22 C         -10.8079  -17.3883   23.7968 C.ar    1  UNL1        0.0064
     23 C         -11.7843  -16.6552   22.9254 C.ar    1  UNL1        0.0004
     24 C         -13.2400  -17.0154   22.9626 C.ar    1  UNL1        0.0294
     25 C         -13.7192  -18.1085   23.8712 C.ar    1  UNL1        0.1401
     26 F         -15.1748  -18.4687   23.9084 F       1  UNL1       -0.2042
     27 C         -12.7427  -18.8415   24.7425 C.ar    1  UNL1        0.0294
     28 C         -11.2870  -18.4814   24.7053 C.ar    1  UNL1        0.0004
@<TRIPOS>BOND
     1     1     2    1
     2     2     3   ar
     3     3    16    1
     4    16    17    1
     5    17    18    1
     6    18    19    1
     7    19    20    1
     8    20    22    1
     9    22    23   ar
    10    23    24   ar
    11    24    25   ar
    12    25    26    1
    13    25    27   ar
    14    27    28   ar
    15    20    21    1
    16     3     4   ar
    17     4     5   ar
    18     5     9    1
    19     9    10   ar
    20    10    11   ar
    21    11    12   ar
    22    12    13   ar
    23    13    14   ar
    24    14    15    1
    25     5     6   ar
    26     6     7   ar
    27     7     8    2
    28     7     2   ar
    29    21    16    1
    30    14     9   ar
    31    28    22   ar
@<TRIPOS>MOLECULE
*****
 28 31 0 0 0
SMALL
GASTEIGER

@<TRIPOS>ATOM
      1 C           8.3052   -2.7625   19.8200 C.3     1  UNL1        0.1363
      2 N           6.9457   -2.1308   19.7705 N.ar    1  UNL1       -0.2667
      3 C           6.2573   -1.7319   21.0421 C.ar    1  UNL1        0.2036
      4 N           4.8977   -1.1002   20.9926 N.ar    1  UNL1       -0.2147
      5 C           4.2265   -0.8672   19.6716 C.ar    1  UNL1        0.0911
      6 C           4.9149   -1.2661   18.4000 C.ar    1  UNL1        0.0801
      7 C           6.2745   -1.8978   18.4495 C.ar    1  UNL1        0.2645
      8 O           6.9629   -2.2967   17.1778 O.2     1  UNL1       -0.2668
      9 C           2.8670   -0.2355   19.6221 C.ar    1  UNL1        0.0485
     10 C           1.7507   -0.7918   20.4554 C.ar    1  UNL1        0.0244
     11 C           0.3911   -0.1600   20.4059 C.ar    1  UNL1        0.0991
     12 N           0.1478    1.0281   19.5232 N.ar    1  UNL1       -0.2400
     13 C           1.2641    1.5844   18.6900 C.ar    1  UNL1        0.1285
     14 C           2.6237    0.9526   18.7394 C.ar    1  UNL1        0.1606
     15 F           3.7400    1.5090   17.9061 F       1  UNL1       -0.2025
     16 N           6.9285   -1.9648   22.3633 N.pl3   1  UNL1       -0.2740
     17 C           7.6555   -0.8428   23.0433 C.3     1  UNL1        0.1257
     18 C           8.3266   -1.0757   24.3644 C.3     1  UNL1        0.1640
     19 O           8.2707   -2.4307   25.0055 O.3     1  UNL1       -0.3483
     20 C           7.5437   -3.5528   24.3254 C.3     1  UNL1        0.1572
     21 C           6.8726   -3.3198   23.0043 C.3     1  UNL1        0.1276
     22 C           7.4878   -4.9077   24.9664 C.ar    1  UNL1        0.0064
     23 C           6.8217   -5.0799   26.2994 C.ar    1  UNL1        0.0004
     24 C           6.7658   -6.4349   26.9404 C.ar    1  UNL1        0.0294
     25 C           7.3761   -7.6177   26.2485 C.ar    1  UNL1        0.1401
     26 F           7.3202   -8.9726   26.8895 F       1  UNL1       -0.2042
     27 C           8.0422   -7.4454   24.9156 C.ar    1  UNL1        0.0294
     28 C           8.0981   -6.0905   24.2746 C.ar    1  UNL1        0.0004
@<TRIPOS>BOND
     1     1     2    1
     2     2     3   ar
     3     3    16    1
     4    16    17    1
     5    17    18    1
     6    18    19    1
     7    19    20    1
     8    20    22    1
     9    22    23   ar
    10    23    24   ar
    11    24    25   ar
    12    25    26    1
    13    25    27   ar
    14    27    28   ar
    15    20    21    1
    16     3     4   ar
    17     4     5   ar
    18     5     9    1
    19     9    10   ar
    20    10    11   ar
    21    11    12   ar
    22    12    13   ar
    23    13    14   ar
    24    14    15    1
    25     5     6   ar
    26     6     7   ar
    27     7     8    2
    28     7     2   ar
    29    21    16    1
    30    14     9   ar
    31    28    22   ar
@<TRIPOS>MOLECULE
*****
 28 31 0 0 0
SMALL
GASTEIGER

@<TRIPOS>ATOM
      1 C           0.6096    5.9816   18.4755 C.3     1  UNL1        0.1363
      2 N           1.1510    4.5833   18.5150 N.ar    1  UNL1       -0.2667
      3 C           0.2263    3.4157   18.3377 C.ar    1  UNL1        0.2036
      4 N           0.7677    2.0173   18.3772 N.ar    1  UNL1       -0.2147
      5 C           2.2339    1.7866   18.5941 C.ar    1  UNL1        0.0911
      6 C           3.1586    2.9542   18.7714 C.ar    1  UNL1        0.0801
      7 C           2.6172    4.3526   18.7319 C.ar    1  UNL1        0.2645
      8 O           3.5420    5.5202   18.9092 O.2     1  UNL1       -0.2668
      9 C           2.7753    0.3883   18.6336 C.ar    1  UNL1        0.0485
     10 C           3.7174   -0.0816   17.5652 C.ar    1  UNL1        0.0244
     11 C           4.2588   -1.4800   17.6048 C.ar    1  UNL1        0.0991
     12 N           3.8581   -2.4083   18.7127 N.ar    1  UNL1       -0.2400
     13 C           2.9160   -1.9384   19.7811 C.ar    1  UNL1        0.1285
     14 C           2.3746   -0.5400   19.7416 C.ar    1  UNL1        0.1606
     15 F           1.4324   -0.0701   20.8100 F       1  UNL1       -0.2025
     16 N          -1.2400    3.6463   18.1208 N.pl3   1  UNL1       -0.2740
     17 C          -1.7721    3.8347   16.7311 C.3     1  UNL1        0.1257
     18 C          -3.2383    4.0654   16.5142 C.3     1  UNL1        0.1640
     19 O          -4.1724    4.1077   17.6871 O.3     1  UNL1       -0.3483
     20 C          -3.6403    3.9193   19.0769 C.3     1  UNL1        0.1572
     21 C          -2.1741    3.6886   19.2937 C.3     1  UNL1        0.1276
     22 C          -4.5744    3.9615   20.2497 C.ar    1  UNL1        0.0064
     23 C          -5.8721    4.7071   20.1485 C.ar    1  UNL1        0.0004
     24 C          -6.8062    4.7494   21.3214 C.ar    1  UNL1        0.0294
     25 C          -6.4426    4.0460   22.5955 C.ar    1  UNL1        0.1401
     26 F          -7.3767    4.0883   23.7684 F       1  UNL1       -0.2042
     27 C          -5.1450    3.3005   22.6967 C.ar    1  UNL1        0.0294
     28 C          -4.2109    3.2582   21.5238 C.ar    1  UNL1        0.0004
@<TRIPOS>BOND
     1     1     2    1
     2     2     3   ar
     3     3    16    1
     4    16    17    1
     5    17    18    1
     6    18    19    1
     7    19    20    1
     8    20    22    1
     9    22    23   ar
    10    23    24   ar
    11    24    25   ar
    12    25    26    1
    13    25    27   ar
    14    27    28   ar
    15    20    21    1
    16     3     4   ar
    17     4     5   ar
    18     5     9    1
    19     9    10   ar
    20    10    11   ar
    21    11    12   ar
    22    12    13   ar
    23    13    14   ar
    24    14    15    1
    25     5     6   ar
    26     6     7   ar
    27     7     8    2
    28     7     2   ar
    29    21    16    1
    30    14     9   ar
    31    28    22   ar
@<TRIPOS>MOLECULE
*****
 28 31 0 0 0
SMALL
GASTEIGER

@<TRIPOS>ATOM
      1 C          -9.5818  -19.3032   19.6251 C.3     1  UNL1        0.1363
      2 N          -9.3795  -18.6838   20.9762 N.ar    1  UNL1       -0.2667
      3 C          -8.0437  -18.7779   21.6520 C.ar    1  UNL1        0.2036
      4 N          -7.8414  -18.1585   23.0031 N.ar    1  UNL1       -0.2147
      5 C          -8.9749  -17.4450   23.6784 C.ar    1  UNL1        0.0911
      6 C         -10.3107  -17.3509   23.0026 C.ar    1  UNL1        0.0801
      7 C         -10.5130  -17.9703   21.6515 C.ar    1  UNL1        0.2645
      8 O         -11.8489  -17.8762   20.9758 O.2     1  UNL1       -0.2668
      9 C          -8.7726  -16.8256   25.0295 C.ar    1  UNL1        0.0485
     10 C          -9.1979  -17.5636   26.2642 C.ar    1  UNL1        0.0244
     11 C          -8.9956  -16.9442   27.6152 C.ar    1  UNL1        0.0991
     12 N          -8.3680  -15.5869   27.7317 N.ar    1  UNL1       -0.2400
     13 C          -7.9426  -14.8489   26.4970 C.ar    1  UNL1        0.1285
     14 C          -8.1450  -15.4683   25.1459 C.ar    1  UNL1        0.1606
     15 F          -7.7196  -14.7302   23.9112 F       1  UNL1       -0.2025
     16 N          -6.9101  -19.4914   20.9767 N.pl3   1  UNL1       -0.2740
     17 C          -7.1290  -20.8491   20.3778 C.3     1  UNL1        0.1257
     18 C          -5.9954  -21.5626   19.7025 C.3     1  UNL1        0.1640
     19 O          -4.6430  -20.9183   19.6261 O.3     1  UNL1       -0.3483
     20 C          -4.4242  -19.5605   20.2250 C.3     1  UNL1        0.1572
     21 C          -5.5577  -18.8471   20.9003 C.3     1  UNL1        0.1276
     22 C          -3.0717  -18.9162   20.1486 C.ar    1  UNL1        0.0064
     23 C          -2.2390  -18.7710   21.3878 C.ar    1  UNL1        0.0004
     24 C          -0.8866  -18.1267   21.3113 C.ar    1  UNL1        0.0294
     25 C          -0.3669  -17.6276   19.9957 C.ar    1  UNL1        0.1401
     26 F           0.9855  -16.9833   19.9193 F       1  UNL1       -0.2042
     27 C          -1.1996  -17.7727   18.7566 C.ar    1  UNL1        0.0294
     28 C          -2.5520  -18.4170   18.8330 C.ar    1  UNL1        0.0004
@<TRIPOS>BOND
     1     1     2    1
     2     2     3   ar
     3     3    16    1
     4    16    17    1
     5    17    18    1
     6    18    19    1
     7    19    20    1
     8    20    22    1
     9    22    23   ar
    10    23    24   ar
    11    24    25   ar
    12    25    26    1
    13    25    27   ar
    14    27    28   ar
    15    20    21    1
    16     3     4   ar
    17     4     5   ar
    18     5     9    1
    19     9    10   ar
    20    10    11   ar
    21    11    12   ar
    22    12    13   ar
    23    13    14   ar
    24    14    15    1
    25     5     6   ar
    26     6     7   ar
    27     7     8    2
    28     7     2   ar
    29    21    16    1
    30    14     9   ar
    31    28    22   ar
@<TRIPOS>MOLECULE
*****
 28 31 0 0 0
SMALL
GASTEIGER

@<TRIPOS>ATOM
      1 C          -5.1070  -16.3814   23.8715 C.3     1  UNL1        0.1363
      2 N          -6.5796  -16.6645   23.8360 N.ar    1  UNL1       -0.2667
      3 C          -7.1135  -17.7497   22.9487 C.ar    1  UNL1        0.2036
      4 N          -8.5862  -18.0327   22.9132 N.ar    1  UNL1       -0.2147
      5 C          -9.5248  -17.2306   23.7650 C.ar    1  UNL1        0.0911
      6 C          -8.9909  -16.1455   24.6522 C.ar    1  UNL1        0.0801
      7 C          -7.5183  -15.8624   24.6877 C.ar    1  UNL1        0.2645
      8 O          -6.9843  -14.7771   25.5750 O.2     1  UNL1       -0.2668
      9 C         -10.9974  -17.5137   23.7294 C.ar    1  UNL1        0.0485
     10 C         -11.5892  -18.5267   24.6641 C.ar    1  UNL1        0.0244
     11 C         -13.0618  -18.8098   24.6286 C.ar    1  UNL1        0.0991
     12 N         -13.9427  -18.0799   23.6584 N.ar    1  UNL1       -0.2400
     13 C         -13.3509  -17.0669   22.7238 C.ar    1  UNL1        0.1285
     14 C         -11.8783  -16.7838   22.7593 C.ar    1  UNL1        0.1606
     15 F         -11.2866  -15.7708   21.8245 F       1  UNL1       -0.2025
     16 N          -6.1748  -18.5518   22.0969 N.pl3   1  UNL1       -0.2740
     17 C          -6.6130  -19.8727   21.5373 C.3     1  UNL1        0.1257
     18 C          -5.6743  -20.6748   20.6855 C.3     1  UNL1        0.1640
     19 O          -4.2975  -20.1561   20.3934 O.3     1  UNL1       -0.3483
     20 C          -3.8594  -18.8351   20.9531 C.3     1  UNL1        0.1572
     21 C          -4.7981  -18.0330   21.8049 C.3     1  UNL1        0.1276
     22 C          -2.4826  -18.3163   20.6611 C.ar    1  UNL1        0.0064
     23 C          -1.4794  -19.1961   19.9757 C.ar    1  UNL1        0.0004
     24 C          -0.1026  -18.6773   19.6836 C.ar    1  UNL1        0.0294
     25 C           0.2710  -17.2787   20.0770 C.ar    1  UNL1        0.1401
     26 F           1.6478  -16.7599   19.7849 F       1  UNL1       -0.2042
     27 C          -0.7322  -16.3991   20.7623 C.ar    1  UNL1        0.0294
     28 C          -2.1090  -16.9179   21.0544 C.ar    1  UNL1        0.0004
@<TRIPOS>BOND
     1     1     2    1
     2     2     3   ar
     3     3    16    1
     4    16    17    1
     5    17    18    1
     6    18    19    1
     7    19    20    1
     8    20    22    1
     9    22    23   ar
    10    23    24   ar
    11    24    25   ar
    12    25    26    1
    13    25    27   ar
    14    27    28   ar
    15    20    21    1
    16     3     4   ar
    17     4     5   ar
    18     5     9    1
    19     9    10   ar
    20    10    11   ar
    21    11    12   ar
    22    12    13   ar
    23    13    14   ar
    24    14    15    1
    25     5     6   ar
    26     6     7   ar
    27     7     8    2
    28     7     2   ar
    29    21    16    1
    30    14     9   ar
    31    28    22   ar
@<TRIPOS>MOLECULE
*****
 28 31 0 0 0
SMALL
GASTEIGER

@<TRIPOS>ATOM
      1 C          -4.2342    3.8837   18.3980 C.3     1  UNL1        0.1363
      2 N          -4.3501    4.0442   19.8849 N.ar    1  UNL1       -0.2667
      3 C          -3.1133    4.1659   20.7248 C.ar    1  UNL1        0.2036
      4 N          -3.2292    4.3264   22.2117 N.ar    1  UNL1       -0.2147
      5 C          -4.5819    4.3652   22.8587 C.ar    1  UNL1        0.0911
      6 C          -5.8187    4.2435   22.0188 C.ar    1  UNL1        0.0801
      7 C          -5.7028    4.0830   20.5319 C.ar    1  UNL1        0.2645
      8 O          -6.9397    3.9612   19.6920 O.2     1  UNL1       -0.2668
      9 C          -4.6978    4.5257   24.3455 C.ar    1  UNL1        0.0485
     10 C          -5.7588    5.4145   24.9235 C.ar    1  UNL1        0.0244
     11 C          -5.8747    5.5750   26.4104 C.ar    1  UNL1        0.0991
     12 N          -4.9296    4.8467   27.3193 N.ar    1  UNL1       -0.2400
     13 C          -3.8685    3.9578   26.7413 C.ar    1  UNL1        0.1285
     14 C          -3.7526    3.7973   25.2545 C.ar    1  UNL1        0.1606
     15 F          -2.6915    2.9084   24.6765 F       1  UNL1       -0.2025
     16 N          -1.7605    4.1271   20.0778 N.pl3   1  UNL1       -0.2740
     17 C          -1.1939    5.3656   19.4493 C.3     1  UNL1        0.1257
     18 C           0.1589    5.3268   18.8023 C.3     1  UNL1        0.1640
     19 O           0.9451    4.0495   18.7839 O.3     1  UNL1       -0.3483
     20 C           0.3784    2.8109   19.4124 C.3     1  UNL1        0.1572
     21 C          -0.9743    2.8498   20.0594 C.3     1  UNL1        0.1276
     22 C           1.1646    1.5336   19.3940 C.ar    1  UNL1        0.0064
     23 C           0.7125    0.3627   20.2154 C.ar    1  UNL1        0.0004
     24 C           1.4986   -0.9146   20.1970 C.ar    1  UNL1        0.0294
     25 C           2.7369   -1.0211   19.3571 C.ar    1  UNL1        0.1401
     26 F           3.5231   -2.2984   19.3387 F       1  UNL1       -0.2042
     27 C           3.1890    0.1498   18.5357 C.ar    1  UNL1        0.0294
     28 C           2.4029    1.4271   18.5542 C.ar    1  UNL1        0.0004
@<TRIPOS>BOND
     1     1     2    1
     2     2     3   ar
     3     3    16    1
     4    16    17    1
     5    17    18    1
     6    18    19    1
     7    19    20    1
     8    20    22    1
     9    22    23   ar
    10    23    24   ar
    11    24    25   ar
    12    25    26    1
    13    25    27   ar
    14    27    28   ar
    15    20    21    1
    16     3     4   ar
    17     4     5   ar
    18     5     9    1
    19     9    10   ar
    20    10    11   ar
    21    11    12   ar
    22    12    13   ar
    23    13    14   ar
    24    14    15    1
    25     5     6   ar
    26     6     7   ar
    27     7     8    2
    28     7     2   ar
    29    21    16    1
    30    14     9   ar
    31    28    22   ar
@<TRIPOS>MOLECULE
*****
 28 31 0 0 0
SMALL
GASTEIGER

@<TRIPOS>ATOM
      1 C           1.6794    5.3885   18.0648 C.3     1  UNL1        0.1363
      2 N           2.1313    3.9696   18.2444 N.ar    1  UNL1       -0.2667
      3 C           1.1265    2.8924   18.5273 C.ar    1  UNL1        0.2036
      4 N           1.5785    1.4735   18.7068 N.ar    1  UNL1       -0.2147
      5 C           3.0353    1.1316   18.6035 C.ar    1  UNL1        0.0911
      6 C           4.0402    2.2087   18.3206 C.ar    1  UNL1        0.0801
      7 C           3.5882    3.6277   18.1410 C.ar    1  UNL1        0.2645
      8 O           4.5931    4.7048   17.8581 O.2     1  UNL1       -0.2668
      9 C           3.4873   -0.2873   18.7831 C.ar    1  UNL1        0.0485
     10 C           3.1625   -1.0234   20.0490 C.ar    1  UNL1        0.0244
     11 C           3.6145   -2.4424   20.2286 C.ar    1  UNL1        0.0991
     12 N           4.3913   -3.1253   19.1422 N.ar    1  UNL1       -0.2400
     13 C           4.7161   -2.3892   17.8763 C.ar    1  UNL1        0.1285
     14 C           4.2641   -0.9702   17.6967 C.ar    1  UNL1        0.1606
     15 F           4.5890   -0.2341   16.4307 F       1  UNL1       -0.2025
     16 N          -0.3304    3.2343   18.6306 N.pl3   1  UNL1       -0.2740
     17 C          -1.1012    3.6123   17.4006 C.3     1  UNL1        0.1257
     18 C          -2.5581    3.9542   17.5039 C.3     1  UNL1        0.1640
     19 O          -3.2442    3.9179   18.8373 O.3     1  UNL1       -0.3483
     20 C          -2.4734    3.5398   20.0674 C.3     1  UNL1        0.1572
     21 C          -1.0165    3.1980   19.9640 C.3     1  UNL1        0.1276
     22 C          -3.1595    3.5035   21.4008 C.ar    1  UNL1        0.0064
     23 C          -4.6280    3.2083   21.4808 C.ar    1  UNL1        0.0004
     24 C          -5.3141    3.1720   22.8142 C.ar    1  UNL1        0.0294
     25 C          -4.5317    3.4310   24.0676 C.ar    1  UNL1        0.1401
     26 F          -5.2178    3.3947   25.4010 F       1  UNL1       -0.2042
     27 C          -3.0632    3.7262   23.9875 C.ar    1  UNL1        0.0294
     28 C          -2.3771    3.7625   22.6541 C.ar    1  UNL1        0.0004
@<TRIPOS>BOND
     1     1     2    1
     2     2     3   ar
     3     3    16    1
     4    16    17    1
     5    17    18    1
     6    18    19    1
     7    19    20    1
     8    20    22    1
     9    22    23   ar
    10    23    24   ar
    11    24    25   ar
    12    25    26    1
    13    25    27   ar
    14    27    28   ar
    15    20    21    1
    16     3     4   ar
    17     4     5   ar
    18     5     9    1
    19     9    10   ar
    20    10    11   ar
    21    11    12   ar
    22    12    13   ar
    23    13    14   ar
    24    14    15    1
    25     5     6   ar
    26     6     7   ar
    27     7     8    2
    28     7     2   ar
    29    21    16    1
    30    14     9   ar
    31    28    22   ar
@<TRIPOS>MOLECULE
*****
 28 31 0 0 0
SMALL
GASTEIGER

@<TRIPOS>ATOM
      1 C          -7.5570  -16.6103   24.0863 C.3     1  UNL1        0.1363
      2 N          -6.2662  -16.9085   23.3828 N.ar    1  UNL1       -0.2667
      3 C          -6.2608  -17.7827   22.1639 C.ar    1  UNL1        0.2036
      4 N          -4.9700  -18.0809   21.4605 N.ar    1  UNL1       -0.2147
      5 C          -3.6845  -17.5050   21.9760 C.ar    1  UNL1        0.0911
      6 C          -3.6898  -16.6308   23.1949 C.ar    1  UNL1        0.0801
      7 C          -4.9807  -16.3326   23.8983 C.ar    1  UNL1        0.2645
      8 O          -4.9860  -15.4583   25.1172 O.2     1  UNL1       -0.2668
      9 C          -2.3937  -17.8032   21.2725 C.ar    1  UNL1        0.0485
     10 C          -1.4569  -16.6864   20.9187 C.ar    1  UNL1        0.0244
     11 C          -0.1661  -16.9847   20.2153 C.ar    1  UNL1        0.0991
     12 N           0.1880  -18.3997   19.8657 N.ar    1  UNL1       -0.2400
     13 C          -0.7488  -19.5165   20.2194 C.ar    1  UNL1        0.1285
     14 C          -2.0396  -19.2182   20.9229 C.ar    1  UNL1        0.1606
     15 F          -2.9764  -20.3351   21.2766 F       1  UNL1       -0.2025
     16 N          -7.5464  -18.3587   21.6484 N.pl3   1  UNL1       -0.2740
     17 C          -7.5653  -19.1056   20.3478 C.3     1  UNL1        0.1257
     18 C          -8.8508  -19.6816   19.8323 C.3     1  UNL1        0.1640
     19 O         -10.1174  -19.5106   20.6174 O.3     1  UNL1       -0.3483
     20 C         -10.0985  -18.7636   21.9181 C.3     1  UNL1        0.1572
     21 C          -8.8130  -18.1876   22.4336 C.3     1  UNL1        0.1276
     22 C         -11.3651  -18.5925   22.7033 C.ar    1  UNL1        0.0064
     23 C         -12.5720  -17.9808   22.0558 C.ar    1  UNL1        0.0004
     24 C         -13.8386  -17.8097   22.8410 C.ar    1  UNL1        0.0294
     25 C         -13.8983  -18.2505   24.2736 C.ar    1  UNL1        0.1401
     26 F         -15.1649  -18.0795   25.0587 F       1  UNL1       -0.2042
     27 C         -12.6914  -18.8622   24.9209 C.ar    1  UNL1        0.0294
     28 C         -11.4248  -19.0333   24.1358 C.ar    1  UNL1        0.0004
@<TRIPOS>BOND
     1     1     2    1
     2     2     3   ar
     3     3    16    1
     4    16    17    1
     5    17    18    1
     6    18    19    1
     7    19    20    1
     8    20    22    1
     9    22    23   ar
    10    23    24   ar
    11    24    25   ar
    12    25    26    1
    13    25    27   ar
    14    27    28   ar
    15    20    21    1
    16     3     4   ar
    17     4     5   ar
    18     5     9    1
    19     9    10   ar
    20    10    11   ar
    21    11    12   ar
    22    12    13   ar
    23    13    14   ar
    24    14    15    1
    25     5     6   ar
    26     6     7   ar
    27     7     8    2
    28     7     2   ar
    29    21    16    1
    30    14     9   ar
    31    28    22   ar
@<TRIPOS>MOLECULE
*****
 28 31 0 0 0
SMALL
GASTEIGER

@<TRIPOS>ATOM
      1 C           8.7792   -1.3702   31.0589 C.3     1  UNL1        0.1363
      2 N           7.3529   -0.9167   30.9584 N.ar    1  UNL1       -0.2667
      3 C           6.2632   -1.9178   30.7131 C.ar    1  UNL1        0.2036
      4 N           4.8369   -1.4643   30.6126 N.ar    1  UNL1       -0.2147
      5 C           4.5004   -0.0098   30.7574 C.ar    1  UNL1        0.0911
      6 C           5.5902    0.9913   31.0026 C.ar    1  UNL1        0.0801
      7 C           7.0164    0.5378   31.1031 C.ar    1  UNL1        0.2645
      8 O           8.1062    1.5390   31.3483 O.2     1  UNL1       -0.2668
      9 C           3.0741    0.4437   30.6568 C.ar    1  UNL1        0.0485
     10 C           2.5131    1.3868   31.6795 C.ar    1  UNL1        0.0244
     11 C           1.0868    1.8402   31.5790 C.ar    1  UNL1        0.0991
     12 N           0.2216    1.3507   30.4558 N.ar    1  UNL1       -0.2400
     13 C           0.7826    0.4076   29.4331 C.ar    1  UNL1        0.1285
     14 C           2.2088   -0.0458   29.5337 C.ar    1  UNL1        0.1606
     15 F           2.7698   -0.9889   28.5109 F       1  UNL1       -0.2025
     16 N           6.5996   -3.3724   30.5684 N.pl3   1  UNL1       -0.2740
     17 C           6.6799   -4.2482   31.7835 C.3     1  UNL1        0.1257
     18 C           7.0164   -5.7028   31.6388 C.3     1  UNL1        0.1640
     19 O           7.2726   -6.2816   30.2789 O.3     1  UNL1       -0.3483
     20 C           7.1923   -5.4058   29.0637 C.3     1  UNL1        0.1572
     21 C           6.8558   -3.9513   29.2085 C.3     1  UNL1        0.1276
     22 C           7.4484   -5.9846   27.7038 C.ar    1  UNL1        0.0064
     23 C           7.1352   -5.1820   26.4759 C.ar    1  UNL1        0.0004
     24 C           7.3914   -5.7608   25.1160 C.ar    1  UNL1        0.0294
     25 C           7.9608   -7.1423   24.9840 C.ar    1  UNL1        0.1401
     26 F           8.2169   -7.7211   23.6241 F       1  UNL1       -0.2042
     27 C           8.2739   -7.9449   26.2119 C.ar    1  UNL1        0.0294
     28 C           8.0178   -7.3661   27.5718 C.ar    1  UNL1        0.0004
@<TRIPOS>BOND
     1     1     2    1
     2     2     3   ar
     3     3    16    1
     4    16    17    1
     5    17    18    1
     6    18    19    1
     7    19    20    1
     8    20    22    1
     9    22    23   ar
    10    23    24   ar
    11    24    25   ar
    12    25    26    1
    13    25    27   ar
    14    27    28   ar
    15    20    21    1
    16     3     4   ar
    17     4     5   ar
    18     5     9    1
    19     9    10   ar
    20    10    11   ar
    21    11    12   ar
    22    12    13   ar
    23    13    14   ar
    24    14    15    1
    25     5     6   ar
    26     6     7   ar
    27     7     8    2
    28     7     2   ar
    29    21    16    1
    30    14     9   ar
    31    28    22   ar
