@<TRIPOS>MOLECULE
*****
 44 49 0 0 0
SMALL
GASTEIGER

@<TRIPOS>ATOM
      1 N           1.2989    2.0850   29.9240 N.am    1  UNL1       -0.1892
      2 C           2.3227    0.9930   30.0211 C.2     1  UNL1        0.3220
      3 O           2.7127    0.0499   28.9220 O.2     1  UNL1       -0.2512
      4 N           2.8879    1.0098   31.4105 N.am    1  UNL1       -0.2222
      5 C           2.2135    2.1122   32.1721 C.3     1  UNL1        0.1391
      6 C           1.4577    3.2441   32.8026 C.3     1  UNL1        0.0449
      7 C           1.7194    3.6165   34.2318 C.3     1  UNL1        0.0746
      8 N           2.7369    2.8570   35.0306 N.3     1  UNL1       -0.2676
      9 C           3.4926    1.7251   34.4000 C.3     1  UNL1        0.0746
     10 C           3.2309    1.3527   32.9708 C.3     1  UNL1        0.0449
     11 C           1.2314    2.7767   31.2534 C.2     1  UNL1        0.2529
     12 O           0.3386    3.9304   31.6027 O.2     1  UNL1       -0.2724
     13 C           3.9424    0.0864   31.9445 C.ar    1  UNL1        0.1453
     14 C           3.5615   -1.2717   32.4551 C.ar    1  UNL1        0.0922
     15 C           4.6161   -2.1950   32.9891 C.ar    1  UNL1        0.2259
     16 O           4.2352   -3.5531   33.4997 O.3     1  UNL1       -0.4919
     17 N           6.0516   -1.7604   33.0127 N.ar    1  UNL1       -0.1894
     18 C           6.4325   -0.4024   32.5021 C.ar    1  UNL1        0.2027
     19 N           5.3779    0.5209   31.9681 N.ar    1  UNL1       -0.2084
     20 H           3.3385   -3.8246   33.4850 H       1  UNL1        0.2938
     21 C          -1.1415    3.1067   26.2839 C.ar    1  UNL1        0.0811
     22 C          -1.0750    1.6887   26.7685 C.ar    1  UNL1        0.0204
     23 C          -0.2616    1.3481   27.9819 C.ar    1  UNL1        0.0185
     24 C           0.4854    2.4256   28.7106 C.ar    1  UNL1        0.0813
     25 C           0.4189    3.8435   28.2260 C.ar    1  UNL1        0.1141
     26 N          -0.3945    4.1841   27.0127 N.ar    1  UNL1       -0.2425
     27 C          -4.0192    3.9010   26.5817 C.3     1  UNL1        0.0311
     28 C          -3.3938    3.8444   25.2195 C.ar    1  UNL1       -0.0204
     29 C          -4.2073    4.1850   24.0061 C.ar    1  UNL1       -0.0031
     30 C          -3.5820    4.1284   22.6438 C.ar    1  UNL1        0.0137
     31 C          -2.1431    3.7312   22.4949 C.ar    1  UNL1        0.0012
     32 C          -1.3297    3.3907   23.7083 C.ar    1  UNL1        0.0012
     33 C          -1.9550    3.4473   25.0706 C.ar    1  UNL1        0.0137
     34 C          -4.3954    4.4689   21.4304 C.2     1  UNL1        0.0729
     35 O          -4.9437    5.8547   21.2598 O.co2   1  UNL1       -0.5446
     36 O          -4.6606    3.4238   20.3877 O.co2   1  UNL1       -0.5446
     37 C           2.9985    3.2295   36.4599 C.3     1  UNL1        0.1183
     38 C           2.2597    2.5328   37.5638 C.ar    1  UNL1        0.0712
     39 N           0.9735    3.1041   38.0827 N.ar    1  UNL1       -0.2471
     40 C           0.2347    2.4073   39.1867 C.ar    1  UNL1        0.0985
     41 C           0.7821    1.1392   39.7717 C.ar    1  UNL1        0.0203
     42 C           2.0684    0.5679   39.2529 C.ar    1  UNL1       -0.0015
     43 C           2.8072    1.2647   38.1489 C.ar    1  UNL1       -0.0069
     44 C           4.0934    0.6933   37.6301 C.3     1  UNL1        0.0323
@<TRIPOS>UNITY_ATOM_ATTR
35 1
charge -1
@<TRIPOS>BOND
     1    27    28    1
     2    28    29   ar
     3    29    30   ar
     4    30    34    1
     5    34    35   ar
     6    34    36   ar
     7    30    31   ar
     8    31    32   ar
     9    32    33   ar
    10    33    21    1
    11    21    22   ar
    12    22    23   ar
    13    23    24   ar
    14    24     1    1
    15     1     2   am
    16     2     3    2
    17     2     4   am
    18     4    13    1
    19    13    14   ar
    20    14    15   ar
    21    15    16    1
    22    15    17   ar
    23    17    18   ar
    24    18    19   ar
    25     4     5    1
    26     5     6    1
    27     6     7    1
    28     7     8    1
    29     8    37    1
    30    37    38    1
    31    38    39   ar
    32    39    40   ar
    33    40    41   ar
    34    41    42   ar
    35    42    43   ar
    36    43    44    1
    37     8     9    1
    38     9    10    1
    39     5    11    1
    40    11    12    2
    41    24    25   ar
    42    25    26   ar
    43    33    28   ar
    44    26    21   ar
    45    11     1   am
    46    19    13   ar
    47    10     5    1
    48    43    38   ar
    49    16    20    1
@<TRIPOS>MOLECULE
*****
 44 49 0 0 0
SMALL
GASTEIGER

@<TRIPOS>ATOM
      1 N           1.8477    1.3978   30.4496 N.am    1  UNL1       -0.1892
      2 C           2.9865    0.4363   30.2802 C.2     1  UNL1        0.3220
      3 O           3.3750   -0.2546   29.0069 O.2     1  UNL1       -0.2512
      4 N           3.6686    0.2872   31.6078 N.am    1  UNL1       -0.2222
      5 C           2.9513    1.1565   32.5978 C.3     1  UNL1        0.1391
      6 C           2.1387    2.0669   33.4699 C.3     1  UNL1        0.0449
      7 C           2.4858    2.2224   34.9209 C.3     1  UNL1        0.0746
      8 N           3.6457    1.4675   35.4996 N.3     1  UNL1       -0.2676
      9 C           4.4583    0.5571   34.6275 C.3     1  UNL1        0.0746
     10 C           4.1111    0.4016   33.1766 C.3     1  UNL1        0.0449
     11 C           1.8259    1.8429   31.8820 C.2     1  UNL1        0.2529
     12 O           0.8502    2.8054   32.4914 O.2     1  UNL1       -0.2724
     13 C           4.8589   -0.5791   31.8951 C.ar    1  UNL1        0.1453
     14 C           4.6672   -2.0249   32.2460 C.ar    1  UNL1        0.0922
     15 C           5.8576   -2.8911   32.5333 C.ar    1  UNL1        0.2259
     16 O           5.6659   -4.3368   32.8842 O.3     1  UNL1       -0.4919
     17 N           7.2398   -2.3117   32.4698 N.ar    1  UNL1       -0.1894
     18 C           7.4315   -0.8660   32.1189 C.ar    1  UNL1        0.2027
     19 N           6.2411    0.0003   31.8316 N.ar    1  UNL1       -0.2084
     20 H           4.8026   -4.6988   32.9239 H       1  UNL1        0.2938
     21 C          -1.0030    2.7157   27.2268 C.ar    1  UNL1        0.0811
     22 C          -0.9726    1.2799   27.6601 C.ar    1  UNL1        0.0204
     23 C          -0.0224    0.8407   28.7343 C.ar    1  UNL1        0.0185
     24 C           0.8975    1.8371   29.3753 C.ar    1  UNL1        0.0813
     25 C           0.8671    3.2728   28.9421 C.ar    1  UNL1        0.1141
     26 N          -0.0831    3.7121   27.8678 N.ar    1  UNL1       -0.2425
     27 C          -0.1312    2.7034   24.3562 C.3     1  UNL1        0.0311
     28 C          -1.5173    3.1488   24.7173 C.ar    1  UNL1       -0.0204
     29 C          -2.4675    3.5881   23.6429 C.ar    1  UNL1       -0.0031
     30 C          -3.8537    4.0336   24.0039 C.ar    1  UNL1        0.0137
     31 C          -4.2895    4.0397   25.4392 C.ar    1  UNL1        0.0012
     32 C          -3.3393    3.6004   26.5135 C.ar    1  UNL1        0.0012
     33 C          -1.9532    3.1550   26.1525 C.ar    1  UNL1        0.0137
     34 C          -4.8039    4.4729   22.9296 C.2     1  UNL1        0.0729
     35 O          -4.3873    5.5239   21.9438 O.co2   1  UNL1       -0.5446
     36 O          -6.1706    3.8611   22.8411 O.co2   1  UNL1       -0.5446
     37 C           3.9928    1.6231   36.9507 C.3     1  UNL1        0.1183
     38 C           2.9103    1.5904   37.9885 C.ar    1  UNL1        0.0712
     39 N           2.3625    0.2759   38.4597 N.ar    1  UNL1       -0.2471
     40 C           1.2800    0.2433   39.4976 C.ar    1  UNL1        0.0985
     41 C           0.7453    1.5251   40.0642 C.ar    1  UNL1        0.0203
     42 C           1.2931    2.8396   39.5929 C.ar    1  UNL1       -0.0015
     43 C           2.3756    2.8723   38.5551 C.ar    1  UNL1       -0.0069
     44 C           2.9233    4.1867   38.0839 C.3     1  UNL1        0.0323
@<TRIPOS>UNITY_ATOM_ATTR
35 1
charge -1
@<TRIPOS>BOND
     1    27    28    1
     2    28    29   ar
     3    29    30   ar
     4    30    34    1
     5    34    35   ar
     6    34    36   ar
     7    30    31   ar
     8    31    32   ar
     9    32    33   ar
    10    33    21    1
    11    21    22   ar
    12    22    23   ar
    13    23    24   ar
    14    24     1    1
    15     1     2   am
    16     2     3    2
    17     2     4   am
    18     4    13    1
    19    13    14   ar
    20    14    15   ar
    21    15    16    1
    22    15    17   ar
    23    17    18   ar
    24    18    19   ar
    25     4     5    1
    26     5     6    1
    27     6     7    1
    28     7     8    1
    29     8    37    1
    30    37    38    1
    31    38    39   ar
    32    39    40   ar
    33    40    41   ar
    34    41    42   ar
    35    42    43   ar
    36    43    44    1
    37     8     9    1
    38     9    10    1
    39     5    11    1
    40    11    12    2
    41    24    25   ar
    42    25    26   ar
    43    33    28   ar
    44    26    21   ar
    45    11     1   am
    46    19    13   ar
    47    10     5    1
    48    43    38   ar
    49    16    20    1
@<TRIPOS>MOLECULE
*****
 44 49 0 0 0
SMALL
GASTEIGER

@<TRIPOS>ATOM
      1 N           2.3817    0.8148   30.5076 N.am    1  UNL1       -0.1892
      2 C           3.4819   -0.1704   30.2450 C.2     1  UNL1        0.3220
      3 O           3.7841   -0.8246   28.9296 O.2     1  UNL1       -0.2512
      4 N           4.2269   -0.3864   31.5289 N.am    1  UNL1       -0.2222
      5 C           3.5870    0.4652   32.5851 C.3     1  UNL1        0.1391
      6 C           2.8471    1.3648   33.5301 C.3     1  UNL1        0.0449
      7 C           3.2730    1.4577   34.9654 C.3     1  UNL1        0.0746
      8 N           4.4387    0.6510   35.4556 N.3     1  UNL1       -0.2676
      9 C           5.1786   -0.2486   34.5105 C.3     1  UNL1        0.0746
     10 C           4.7528   -0.3415   33.0753 C.3     1  UNL1        0.0449
     11 C           2.4467    1.2076   31.9539 C.2     1  UNL1        0.2529
     12 O           1.5319    2.1733   32.6472 O.2     1  UNL1       -0.2724
     13 C           5.4048   -1.2946   31.7227 C.ar    1  UNL1        0.1453
     14 C           5.1941   -2.7123   32.1651 C.ar    1  UNL1        0.0922
     15 C           6.3721   -3.6205   32.3589 C.ar    1  UNL1        0.2259
     16 O           6.1614   -5.0381   32.8013 O.3     1  UNL1       -0.4919
     17 N           7.7609   -3.1110   32.1103 N.ar    1  UNL1       -0.1894
     18 C           7.9716   -1.6933   31.6679 C.ar    1  UNL1        0.2027
     19 N           6.7936   -0.7852   31.4741 N.ar    1  UNL1       -0.2084
     20 H           5.2939   -5.3564   32.9567 H       1  UNL1        0.2938
     21 C          -0.5918    2.3265   27.4873 C.ar    1  UNL1        0.0811
     22 C          -0.6922    0.9203   27.9997 C.ar    1  UNL1        0.0204
     23 C           0.2990    0.4164   29.0065 C.ar    1  UNL1        0.0185
     24 C           1.3905    1.3187   29.5008 C.ar    1  UNL1        0.0813
     25 C           1.4908    2.7248   28.9885 C.ar    1  UNL1        0.1141
     26 N           0.4996    3.2287   27.9817 N.ar    1  UNL1       -0.2425
     27 C           0.0055    2.1086   24.5553 C.3     1  UNL1        0.0311
     28 C          -1.2843    2.7214   25.0146 C.ar    1  UNL1       -0.0204
     29 C          -2.2755    3.2253   24.0077 C.ar    1  UNL1       -0.0031
     30 C          -3.5654    3.8381   24.4668 C.ar    1  UNL1        0.0137
     31 C          -3.8640    3.9471   25.9328 C.ar    1  UNL1        0.0012
     32 C          -2.8729    3.4432   26.9396 C.ar    1  UNL1        0.0012
     33 C          -1.5830    2.8304   26.4805 C.ar    1  UNL1        0.0137
     34 C          -4.5565    4.3420   23.4600 C.2     1  UNL1        0.0729
     35 O          -4.6547    5.8114   23.1747 O.co2   1  UNL1       -0.5446
     36 O          -5.4495    3.3766   22.7385 O.co2   1  UNL1       -0.5446
     37 C           4.8645    0.7439   36.8909 C.3     1  UNL1        0.1183
     38 C           4.6030    1.9981   37.6711 C.ar    1  UNL1        0.0712
     39 N           5.5683    3.1437   37.5951 N.ar    1  UNL1       -0.2471
     40 C           5.3068    4.3978   38.3754 C.ar    1  UNL1        0.0985
     41 C           4.0799    4.5064   39.2315 C.ar    1  UNL1        0.0203
     42 C           3.1146    3.3608   39.3075 C.ar    1  UNL1       -0.0015
     43 C           3.3761    2.1067   38.5273 C.ar    1  UNL1       -0.0069
     44 C           2.4108    0.9611   38.6033 C.3     1  UNL1        0.0323
@<TRIPOS>UNITY_ATOM_ATTR
35 1
charge -1
@<TRIPOS>BOND
     1    27    28    1
     2    28    29   ar
     3    29    30   ar
     4    30    34    1
     5    34    35   ar
     6    34    36   ar
     7    30    31   ar
     8    31    32   ar
     9    32    33   ar
    10    33    21    1
    11    21    22   ar
    12    22    23   ar
    13    23    24   ar
    14    24     1    1
    15     1     2   am
    16     2     3    2
    17     2     4   am
    18     4    13    1
    19    13    14   ar
    20    14    15   ar
    21    15    16    1
    22    15    17   ar
    23    17    18   ar
    24    18    19   ar
    25     4     5    1
    26     5     6    1
    27     6     7    1
    28     7     8    1
    29     8    37    1
    30    37    38    1
    31    38    39   ar
    32    39    40   ar
    33    40    41   ar
    34    41    42   ar
    35    42    43   ar
    36    43    44    1
    37     8     9    1
    38     9    10    1
    39     5    11    1
    40    11    12    2
    41    24    25   ar
    42    25    26   ar
    43    33    28   ar
    44    26    21   ar
    45    11     1   am
    46    19    13   ar
    47    10     5    1
    48    43    38   ar
    49    16    20    1
@<TRIPOS>MOLECULE
*****
 44 49 0 0 0
SMALL
GASTEIGER

@<TRIPOS>ATOM
      1 N           1.9316    0.4921   23.4680 N.am    1  UNL1       -0.1892
      2 C           2.1329    0.1400   22.0238 C.2     1  UNL1        0.3220
      3 O           1.2531    0.5586   20.8834 O.2     1  UNL1       -0.2512
      4 N           3.3685   -0.7042   21.9204 N.am    1  UNL1       -0.2222
      5 C           3.9309   -0.8739   23.3006 C.3     1  UNL1        0.1391
      6 C           4.3735   -0.9556   24.7315 C.3     1  UNL1        0.0449
      7 C           5.6072   -1.7289   25.0919 C.3     1  UNL1        0.0746
      8 N           6.3984   -2.4204   24.0215 N.3     1  UNL1       -0.2676
      9 C           5.9558   -2.3387   22.5906 C.3     1  UNL1        0.0746
     10 C           4.7221   -1.5654   22.2302 C.3     1  UNL1        0.0449
     11 C           3.0429   -0.1346   24.2571 C.2     1  UNL1        0.2529
     12 O           3.2327   -0.0387   25.7420 O.2     1  UNL1       -0.2724
     13 C           3.9412   -1.2780   20.6584 C.ar    1  UNL1        0.1453
     14 C           3.5232   -2.6429   20.1978 C.ar    1  UNL1        0.0922
     15 C           4.0959   -3.2166   18.9358 C.ar    1  UNL1        0.2259
     16 O           3.6780   -4.5816   18.4752 O.3     1  UNL1       -0.4919
     17 N           5.0867   -2.4254   18.1342 N.ar    1  UNL1       -0.1894
     18 C           5.5047   -1.0605   18.5948 C.ar    1  UNL1        0.2027
     19 N           4.9319   -0.4867   19.8568 N.ar    1  UNL1       -0.2084
     20 H           3.0591   -5.0759   18.9759 H       1  UNL1        0.2938
     21 C          -1.4176    2.9896   25.1397 C.ar    1  UNL1        0.0811
     22 C          -0.9116    1.8037   25.9063 C.ar    1  UNL1        0.0204
     23 C           0.2048    0.9712   25.3491 C.ar    1  UNL1        0.0185
     24 C           0.8152    1.3246   24.0253 C.ar    1  UNL1        0.0813
     25 C           0.3092    2.5104   23.2587 C.ar    1  UNL1        0.1141
     26 N          -0.8072    3.3429   23.8160 N.ar    1  UNL1       -0.2425
     27 C          -0.8336    5.1091   27.1811 C.3     1  UNL1        0.0311
     28 C          -2.2420    4.8818   26.7176 C.ar    1  UNL1       -0.0204
     29 C          -3.3585    5.7144   27.2749 C.ar    1  UNL1       -0.0031
     30 C          -4.7669    5.4872   26.8115 C.ar    1  UNL1        0.0137
     31 C          -5.0589    4.4274   25.7908 C.ar    1  UNL1        0.0012
     32 C          -3.9425    3.5949   25.2336 C.ar    1  UNL1        0.0012
     33 C          -2.5340    3.8221   25.6970 C.ar    1  UNL1        0.0137
     34 C          -5.8833    6.3197   27.3687 C.2     1  UNL1        0.0729
     35 O          -6.2273    7.6345   26.7340 O.co2   1  UNL1       -0.5446
     36 O          -6.6558    5.8373   28.5607 O.co2   1  UNL1       -0.5446
     37 C           7.6322   -3.1937   24.3820 C.3     1  UNL1        0.1183
     38 C           7.5132   -4.5942   24.9055 C.ar    1  UNL1        0.0712
     39 N           6.8473   -4.8475   26.2255 N.ar    1  UNL1       -0.2471
     40 C           6.7284   -6.2482   26.7491 C.ar    1  UNL1        0.0985
     41 C           7.2754   -7.3955   25.9526 C.ar    1  UNL1        0.0203
     42 C           7.9413   -7.1423   24.6326 C.ar    1  UNL1       -0.0015
     43 C           8.0602   -5.7417   24.1090 C.ar    1  UNL1       -0.0069
     44 C           8.7261   -5.4884   22.7890 C.3     1  UNL1        0.0323
@<TRIPOS>UNITY_ATOM_ATTR
35 1
charge -1
@<TRIPOS>BOND
     1    27    28    1
     2    28    29   ar
     3    29    30   ar
     4    30    34    1
     5    34    35   ar
     6    34    36   ar
     7    30    31   ar
     8    31    32   ar
     9    32    33   ar
    10    33    21    1
    11    21    22   ar
    12    22    23   ar
    13    23    24   ar
    14    24     1    1
    15     1     2   am
    16     2     3    2
    17     2     4   am
    18     4    13    1
    19    13    14   ar
    20    14    15   ar
    21    15    16    1
    22    15    17   ar
    23    17    18   ar
    24    18    19   ar
    25     4     5    1
    26     5     6    1
    27     6     7    1
    28     7     8    1
    29     8    37    1
    30    37    38    1
    31    38    39   ar
    32    39    40   ar
    33    40    41   ar
    34    41    42   ar
    35    42    43   ar
    36    43    44    1
    37     8     9    1
    38     9    10    1
    39     5    11    1
    40    11    12    2
    41    24    25   ar
    42    25    26   ar
    43    33    28   ar
    44    26    21   ar
    45    11     1   am
    46    19    13   ar
    47    10     5    1
    48    43    38   ar
    49    16    20    1
@<TRIPOS>MOLECULE
*****
 44 49 0 0 0
SMALL
GASTEIGER

@<TRIPOS>ATOM
      1 N           5.8650   -1.9888   29.8185 N.am    1  UNL1       -0.1892
      2 C           6.5309   -3.3255   29.6765 C.2     1  UNL1        0.3220
      3 O           6.8907   -4.2548   30.7975 O.2     1  UNL1       -0.2512
      4 N           6.7738   -3.5695   28.2165 N.am    1  UNL1       -0.2222
      5 C           6.2581   -2.3837   27.4562 C.3     1  UNL1        0.1391
      6 C           5.7010   -1.1374   26.8347 C.3     1  UNL1        0.0449
      7 C           5.7401   -0.9597   25.3459 C.3     1  UNL1        0.0746
      8 N           6.3363   -2.0284   24.4784 N.3     1  UNL1       -0.2676
      9 C           6.8934   -3.2747   25.0998 C.3     1  UNL1        0.0746
     10 C           6.8543   -3.4524   26.5887 C.3     1  UNL1        0.0449
     11 C           5.6965   -1.4068   28.4463 C.2     1  UNL1        0.2529
     12 O           5.0753   -0.0807   28.1212 O.2     1  UNL1       -0.2724
     13 C           7.4191   -4.7857   27.6213 C.ar    1  UNL1        0.1453
     14 C           6.5933   -6.0008   27.3187 C.ar    1  UNL1        0.0922
     15 C           7.2388   -7.2170   26.7235 C.ar    1  UNL1        0.2259
     16 O           6.4130   -8.4321   26.4208 O.3     1  UNL1       -0.4919
     17 N           8.7100   -7.2182   26.4309 N.ar    1  UNL1       -0.1894
     18 C           9.5358   -6.0031   26.7335 C.ar    1  UNL1        0.2027
     19 N           8.8904   -4.7869   27.3287 N.ar    1  UNL1       -0.2084
     20 H           5.4940   -8.4314   26.6036 H       1  UNL1        0.2938
     21 C           4.5961   -0.0632   33.6826 C.ar    1  UNL1        0.0811
     22 C           5.9818    0.1596   33.1532 C.ar    1  UNL1        0.0204
     23 C           6.4048   -0.4823   31.8652 C.ar    1  UNL1        0.0185
     24 C           5.4421   -1.3469   31.1066 C.ar    1  UNL1        0.0813
     25 C           4.0564   -1.5696   31.6359 C.ar    1  UNL1        0.1141
     26 N           3.6335   -0.9278   32.9239 N.ar    1  UNL1       -0.2425
     27 C           2.8305    2.3619   33.6411 C.3     1  UNL1        0.0311
     28 C           3.2903    1.7912   34.9498 C.ar    1  UNL1       -0.0204
     29 C           2.8673    2.4332   36.2379 C.ar    1  UNL1       -0.0031
     30 C           3.3271    1.8626   37.5467 C.ar    1  UNL1        0.0137
     31 C           4.2100    0.6500   37.5675 C.ar    1  UNL1        0.0012
     32 C           4.6329    0.0081   36.2794 C.ar    1  UNL1        0.0012
     33 C           4.1731    0.5787   34.9706 C.ar    1  UNL1        0.0137
     34 C           2.9041    2.5044   38.8348 C.2     1  UNL1        0.0729
     35 O           3.9141    3.2167   39.6848 O.co2   1  UNL1       -0.5446
     36 O           1.4712    2.4340   39.2727 O.co2   1  UNL1       -0.5446
     37 C           6.3753   -1.8507   22.9894 C.3     1  UNL1        0.1183
     38 C           5.1596   -1.3603   22.2605 C.ar    1  UNL1        0.0712
     39 N           4.8615    0.1086   22.2026 N.ar    1  UNL1       -0.2471
     40 C           3.6456    0.5990   21.4737 C.ar    1  UNL1        0.0985
     41 C           2.7280   -0.3795   20.8025 C.ar    1  UNL1        0.0203
     42 C           3.0262   -1.8484   20.8604 C.ar    1  UNL1       -0.0015
     43 C           4.2419   -2.3388   21.5893 C.ar    1  UNL1       -0.0069
     44 C           4.5400   -3.8078   21.6471 C.3     1  UNL1        0.0323
@<TRIPOS>UNITY_ATOM_ATTR
35 1
charge -1
@<TRIPOS>BOND
     1    27    28    1
     2    28    29   ar
     3    29    30   ar
     4    30    34    1
     5    34    35   ar
     6    34    36   ar
     7    30    31   ar
     8    31    32   ar
     9    32    33   ar
    10    33    21    1
    11    21    22   ar
    12    22    23   ar
    13    23    24   ar
    14    24     1    1
    15     1     2   am
    16     2     3    2
    17     2     4   am
    18     4    13    1
    19    13    14   ar
    20    14    15   ar
    21    15    16    1
    22    15    17   ar
    23    17    18   ar
    24    18    19   ar
    25     4     5    1
    26     5     6    1
    27     6     7    1
    28     7     8    1
    29     8    37    1
    30    37    38    1
    31    38    39   ar
    32    39    40   ar
    33    40    41   ar
    34    41    42   ar
    35    42    43   ar
    36    43    44    1
    37     8     9    1
    38     9    10    1
    39     5    11    1
    40    11    12    2
    41    24    25   ar
    42    25    26   ar
    43    33    28   ar
    44    26    21   ar
    45    11     1   am
    46    19    13   ar
    47    10     5    1
    48    43    38   ar
    49    16    20    1
@<TRIPOS>MOLECULE
*****
 44 49 0 0 0
SMALL
GASTEIGER

@<TRIPOS>ATOM
      1 N           2.8418    0.8967   26.8734 N.am    1  UNL1       -0.1892
      2 C           2.2654    1.6141   25.6888 C.2     1  UNL1        0.3220
      3 O           1.4567    2.8767   25.7304 O.2     1  UNL1       -0.2512
      4 N           2.6396    0.8471   24.4552 N.am    1  UNL1       -0.2222
      5 C           3.4474   -0.3443   24.8774 C.3     1  UNL1        0.1391
      6 C           4.2369   -1.4853   25.4472 C.3     1  UNL1        0.0449
      7 C           4.8177   -2.5248   24.5350 C.3     1  UNL1        0.0746
      8 N           4.6090   -2.4233   23.0531 N.3     1  UNL1       -0.2676
      9 C           3.8194   -1.2823   22.4833 C.3     1  UNL1        0.0746
     10 C           3.2386   -0.2428   23.3954 C.3     1  UNL1        0.0449
     11 C           3.5723   -0.3136   26.3719 C.2     1  UNL1        0.2529
     12 O           4.2999   -1.3171   27.2166 O.2     1  UNL1       -0.2724
     13 C           2.2710    1.2081   23.0468 C.ar    1  UNL1        0.1453
     14 C           1.0358    0.6293   22.4229 C.ar    1  UNL1        0.0922
     15 C           0.6672    0.9903   21.0145 C.ar    1  UNL1        0.2259
     16 O          -0.5679    0.4114   20.3906 O.3     1  UNL1       -0.4919
     17 N           1.5338    1.9302   20.2298 N.ar    1  UNL1       -0.1894
     18 C           2.7690    2.5090   20.8536 C.ar    1  UNL1        0.2027
     19 N           3.1376    2.1480   22.2621 N.ar    1  UNL1       -0.2084
     20 H          -1.1093   -0.1757   20.8807 H       1  UNL1        0.2938
     21 C           2.4484    2.1548   31.1760 C.ar    1  UNL1        0.0811
     22 C           3.3814    2.8917   30.2613 C.ar    1  UNL1        0.0204
     23 C           3.5125    2.4724   28.8272 C.ar    1  UNL1        0.0185
     24 C           2.7106    1.3161   28.3076 C.ar    1  UNL1        0.0813
     25 C           1.7777    0.5792   29.2221 C.ar    1  UNL1        0.1141
     26 N           1.6466    0.9985   30.6563 N.ar    1  UNL1       -0.2425
     27 C           3.6390    0.4626   33.3484 C.3     1  UNL1        0.0311
     28 C           2.9126    1.7280   33.6963 C.ar    1  UNL1       -0.0204
     29 C           2.7815    2.1473   35.1306 C.ar    1  UNL1       -0.0031
     30 C           2.0551    3.4128   35.4786 C.ar    1  UNL1        0.0137
     31 C           1.4598    4.2589   34.3924 C.ar    1  UNL1        0.0012
     32 C           1.5909    3.8395   32.9582 C.ar    1  UNL1        0.0012
     33 C           2.3173    2.5741   32.6101 C.ar    1  UNL1        0.0137
     34 C           1.9240    3.8321   36.9128 C.2     1  UNL1        0.0729
     35 O           2.5040    5.1383   37.3683 O.co2   1  UNL1       -0.5446
     36 O           1.2130    2.9452   37.8916 O.co2   1  UNL1       -0.5446
     37 C           5.1898   -3.4629   22.1409 C.3     1  UNL1        0.1183
     38 C           5.7001   -3.0711   20.7859 C.ar    1  UNL1        0.0712
     39 N           6.9616   -2.2689   20.6627 N.ar    1  UNL1       -0.2471
     40 C           7.4718   -1.8771   19.3076 C.ar    1  UNL1        0.0985
     41 C           6.7206   -2.2874   18.0758 C.ar    1  UNL1        0.0203
     42 C           5.4591   -3.0896   18.1991 C.ar    1  UNL1       -0.0015
     43 C           4.9488   -3.4814   19.5541 C.ar    1  UNL1       -0.0069
     44 C           3.6873   -4.2836   19.6773 C.3     1  UNL1        0.0323
@<TRIPOS>UNITY_ATOM_ATTR
35 1
charge -1
@<TRIPOS>BOND
     1    27    28    1
     2    28    29   ar
     3    29    30   ar
     4    30    34    1
     5    34    35   ar
     6    34    36   ar
     7    30    31   ar
     8    31    32   ar
     9    32    33   ar
    10    33    21    1
    11    21    22   ar
    12    22    23   ar
    13    23    24   ar
    14    24     1    1
    15     1     2   am
    16     2     3    2
    17     2     4   am
    18     4    13    1
    19    13    14   ar
    20    14    15   ar
    21    15    16    1
    22    15    17   ar
    23    17    18   ar
    24    18    19   ar
    25     4     5    1
    26     5     6    1
    27     6     7    1
    28     7     8    1
    29     8    37    1
    30    37    38    1
    31    38    39   ar
    32    39    40   ar
    33    40    41   ar
    34    41    42   ar
    35    42    43   ar
    36    43    44    1
    37     8     9    1
    38     9    10    1
    39     5    11    1
    40    11    12    2
    41    24    25   ar
    42    25    26   ar
    43    33    28   ar
    44    26    21   ar
    45    11     1   am
    46    19    13   ar
    47    10     5    1
    48    43    38   ar
    49    16    20    1
@<TRIPOS>MOLECULE
*****
 44 49 0 0 0
SMALL
GASTEIGER

@<TRIPOS>ATOM
      1 N           4.9551   -1.0893   27.9706 N.am    1  UNL1       -0.1892
      2 C           6.1268   -1.9643   27.6366 C.2     1  UNL1        0.3220
      3 O           7.1745   -2.4400   28.5987 O.2     1  UNL1       -0.2512
      4 N           6.0667   -2.2800   26.1714 N.am    1  UNL1       -0.2222
      5 C           4.8579   -1.6002   25.5998 C.3     1  UNL1        0.1391
      6 C           3.6213   -0.8662   25.1731 C.3     1  UNL1        0.0449
      7 C           3.1776   -0.9139   23.7410 C.3     1  UNL1        0.0746
      8 N           3.9703   -1.6956   22.7358 N.3     1  UNL1       -0.2676
      9 C           5.2069   -2.4295   23.1625 C.3     1  UNL1        0.0746
     10 C           5.6507   -2.3818   24.5946 C.3     1  UNL1        0.0449
     11 C           4.1709   -0.8642   26.7118 C.2     1  UNL1        0.2529
     12 O           2.9194   -0.0468   26.5869 O.2     1  UNL1       -0.2724
     13 C           7.0438   -3.1270   25.4112 C.ar    1  UNL1        0.1453
     14 C           6.8823   -4.6180   25.3847 C.ar    1  UNL1        0.0922
     15 C           7.8595   -5.4648   24.6245 C.ar    1  UNL1        0.2259
     16 O           7.6980   -6.9559   24.5980 O.3     1  UNL1       -0.4919
     17 N           8.9983   -4.8207   23.8907 N.ar    1  UNL1       -0.1894
     18 C           9.1598   -3.3297   23.9172 C.ar    1  UNL1        0.2027
     19 N           8.1826   -2.4828   24.6774 N.ar    1  UNL1       -0.2084
     20 H           6.9867   -7.3583   25.0564 H       1  UNL1        0.2938
     21 C           3.9662    0.5694   32.0351 C.ar    1  UNL1        0.0811
     22 C           2.9927   -0.3326   31.3360 C.ar    1  UNL1        0.0204
     23 C           3.3224   -0.8855   29.9812 C.ar    1  UNL1        0.0185
     24 C           4.6255   -0.5364   29.3254 C.ar    1  UNL1        0.0813
     25 C           5.5988    0.3656   30.0245 C.ar    1  UNL1        0.1141
     26 N           5.2692    0.9185   31.3793 N.ar    1  UNL1       -0.2425
     27 C           5.1808   -0.6538   34.4905 C.3     1  UNL1        0.0311
     28 C           4.2439    0.5107   34.6176 C.ar    1  UNL1       -0.0204
     29 C           3.9143    1.0636   35.9725 C.ar    1  UNL1       -0.0031
     30 C           2.9773    2.2281   36.0997 C.ar    1  UNL1        0.0137
     31 C           2.3700    2.8397   34.8720 C.ar    1  UNL1        0.0012
     32 C           2.6997    2.2868   33.5172 C.ar    1  UNL1        0.0012
     33 C           3.6366    1.1223   33.3900 C.ar    1  UNL1        0.0137
     34 C           2.6477    2.7810   37.4546 C.2     1  UNL1        0.0729
     35 O           1.5683    2.1471   38.2810 O.co2   1  UNL1       -0.5446
     36 O           3.3975    3.9679   37.9830 O.co2   1  UNL1       -0.5446
     37 C           3.5265   -1.7432   21.3037 C.3     1  UNL1        0.1183
     38 C           4.5447   -1.8236   20.2052 C.ar    1  UNL1        0.0712
     39 N           5.5231   -0.7042   20.0061 N.ar    1  UNL1       -0.2471
     40 C           6.5414   -0.7846   18.9075 C.ar    1  UNL1        0.0985
     41 C           6.5812   -1.9844   18.0081 C.ar    1  UNL1        0.0203
     42 C           5.6027   -3.1038   18.2072 C.ar    1  UNL1       -0.0015
     43 C           4.5845   -3.0234   19.3057 C.ar    1  UNL1       -0.0069
     44 C           3.6061   -4.1428   19.5048 C.3     1  UNL1        0.0323
@<TRIPOS>UNITY_ATOM_ATTR
35 1
charge -1
@<TRIPOS>BOND
     1    27    28    1
     2    28    29   ar
     3    29    30   ar
     4    30    34    1
     5    34    35   ar
     6    34    36   ar
     7    30    31   ar
     8    31    32   ar
     9    32    33   ar
    10    33    21    1
    11    21    22   ar
    12    22    23   ar
    13    23    24   ar
    14    24     1    1
    15     1     2   am
    16     2     3    2
    17     2     4   am
    18     4    13    1
    19    13    14   ar
    20    14    15   ar
    21    15    16    1
    22    15    17   ar
    23    17    18   ar
    24    18    19   ar
    25     4     5    1
    26     5     6    1
    27     6     7    1
    28     7     8    1
    29     8    37    1
    30    37    38    1
    31    38    39   ar
    32    39    40   ar
    33    40    41   ar
    34    41    42   ar
    35    42    43   ar
    36    43    44    1
    37     8     9    1
    38     9    10    1
    39     5    11    1
    40    11    12    2
    41    24    25   ar
    42    25    26   ar
    43    33    28   ar
    44    26    21   ar
    45    11     1   am
    46    19    13   ar
    47    10     5    1
    48    43    38   ar
    49    16    20    1
@<TRIPOS>MOLECULE
*****
 44 49 0 0 0
SMALL
GASTEIGER

@<TRIPOS>ATOM
      1 N           3.7528   -0.7245   25.8300 N.am    1  UNL1       -0.1892
      2 C           4.5725   -1.5801   24.9101 C.2     1  UNL1        0.3220
      3 O           5.7024   -2.4793   25.3157 O.2     1  UNL1       -0.2512
      4 N           4.0639   -1.3784   23.5134 N.am    1  UNL1       -0.2222
      5 C           2.9298   -0.3982   23.5700 C.3     1  UNL1        0.1391
      6 C           1.8194    0.5877   23.7818 C.3     1  UNL1        0.0449
      7 C           1.0183    1.0777   22.6122 C.3     1  UNL1        0.0746
      8 N           1.3276    0.5817   21.2307 N.3     1  UNL1       -0.2676
      9 C           2.4380   -0.4042   21.0189 C.3     1  UNL1        0.0746
     10 C           3.2391   -0.8942   22.1886 C.3     1  UNL1        0.0449
     11 C           2.7375    0.0059   25.0017 C.2     1  UNL1        0.2529
     12 O           1.7104    0.9710   25.5151 O.2     1  UNL1       -0.2724
     13 C           4.5959   -2.0407   22.2772 C.ar    1  UNL1        0.1453
     14 C           4.0347   -3.3584   21.8315 C.ar    1  UNL1        0.0922
     15 C           4.5668   -4.0206   20.5953 C.ar    1  UNL1        0.2259
     16 O           4.0057   -5.3384   20.1496 O.3     1  UNL1       -0.4919
     17 N           5.6600   -3.3651   19.8045 N.ar    1  UNL1       -0.1894
     18 C           6.2211   -2.0473   20.2501 C.ar    1  UNL1        0.2027
     19 N           5.6891   -1.3851   21.4864 N.ar    1  UNL1       -0.2084
     20 H           3.3228   -5.7479   20.6435 H       1  UNL1        0.2938
     21 C           4.2517   -0.4050   30.2907 C.ar    1  UNL1        0.0811
     22 C           2.9119   -0.7452   29.7083 C.ar    1  UNL1        0.0204
     23 C           2.7456   -0.8517   28.2214 C.ar    1  UNL1        0.0185
     24 C           3.9191   -0.6180   27.3169 C.ar    1  UNL1        0.0813
     25 C           5.2588   -0.2778   27.8992 C.ar    1  UNL1        0.1141
     26 N           5.4251   -0.1714   29.3862 N.ar    1  UNL1       -0.2425
     27 C           5.6362   -2.5932   31.8058 C.3     1  UNL1        0.0311
     28 C           5.1103   -1.3926   32.5351 C.ar    1  UNL1       -0.0204
     29 C           5.2766   -1.2862   34.0222 C.ar    1  UNL1       -0.0031
     30 C           4.7507   -0.0856   34.7516 C.ar    1  UNL1        0.0137
     31 C           4.0584    1.0085   33.9940 C.ar    1  UNL1        0.0012
     32 C           3.8921    0.9020   32.5071 C.ar    1  UNL1        0.0012
     33 C           4.4180   -0.2986   31.7777 C.ar    1  UNL1        0.0137
     34 C           4.9170    0.0209   36.2385 C.2     1  UNL1        0.0729
     35 O           6.1398   -0.5438   36.8987 O.co2   1  UNL1       -0.5446
     36 O           3.8605    0.6920   37.0652 O.co2   1  UNL1       -0.5446
     37 C           0.5264    1.0717   20.0610 C.3     1  UNL1        0.1183
     38 C          -0.1828    2.3912   20.1378 C.ar    1  UNL1        0.0712
     39 N          -1.5625    2.4682   20.7213 N.ar    1  UNL1       -0.2471
     40 C          -2.2718    3.7877   20.7980 C.ar    1  UNL1        0.0985
     41 C          -1.6014    5.0301   20.2913 C.ar    1  UNL1        0.0203
     42 C          -0.2217    4.9531   19.7078 C.ar    1  UNL1       -0.0015
     43 C           0.4876    3.6337   19.6310 C.ar    1  UNL1       -0.0069
     44 C           1.8673    3.5567   19.0475 C.3     1  UNL1        0.0323
@<TRIPOS>UNITY_ATOM_ATTR
35 1
charge -1
@<TRIPOS>BOND
     1    27    28    1
     2    28    29   ar
     3    29    30   ar
     4    30    34    1
     5    34    35   ar
     6    34    36   ar
     7    30    31   ar
     8    31    32   ar
     9    32    33   ar
    10    33    21    1
    11    21    22   ar
    12    22    23   ar
    13    23    24   ar
    14    24     1    1
    15     1     2   am
    16     2     3    2
    17     2     4   am
    18     4    13    1
    19    13    14   ar
    20    14    15   ar
    21    15    16    1
    22    15    17   ar
    23    17    18   ar
    24    18    19   ar
    25     4     5    1
    26     5     6    1
    27     6     7    1
    28     7     8    1
    29     8    37    1
    30    37    38    1
    31    38    39   ar
    32    39    40   ar
    33    40    41   ar
    34    41    42   ar
    35    42    43   ar
    36    43    44    1
    37     8     9    1
    38     9    10    1
    39     5    11    1
    40    11    12    2
    41    24    25   ar
    42    25    26   ar
    43    33    28   ar
    44    26    21   ar
    45    11     1   am
    46    19    13   ar
    47    10     5    1
    48    43    38   ar
    49    16    20    1
@<TRIPOS>MOLECULE
*****
 44 49 0 0 0
SMALL
GASTEIGER

@<TRIPOS>ATOM
      1 N           2.4627    1.0347   26.2906 N.am    1  UNL1       -0.1892
      2 C           1.6883    2.1664   25.6825 C.2     1  UNL1        0.3220
      3 O           1.1250    3.3453   26.4191 O.2     1  UNL1       -0.2512
      4 N           1.5763    1.9121   24.2085 N.am    1  UNL1       -0.2222
      5 C           2.2814    0.6232   23.9055 C.3     1  UNL1        0.1391
      6 C           3.0189   -0.6744   23.7559 C.3     1  UNL1        0.0449
      7 C           3.1527   -1.3094   22.4036 C.3     1  UNL1        0.0746
      8 N           2.5490   -0.6469   21.2008 N.3     1  UNL1       -0.2676
      9 C           1.8115    0.6507   21.3504 C.3     1  UNL1        0.0746
     10 C           1.6777    1.2857   22.7027 C.3     1  UNL1        0.0449
     11 C           2.8292    0.0809   25.1923 C.2     1  UNL1        0.2529
     12 O           3.6070   -1.1916   25.3527 O.2     1  UNL1       -0.2724
     13 C           0.8813    2.7921   23.2123 C.ar    1  UNL1        0.1453
     14 C          -0.5646    2.5603   22.8869 C.ar    1  UNL1        0.0922
     15 C          -1.2595    3.4403   21.8907 C.ar    1  UNL1        0.2259
     16 O          -2.7054    3.2086   21.5654 O.3     1  UNL1       -0.4919
     17 N          -0.5088    4.5522   21.2197 N.ar    1  UNL1       -0.1894
     18 C           0.9371    4.7839   21.5450 C.ar    1  UNL1        0.2027
     19 N           1.6321    3.9039   22.5413 N.ar    1  UNL1       -0.2084
     20 H          -3.1744    2.5141   21.9845 H       1  UNL1        0.2938
     21 C           3.5034    0.5805   30.6449 C.ar    1  UNL1        0.0811
     22 C           2.2323   -0.0115   30.1118 C.ar    1  UNL1        0.0204
     23 C           1.8855    0.1399   28.6604 C.ar    1  UNL1        0.0185
     24 C           2.8096    0.8833   27.7420 C.ar    1  UNL1        0.0813
     25 C           4.0805    1.4752   28.2751 C.ar    1  UNL1        0.1141
     26 N           4.4274    1.3238   29.7265 N.ar    1  UNL1       -0.2425
     27 C           2.7010    2.7023   32.6082 C.3     1  UNL1        0.0311
     28 C           3.4491    1.4900   33.0780 C.ar    1  UNL1       -0.0204
     29 C           3.7959    1.3386   34.5295 C.ar    1  UNL1       -0.0031
     30 C           4.5440    0.1263   34.9994 C.ar    1  UNL1        0.0137
     31 C           4.9452   -0.9346   34.0177 C.ar    1  UNL1        0.0012
     32 C           4.5983   -0.7832   32.5662 C.ar    1  UNL1        0.0012
     33 C           3.8502    0.4291   32.0964 C.ar    1  UNL1        0.0137
     34 C           4.8909   -0.0251   36.4508 C.2     1  UNL1        0.0729
     35 O           6.2264   -0.5801   36.8488 O.co2   1  UNL1       -0.5446
     36 O           3.9023    0.3785   37.5043 O.co2   1  UNL1       -0.5446
     37 C           2.6828   -1.2820   19.8485 C.3     1  UNL1        0.1183
     38 C           4.0435   -1.5424   19.2735 C.ar    1  UNL1        0.0712
     39 N           4.9952   -0.4040   19.0535 N.ar    1  UNL1       -0.2471
     40 C           6.3560   -0.6645   18.4785 C.ar    1  UNL1        0.0985
     41 C           6.7650   -2.0633   18.1236 C.ar    1  UNL1        0.0203
     42 C           5.8133   -3.2017   18.3436 C.ar    1  UNL1       -0.0015
     43 C           4.4526   -2.9413   18.9185 C.ar    1  UNL1       -0.0069
     44 C           3.5009   -4.0796   19.1386 C.3     1  UNL1        0.0323
@<TRIPOS>UNITY_ATOM_ATTR
35 1
charge -1
@<TRIPOS>BOND
     1    27    28    1
     2    28    29   ar
     3    29    30   ar
     4    30    34    1
     5    34    35   ar
     6    34    36   ar
     7    30    31   ar
     8    31    32   ar
     9    32    33   ar
    10    33    21    1
    11    21    22   ar
    12    22    23   ar
    13    23    24   ar
    14    24     1    1
    15     1     2   am
    16     2     3    2
    17     2     4   am
    18     4    13    1
    19    13    14   ar
    20    14    15   ar
    21    15    16    1
    22    15    17   ar
    23    17    18   ar
    24    18    19   ar
    25     4     5    1
    26     5     6    1
    27     6     7    1
    28     7     8    1
    29     8    37    1
    30    37    38    1
    31    38    39   ar
    32    39    40   ar
    33    40    41   ar
    34    41    42   ar
    35    42    43   ar
    36    43    44    1
    37     8     9    1
    38     9    10    1
    39     5    11    1
    40    11    12    2
    41    24    25   ar
    42    25    26   ar
    43    33    28   ar
    44    26    21   ar
    45    11     1   am
    46    19    13   ar
    47    10     5    1
    48    43    38   ar
    49    16    20    1
