@<TRIPOS>MOLECULE
*****
 28 31 0 0 0
SMALL
GASTEIGER

@<TRIPOS>ATOM
      1 C          -6.3961  -18.7424   21.1590 C.3     1  UNL1        0.1910
      2 C          -7.7179  -19.0574   20.5237 C.3     1  UNL1        0.0423
      3 C          -8.9926  -18.6770   21.2167 C.3     1  UNL1        0.0404
      4 C         -10.3145  -18.9920   20.5814 C.3     1  UNL1        0.0569
      5 C         -10.3616  -19.6873   19.2531 C.3     1  UNL1        0.0122
      6 S         -11.5893  -18.6117   21.2745 S.3     1  UNL1       -0.0816
      7 C         -11.5422  -17.9164   22.6028 C.2     1  UNL1        0.1482
      8 N         -12.8171  -17.5361   23.2958 N.pl3   1  UNL1       -0.3380
      9 N         -10.2204  -17.6014   23.2380 N.2     1  UNL1       -0.2484
     10 C          -8.9456  -17.9818   22.5450 C.3     1  UNL1        0.1352
     11 C          -7.6238  -17.6668   23.1803 C.3     1  UNL1        0.1692
     12 O          -6.3490  -18.0471   22.4873 O.3     1  UNL1       -0.3446
     13 H         -13.6846  -17.7428   22.8788 H       1  UNL1        0.1442
     14 H         -12.7862  -17.0797   24.1676 H       1  UNL1        0.1442
     15 C          -8.8985  -17.2865   23.8733 C.ar    1  UNL1        0.0278
     16 C          -8.5591  -15.8271   23.9443 C.ar    1  UNL1        0.0021
     17 C          -8.5121  -15.1318   25.2726 C.ar    1  UNL1        0.0295
     18 C          -8.8044  -15.8959   26.5299 C.ar    1  UNL1        0.1424
     19 F          -8.7574  -15.2007   27.8582 F       1  UNL1       -0.2041
     20 C          -9.1439  -17.3553   26.4588 C.ar    1  UNL1        0.0590
     21 C          -9.1909  -18.0505   25.1305 C.ar    1  UNL1        0.1402
     22 F          -9.5303  -19.5099   25.0595 F       1  UNL1       -0.2044
     23 C          -1.6445  -18.4577   18.8736 C.3     1  UNL1        0.0556
     24 C          -2.9372  -18.9919   19.4155 C.ar    1  UNL1        0.0997
     25 C          -3.3819  -20.4242   19.3836 C.ar    1  UNL1        0.1958
     26 O          -4.7317  -20.5050   20.0328 O.2     1  UNL1       -0.4331
     27 C          -5.1213  -19.1227   20.4659 C.ar    1  UNL1        0.2327
     28 N          -4.0122  -18.1876   20.0844 N.ar    1  UNL1       -0.2144
@<TRIPOS>BOND
     1    23    24    1
     2    24    25   ar
     3    25    26   ar
     4    26    27   ar
     5     1    27    1
     6     1     2    1
     7     3     2    1
     8     3     4    1
     9     4     5    1
    10     4     6    1
    11     6     7    1
    12     7     8    1
    13     7     9    2
    14     9    10    1
    15    10    15    1
    16    15    16   ar
    17    16    17   ar
    18    17    18   ar
    19    18    19    1
    20    18    20   ar
    21    20    21   ar
    22    21    22    1
    23    10    11    1
    24    11    12    1
    25    27    28   ar
    26    28    24   ar
    27    12     1    1
    28    10     3    1
    29    21    15   ar
    30     8    13    1
    31     8    14    1
@<TRIPOS>MOLECULE
*****
 28 31 0 0 0
SMALL
GASTEIGER

@<TRIPOS>ATOM
      1 C         -15.0677   -7.1958   18.4837 C.3     1  UNL1        0.1910
      2 C         -13.5710   -7.2507   18.5658 C.3     1  UNL1        0.0423
      3 C         -12.7778   -5.9807   18.6549 C.3     1  UNL1        0.0404
      4 C         -11.2810   -6.0355   18.7371 C.3     1  UNL1        0.0569
      5 C         -10.5775   -7.3603   18.7302 C.3     1  UNL1        0.0122
      6 S         -10.4877   -4.7656   18.8261 S.3     1  UNL1       -0.0816
      7 C         -11.1912   -3.4408   18.8329 C.2     1  UNL1        0.1482
      8 N         -10.3979   -2.1708   18.9220 N.pl3   1  UNL1       -0.3380
      9 N         -12.6879   -3.3859   18.7508 N.2     1  UNL1       -0.2484
     10 C         -13.4812   -4.6559   18.6617 C.3     1  UNL1        0.1352
     11 C         -14.9780   -4.6011   18.5795 C.3     1  UNL1        0.1692
     12 O         -15.7712   -5.8710   18.4905 O.3     1  UNL1       -0.3446
     13 H          -9.4155   -2.2068   18.9759 H       1  UNL1        0.1442
     14 H         -10.8596   -1.3013   18.9265 H       1  UNL1        0.1442
     15 C         -14.1847   -3.3311   18.6686 C.ar    1  UNL1        0.0278
     16 C         -14.5147   -2.6504   17.3732 C.ar    1  UNL1        0.0021
     17 C         -15.2181   -1.3257   17.3801 C.ar    1  UNL1        0.0295
     18 C         -15.5917   -0.6816   18.6823 C.ar    1  UNL1        0.1424
     19 F         -16.2952    0.6432   18.6891 F       1  UNL1       -0.2041
     20 C         -15.2618   -1.3623   19.9775 C.ar    1  UNL1        0.0590
     21 C         -14.5583   -2.6870   19.9707 C.ar    1  UNL1        0.1402
     22 F         -14.2284   -3.3677   21.2659 F       1  UNL1       -0.2044
     23 C         -19.0580  -10.5875   17.8090 C.3     1  UNL1        0.0556
     24 C         -17.6951  -10.0248   18.0845 C.ar    1  UNL1        0.0997
     25 C         -16.4683  -10.8154   18.4307 C.ar    1  UNL1        0.1958
     26 O         -15.3347   -9.8519   18.6223 O.2     1  UNL1       -0.4331
     27 C         -15.8610   -8.4658   18.3946 C.ar    1  UNL1        0.2327
     28 N         -17.3198   -8.5727   18.0622 N.ar    1  UNL1       -0.2144
@<TRIPOS>BOND
     1    23    24    1
     2    24    25   ar
     3    25    26   ar
     4    26    27   ar
     5     1    27    1
     6     1     2    1
     7     3     2    1
     8     3     4    1
     9     4     5    1
    10     4     6    1
    11     6     7    1
    12     7     8    1
    13     7     9    2
    14     9    10    1
    15    10    15    1
    16    15    16   ar
    17    16    17   ar
    18    17    18   ar
    19    18    19    1
    20    18    20   ar
    21    20    21   ar
    22    21    22    1
    23    10    11    1
    24    11    12    1
    25    27    28   ar
    26    28    24   ar
    27    12     1    1
    28    10     3    1
    29    21    15   ar
    30     8    13    1
    31     8    14    1
@<TRIPOS>MOLECULE
*****
 28 31 0 0 0
SMALL
GASTEIGER

@<TRIPOS>ATOM
      1 C         -17.2373   -3.2050   19.1043 C.3     1  UNL1        0.1910
      2 C         -17.8595   -4.5360   19.4064 C.3     1  UNL1        0.0423
      3 C         -17.0417   -5.7885   19.2963 C.3     1  UNL1        0.0404
      4 C         -17.6640   -7.1196   19.5984 C.3     1  UNL1        0.0569
      5 C         -19.1041   -7.1979   20.0107 C.3     1  UNL1        0.0122
      6 S         -16.8462   -8.3721   19.4882 S.3     1  UNL1       -0.0816
      7 C         -15.4061   -8.2938   19.0760 C.2     1  UNL1        0.1482
      8 N         -14.5882   -9.5464   18.9658 N.pl3   1  UNL1       -0.3380
      9 N         -14.7838   -6.9628   18.7739 N.2     1  UNL1       -0.2484
     10 C         -15.6016   -5.7102   18.8840 C.3     1  UNL1        0.1352
     11 C         -14.9793   -4.3792   18.5819 C.3     1  UNL1        0.1692
     12 O         -15.7972   -3.1267   18.6920 O.3     1  UNL1       -0.3446
     13 H         -14.9966  -10.4200   19.1641 H       1  UNL1        0.1442
     14 H         -13.6430   -9.4950   18.6952 H       1  UNL1        0.1442
     15 C         -14.1615   -5.6318   18.4717 C.ar    1  UNL1        0.0278
     16 C         -13.7853   -5.7857   17.0278 C.ar    1  UNL1        0.0021
     17 C         -12.3452   -5.7073   16.6155 C.ar    1  UNL1        0.0295
     18 C         -11.2813   -5.4750   17.6472 C.ar    1  UNL1        0.1424
     19 F          -9.8412   -5.3967   17.2349 F       1  UNL1       -0.2041
     20 C         -11.6575   -5.3212   19.0910 C.ar    1  UNL1        0.0590
     21 C         -13.0976   -5.3995   19.5033 C.ar    1  UNL1        0.1402
     22 F         -13.4739   -5.2456   20.9471 F       1  UNL1       -0.2044
     23 C         -19.7098    1.0204   21.0826 C.3     1  UNL1        0.0556
     24 C         -19.1916   -0.0102   20.1238 C.ar    1  UNL1        0.0997
     25 C         -19.4356   -0.0394   18.6440 C.ar    1  UNL1        0.1958
     26 O         -18.7332   -1.2397   18.0820 O.2     1  UNL1       -0.4331
     27 C         -18.0551   -1.9524   19.2144 C.ar    1  UNL1        0.2327
     28 N         -18.3384   -1.1924   20.4763 N.ar    1  UNL1       -0.2144
@<TRIPOS>BOND
     1    23    24    1
     2    24    25   ar
     3    25    26   ar
     4    26    27   ar
     5     1    27    1
     6     1     2    1
     7     3     2    1
     8     3     4    1
     9     4     5    1
    10     4     6    1
    11     6     7    1
    12     7     8    1
    13     7     9    2
    14     9    10    1
    15    10    15    1
    16    15    16   ar
    17    16    17   ar
    18    17    18   ar
    19    18    19    1
    20    18    20   ar
    21    20    21   ar
    22    21    22    1
    23    10    11    1
    24    11    12    1
    25    27    28   ar
    26    28    24   ar
    27    12     1    1
    28    10     3    1
    29    21    15   ar
    30     8    13    1
    31     8    14    1
@<TRIPOS>MOLECULE
*****
 28 31 0 0 0
SMALL
GASTEIGER

@<TRIPOS>ATOM
      1 C           2.2968    0.1729   30.5069 C.3     1  UNL1        0.1910
      2 C           2.2934    0.9447   31.7931 C.3     1  UNL1        0.0423
      3 C           3.3709    0.7120   32.8102 C.3     1  UNL1        0.0404
      4 C           3.3676    1.4838   34.0965 C.3     1  UNL1        0.0569
      5 C           2.2865    2.4883   34.3655 C.3     1  UNL1        0.0122
      6 S           4.4451    1.2511   35.1136 S.3     1  UNL1       -0.0816
      7 C           5.5261    0.2466   34.8446 C.2     1  UNL1        0.1482
      8 N           6.6038    0.0139   35.8618 N.pl3   1  UNL1       -0.3380
      9 N           5.5296   -0.5252   33.5584 N.2     1  UNL1       -0.2484
     10 C           4.4519   -0.2925   32.5412 C.3     1  UNL1        0.1352
     11 C           4.4554   -1.0643   31.2550 C.3     1  UNL1        0.1692
     12 O           3.3778   -0.8316   30.2379 O.3     1  UNL1       -0.3446
     13 H           6.6015    0.5204   36.7060 H       1  UNL1        0.1442
     14 H           7.3133   -0.6454   35.6853 H       1  UNL1        0.1442
     15 C           5.5330   -1.2970   32.2722 C.ar    1  UNL1        0.0278
     16 C           6.7853   -0.8786   31.5603 C.ar    1  UNL1        0.0021
     17 C           7.8663   -1.8831   31.2913 C.ar    1  UNL1        0.0295
     18 C           7.6950   -3.3060   31.7341 C.ar    1  UNL1        0.1424
     19 F           8.7760   -4.3105   31.4650 F       1  UNL1       -0.2041
     20 C           6.4427   -3.7244   32.4459 C.ar    1  UNL1        0.0590
     21 C           5.3617   -2.7199   32.7149 C.ar    1  UNL1        0.1402
     22 F           4.1094   -3.1382   33.4268 F       1  UNL1       -0.2044
     23 C          -0.1864    1.4276   26.0191 C.3     1  UNL1        0.0556
     24 C           0.0778    0.9823   27.4269 C.ar    1  UNL1        0.0997
     25 C          -0.9560    0.5450   28.4220 C.ar    1  UNL1        0.1958
     26 O          -0.2505    0.1886   29.6969 O.2     1  UNL1       -0.4331
     27 C           1.2192    0.4056   29.4897 C.ar    1  UNL1        0.2327
     28 N           1.4221    0.8962   28.0868 N.ar    1  UNL1       -0.2144
@<TRIPOS>BOND
     1    23    24    1
     2    24    25   ar
     3    25    26   ar
     4    26    27   ar
     5     1    27    1
     6     1     2    1
     7     3     2    1
     8     3     4    1
     9     4     5    1
    10     4     6    1
    11     6     7    1
    12     7     8    1
    13     7     9    2
    14     9    10    1
    15    10    15    1
    16    15    16   ar
    17    16    17   ar
    18    17    18   ar
    19    18    19    1
    20    18    20   ar
    21    20    21   ar
    22    21    22    1
    23    10    11    1
    24    11    12    1
    25    27    28   ar
    26    28    24   ar
    27    12     1    1
    28    10     3    1
    29    21    15   ar
    30     8    13    1
    31     8    14    1
@<TRIPOS>MOLECULE
*****
 28 31 0 0 0
SMALL
GASTEIGER

@<TRIPOS>ATOM
      1 C           6.3266   -3.5599   22.6802 C.3     1  UNL1        0.1910
      2 C           7.1785   -3.2303   21.4905 C.3     1  UNL1        0.0423
      3 C           6.6924   -2.2443   20.4700 C.3     1  UNL1        0.0404
      4 C           7.5443   -1.9147   19.2801 C.3     1  UNL1        0.0569
      5 C           8.8824   -2.5711   19.1109 C.3     1  UNL1        0.0122
      6 S           7.0581   -0.9287   18.2597 S.3     1  UNL1       -0.0816
      7 C           5.7200   -0.2723   18.4289 C.2     1  UNL1        0.1482
      8 N           5.2339    0.7137   17.4084 N.pl3   1  UNL1       -0.3380
      9 N           4.8681   -0.6019   19.6187 N.2     1  UNL1       -0.2484
     10 C           5.3543   -1.5879   20.6393 C.3     1  UNL1        0.1352
     11 C           4.5024   -1.9175   21.8290 C.3     1  UNL1        0.1692
     12 O           4.9885   -2.9035   22.8495 O.3     1  UNL1       -0.3446
     13 H           5.7930    0.9300   16.6275 H       1  UNL1        0.1442
     14 H           4.3556    1.1446   17.5194 H       1  UNL1        0.1442
     15 C           4.0162   -0.9315   20.8085 C.ar    1  UNL1        0.0278
     16 C           3.8940    0.3238   21.6205 C.ar    1  UNL1        0.0021
     17 C           2.5559    0.9802   21.7898 C.ar    1  UNL1        0.0295
     18 C           1.3400    0.3813   21.1471 C.ar    1  UNL1        0.1424
     19 F           0.0019    1.0377   21.3163 F       1  UNL1       -0.2041
     20 C           1.4623   -0.8740   20.3351 C.ar    1  UNL1        0.0590
     21 C           2.8004   -1.5304   20.1659 C.ar    1  UNL1        0.1402
     22 F           2.9226   -2.7857   19.3539 F       1  UNL1       -0.2044
     23 C           8.7163   -7.6999   24.9232 C.3     1  UNL1        0.0556
     24 C           7.9112   -6.4488   24.7318 C.ar    1  UNL1        0.0997
     25 C           7.2105   -5.6775   25.8108 C.ar    1  UNL1        0.1958
     26 O           6.5317   -4.5014   25.1736 O.2     1  UNL1       -0.4331
     27 C           6.8128   -4.5459   23.7008 C.ar    1  UNL1        0.2327
     28 N           7.6654   -5.7494   23.4278 N.ar    1  UNL1       -0.2144
@<TRIPOS>BOND
     1    23    24    1
     2    24    25   ar
     3    25    26   ar
     4    26    27   ar
     5     1    27    1
     6     1     2    1
     7     3     2    1
     8     3     4    1
     9     4     5    1
    10     4     6    1
    11     6     7    1
    12     7     8    1
    13     7     9    2
    14     9    10    1
    15    10    15    1
    16    15    16   ar
    17    16    17   ar
    18    17    18   ar
    19    18    19    1
    20    18    20   ar
    21    20    21   ar
    22    21    22    1
    23    10    11    1
    24    11    12    1
    25    27    28   ar
    26    28    24   ar
    27    12     1    1
    28    10     3    1
    29    21    15   ar
    30     8    13    1
    31     8    14    1
@<TRIPOS>MOLECULE
*****
 28 31 0 0 0
SMALL
GASTEIGER

@<TRIPOS>ATOM
      1 C           2.2511    0.0730   30.2714 C.3     1  UNL1        0.1910
      2 C           3.3880   -0.6546   29.6173 C.3     1  UNL1        0.0423
      3 C           4.6393   -0.9426   30.3926 C.3     1  UNL1        0.0404
      4 C           5.7763   -1.6703   29.7385 C.3     1  UNL1        0.0569
      5 C           5.6619   -2.1098   28.3089 C.3     1  UNL1        0.0122
      6 S           7.0276   -1.9583   30.5139 S.3     1  UNL1       -0.0816
      7 C           7.1420   -1.5187   31.9434 C.2     1  UNL1        0.1482
      8 N           8.3933   -1.8067   32.7188 N.pl3   1  UNL1       -0.3380
      9 N           6.0051   -0.7911   32.5976 N.2     1  UNL1       -0.2484
     10 C           4.7537   -0.5030   31.8222 C.3     1  UNL1        0.1352
     11 C           3.6168    0.2245   32.4764 C.3     1  UNL1        0.1692
     12 O           2.3655    0.5126   31.7010 O.3     1  UNL1       -0.3446
     13 H           9.1395   -2.2843   32.2895 H       1  UNL1        0.1442
     14 H           8.4684   -1.5182   33.6571 H       1  UNL1        0.1442
     15 C           4.8681   -0.0635   33.2518 C.ar    1  UNL1        0.0278
     16 C           5.3306    1.3266   33.5743 C.ar    1  UNL1        0.0021
     17 C           5.4449    1.7661   35.0039 C.ar    1  UNL1        0.0295
     18 C           5.0968    0.8157   36.1110 C.ar    1  UNL1        0.1424
     19 F           5.2112    1.2553   37.5405 F       1  UNL1       -0.2041
     20 C           4.6343   -0.5743   35.7884 C.ar    1  UNL1        0.0590
     21 C           4.5200   -1.0139   34.3588 C.ar    1  UNL1        0.1402
     22 F           4.0575   -2.4038   34.0363 F       1  UNL1       -0.2044
     23 C          -1.2351    2.3621   27.0330 C.3     1  UNL1        0.0556
     24 C          -0.6027    1.4132   28.0075 C.ar    1  UNL1        0.0997
     25 C          -1.2491    0.1953   28.5983 C.ar    1  UNL1        0.1958
     26 O          -0.2587   -0.4550   29.5182 O.2     1  UNL1       -0.4331
     27 C           0.9997    0.3610   29.4960 C.ar    1  UNL1        0.2327
     28 N           0.7871    1.5156   28.5624 N.ar    1  UNL1       -0.2144
@<TRIPOS>BOND
     1    23    24    1
     2    24    25   ar
     3    25    26   ar
     4    26    27   ar
     5     1    27    1
     6     1     2    1
     7     3     2    1
     8     3     4    1
     9     4     5    1
    10     4     6    1
    11     6     7    1
    12     7     8    1
    13     7     9    2
    14     9    10    1
    15    10    15    1
    16    15    16   ar
    17    16    17   ar
    18    17    18   ar
    19    18    19    1
    20    18    20   ar
    21    20    21   ar
    22    21    22    1
    23    10    11    1
    24    11    12    1
    25    27    28   ar
    26    28    24   ar
    27    12     1    1
    28    10     3    1
    29    21    15   ar
    30     8    13    1
    31     8    14    1
@<TRIPOS>MOLECULE
*****
 28 31 0 0 0
SMALL
GASTEIGER

@<TRIPOS>ATOM
      1 C           3.1698   -0.3380   23.4413 C.3     1  UNL1        0.1910
      2 C           3.6765   -1.4993   22.6384 C.3     1  UNL1        0.0423
      3 C           3.6812   -1.4301   21.1401 C.3     1  UNL1        0.0404
      4 C           4.1878   -2.5915   20.3372 C.3     1  UNL1        0.0569
      5 C           4.6898   -3.8220   21.0327 C.3     1  UNL1        0.0122
      6 S           4.1925   -2.5222   18.8388 S.3     1  UNL1       -0.0816
      7 C           3.6906   -1.2917   18.1433 C.2     1  UNL1        0.1482
      8 N           3.6953   -1.2225   16.6448 N.pl3   1  UNL1       -0.3380
      9 N           3.1839   -0.1303   18.9461 N.2     1  UNL1       -0.2484
     10 C           3.1792   -0.1995   20.4445 C.3     1  UNL1        0.1352
     11 C           2.6726    0.9618   21.2474 C.3     1  UNL1        0.1692
     12 O           2.6679    0.8926   22.7457 O.3     1  UNL1       -0.3446
     13 H           4.0279   -1.9847   16.1179 H       1  UNL1        0.1442
     14 H           3.3659   -0.4148   16.1883 H       1  UNL1        0.1442
     15 C           2.6773    1.0310   19.7490 C.ar    1  UNL1        0.0278
     16 C           3.6221    2.1527   19.4342 C.ar    1  UNL1        0.0021
     17 C           3.1202    3.3833   18.7387 C.ar    1  UNL1        0.0295
     18 C           1.6734    3.4921   18.3579 C.ar    1  UNL1        0.1424
     19 F           1.1714    4.7227   17.6624 F       1  UNL1       -0.2041
     20 C           0.7286    2.3705   18.6727 C.ar    1  UNL1        0.0590
     21 C           1.2305    1.1399   19.3683 C.ar    1  UNL1        0.1402
     22 F           0.2857    0.0182   19.6831 F       1  UNL1       -0.2044
     23 C           2.3549    0.8515   28.5209 C.3     1  UNL1        0.0556
     24 C           2.7905    0.1395   27.2745 C.ar    1  UNL1        0.0997
     25 C           3.5252   -1.1670   27.2165 C.ar    1  UNL1        0.1958
     26 O           3.7567   -1.5049   25.7735 O.2     1  UNL1       -0.4331
     27 C           3.1651   -0.4072   24.9397 C.ar    1  UNL1        0.2327
     28 N           2.5680    0.6091   25.8674 N.ar    1  UNL1       -0.2144
@<TRIPOS>BOND
     1    23    24    1
     2    24    25   ar
     3    25    26   ar
     4    26    27   ar
     5     1    27    1
     6     1     2    1
     7     3     2    1
     8     3     4    1
     9     4     5    1
    10     4     6    1
    11     6     7    1
    12     7     8    1
    13     7     9    2
    14     9    10    1
    15    10    15    1
    16    15    16   ar
    17    16    17   ar
    18    17    18   ar
    19    18    19    1
    20    18    20   ar
    21    20    21   ar
    22    21    22    1
    23    10    11    1
    24    11    12    1
    25    27    28   ar
    26    28    24   ar
    27    12     1    1
    28    10     3    1
    29    21    15   ar
    30     8    13    1
    31     8    14    1
@<TRIPOS>MOLECULE
*****
 28 31 0 0 0
SMALL
GASTEIGER

@<TRIPOS>ATOM
      1 C           3.5921    0.1141   32.3828 C.3     1  UNL1        0.1910
      2 C           4.5365   -0.6074   31.4677 C.3     1  UNL1        0.0423
      3 C           4.2256   -0.7175   30.0044 C.3     1  UNL1        0.0404
      4 C           5.1699   -1.4391   29.0892 C.3     1  UNL1        0.0569
      5 C           6.4252   -2.0505   29.6373 C.3     1  UNL1        0.0122
      6 S           4.8590   -1.5492   27.6260 S.3     1  UNL1       -0.0816
      7 C           3.6037   -0.9378   27.0778 C.2     1  UNL1        0.1482
      8 N           3.2928   -1.0480   25.6145 N.pl3   1  UNL1       -0.3380
      9 N           2.6594   -0.2163   27.9930 N.2     1  UNL1       -0.2484
     10 C           2.9703   -0.1061   29.4563 C.3     1  UNL1        0.1352
     11 C           2.0259    0.6154   30.3715 C.3     1  UNL1        0.1692
     12 O           2.3369    0.7255   31.8347 O.3     1  UNL1       -0.3446
     13 H           3.9127   -1.5215   25.0139 H       1  UNL1        0.1442
     14 H           2.4690   -0.6467   25.2547 H       1  UNL1        0.1442
     15 C           1.7150    0.5053   28.9082 C.ar    1  UNL1        0.0278
     16 C           0.4385   -0.2825   28.9003 C.ar    1  UNL1        0.0021
     17 C          -0.8168    0.3289   28.3522 C.ar    1  UNL1        0.0295
     18 C          -0.7956    1.7282   27.8120 C.ar    1  UNL1        0.1424
     19 F          -2.0508    2.3396   27.2639 F       1  UNL1       -0.2041
     20 C           0.4809    2.5159   27.8199 C.ar    1  UNL1        0.0590
     21 C           1.7362    1.9045   28.3680 C.ar    1  UNL1        0.1402
     22 F           3.0126    2.6922   28.3760 F       1  UNL1       -0.2044
     23 C           4.0100    1.9908   37.3006 C.3     1  UNL1        0.0556
     24 C           4.0951    1.0869   36.1066 C.ar    1  UNL1        0.0997
     25 C           4.6678   -0.2995   36.0893 C.ar    1  UNL1        0.1958
     26 O           4.5491   -0.8325   34.6922 O.2     1  UNL1       -0.4331
     27 C           3.9030    0.2243   33.8462 C.ar    1  UNL1        0.2327
     28 N           3.6225    1.4105   34.7203 N.ar    1  UNL1       -0.2144
@<TRIPOS>BOND
     1    23    24    1
     2    24    25   ar
     3    25    26   ar
     4    26    27   ar
     5     1    27    1
     6     1     2    1
     7     3     2    1
     8     3     4    1
     9     4     5    1
    10     4     6    1
    11     6     7    1
    12     7     8    1
    13     7     9    2
    14     9    10    1
    15    10    15    1
    16    15    16   ar
    17    16    17   ar
    18    17    18   ar
    19    18    19    1
    20    18    20   ar
    21    20    21   ar
    22    21    22    1
    23    10    11    1
    24    11    12    1
    25    27    28   ar
    26    28    24   ar
    27    12     1    1
    28    10     3    1
    29    21    15   ar
    30     8    13    1
    31     8    14    1
@<TRIPOS>MOLECULE
*****
 28 31 0 0 0
SMALL
GASTEIGER

@<TRIPOS>ATOM
      1 C           3.5588   -0.7715   24.5911 C.3     1  UNL1        0.1910
      2 C           4.4045   -1.8912   24.0610 C.3     1  UNL1        0.0423
      3 C           4.4661   -2.1506   22.5849 C.3     1  UNL1        0.0404
      4 C           5.3118   -3.2703   22.0547 C.3     1  UNL1        0.0569
      5 C           6.0960   -4.1306   23.0008 C.3     1  UNL1        0.0122
      6 S           5.3734   -3.5296   20.5786 S.3     1  UNL1       -0.0816
      7 C           4.5892   -2.6693   19.6326 C.2     1  UNL1        0.1482
      8 N           4.6508   -2.9287   18.1565 N.pl3   1  UNL1       -0.3380
      9 N           3.7435   -1.5497   20.1627 N.2     1  UNL1       -0.2484
     10 C           3.6819   -1.2903   21.6389 C.3     1  UNL1        0.1352
     11 C           2.8361   -0.1706   22.1690 C.3     1  UNL1        0.1692
     12 O           2.7746    0.0888   23.6451 O.3     1  UNL1       -0.3446
     13 H           5.2059   -3.6636   17.8086 H       1  UNL1        0.1442
     14 H           4.1361   -2.3641   17.5356 H       1  UNL1        0.1442
     15 C           2.8977   -0.4300   20.6929 C.ar    1  UNL1        0.0278
     16 C           1.4511   -0.7284   20.4314 C.ar    1  UNL1        0.0021
     17 C           0.6669    0.1319   19.4854 C.ar    1  UNL1        0.0295
     18 C           1.3293    1.2906   18.8009 C.ar    1  UNL1        0.1424
     19 F           0.5451    2.1509   17.8549 F       1  UNL1       -0.2041
     20 C           2.7759    1.5891   19.0623 C.ar    1  UNL1        0.0590
     21 C           3.5600    0.7288   20.0084 C.ar    1  UNL1        0.1402
     22 F           5.0066    1.0272   20.2698 F       1  UNL1       -0.2044
     23 C           3.2811    1.7019   29.2480 C.3     1  UNL1        0.0556
     24 C           3.3696    0.6247   28.2077 C.ar    1  UNL1        0.0997
     25 C           3.4353   -0.8508   28.4698 C.ar    1  UNL1        0.1958
     26 O           3.5141   -1.5534   27.1469 O.2     1  UNL1       -0.4331
     27 C           3.4972   -0.5121   26.0672 C.ar    1  UNL1        0.2327
     28 N           3.4078    0.8340   26.7229 N.ar    1  UNL1       -0.2144
@<TRIPOS>BOND
     1    23    24    1
     2    24    25   ar
     3    25    26   ar
     4    26    27   ar
     5     1    27    1
     6     1     2    1
     7     3     2    1
     8     3     4    1
     9     4     5    1
    10     4     6    1
    11     6     7    1
    12     7     8    1
    13     7     9    2
    14     9    10    1
    15    10    15    1
    16    15    16   ar
    17    16    17   ar
    18    17    18   ar
    19    18    19    1
    20    18    20   ar
    21    20    21   ar
    22    21    22    1
    23    10    11    1
    24    11    12    1
    25    27    28   ar
    26    28    24   ar
    27    12     1    1
    28    10     3    1
    29    21    15   ar
    30     8    13    1
    31     8    14    1
