@<TRIPOS>MOLECULE
*****
 26 29 0 0 0
SMALL
GASTEIGER

@<TRIPOS>ATOM
      1 C          -2.8904  -20.0873   21.3876 C.3     1  UNL1        0.0318
      2 C          -3.4946  -18.9086   22.0916 C.ar    1  UNL1       -0.0088
      3 C          -2.7558  -17.9102   22.9327 C.ar    1  UNL1        0.0328
      4 S          -3.7483  -16.9059   23.4390 S.2     1  UNL1       -0.0693
      5 C          -5.1005  -17.2836   22.9108 C.ar    1  UNL1        0.0982
      6 C          -4.9436  -18.5213   22.0781 C.ar    1  UNL1        0.0749
      7 C          -6.1406  -19.1358   21.4151 C.ar    1  UNL1        0.2658
      8 O          -5.9839  -20.3735   20.5823 O.2     1  UNL1       -0.2668
      9 N          -7.4945  -18.5125   21.5848 N.ar    1  UNL1       -0.2484
     10 C          -7.6512  -17.2749   22.4175 C.ar    1  UNL1        0.3342
     11 O          -9.0051  -16.6516   22.5873 O.2     1  UNL1       -0.2462
     12 N          -6.4543  -16.6603   23.0806 N.ar    1  UNL1       -0.2732
     13 C          -8.6915  -19.1270   20.9218 C.3     1  UNL1        0.1182
     14 C          -9.6959  -19.8836   21.7396 C.3     1  UNL1        0.0511
     15 C         -10.9050  -19.1802   22.2810 C.ar    1  UNL1       -0.0202
     16 C         -11.1995  -19.2189   23.7513 C.ar    1  UNL1       -0.0042
     17 C         -12.4087  -18.5154   24.2927 C.ar    1  UNL1       -0.0003
     18 C         -13.3232  -17.7733   23.3639 C.ar    1  UNL1       -0.0000
     19 C         -13.0287  -17.7346   21.8936 C.ar    1  UNL1       -0.0003
     20 C         -11.8196  -18.4380   21.3521 C.ar    1  UNL1       -0.0042
     21 C          -6.6111  -15.4226   23.9133 C.3     1  UNL1        0.1404
     22 C          -6.9932  -15.5351   25.3595 C.3     1  UNL1        0.1379
     23 C          -8.3909  -15.5474   25.9038 C.3     1  UNL1        0.0341
     24 C          -8.3061  -15.6749   27.3959 C.3     1  UNL1        0.0346
     25 C          -6.8561  -15.7414   27.7739 C.3     1  UNL1        0.1422
     26 O          -6.0446  -15.6550   26.5153 O.3     1  UNL1       -0.3543
@<TRIPOS>BOND
     1     1     2    1
     2     2     3   ar
     3     3     4   ar
     4     4     5   ar
     5     5     6   ar
     6     6     7   ar
     7     7     8    2
     8     7     9   ar
     9     9    13    1
    10    13    14    1
    11    14    15    1
    12    15    16   ar
    13    16    17   ar
    14    17    18   ar
    15    18    19   ar
    16    19    20   ar
    17     9    10   ar
    18    10    11    2
    19    10    12   ar
    20    12    21    1
    21    21    22    1
    22    22    23    1
    23    23    24    1
    24    24    25    1
    25    25    26    1
    26     6     2   ar
    27    20    15   ar
    28    26    22    1
    29    12     5   ar
@<TRIPOS>MOLECULE
*****
 26 29 0 0 0
SMALL
GASTEIGER

@<TRIPOS>ATOM
      1 C          -4.9143  -15.5337   25.1173 C.3     1  UNL1        0.0318
      2 C          -6.2188  -15.7243   24.4018 C.ar    1  UNL1       -0.0088
      3 C          -7.4343  -14.8559   24.5382 C.ar    1  UNL1        0.0328
      4 S          -8.5036  -15.4116   23.6450 S.2     1  UNL1       -0.0693
      5 C          -7.9490  -16.6234   22.9566 C.ar    1  UNL1        0.0982
      6 C          -6.5370  -16.8166   23.4243 C.ar    1  UNL1        0.0749
      7 C          -5.7232  -17.9623   22.8997 C.ar    1  UNL1        0.2658
      8 O          -4.3111  -18.1556   23.3673 O.2     1  UNL1       -0.2668
      9 N          -6.3216  -18.9148   21.9072 N.ar    1  UNL1       -0.2484
     10 C          -7.7336  -18.7215   21.4396 C.ar    1  UNL1        0.3342
     11 O          -8.3320  -19.6740   20.4471 O.2     1  UNL1       -0.2462
     12 N          -8.5473  -17.5759   21.9642 N.ar    1  UNL1       -0.2732
     13 C          -5.5079  -20.0605   21.3826 C.3     1  UNL1        0.1182
     14 C          -4.8290  -19.9499   20.0495 C.3     1  UNL1        0.0511
     15 C          -3.5234  -19.2211   19.9310 C.ar    1  UNL1       -0.0202
     16 C          -3.3267  -18.2066   18.8437 C.ar    1  UNL1       -0.0042
     17 C          -2.0210  -17.4779   18.7252 C.ar    1  UNL1       -0.0003
     18 C          -0.9120  -17.7636   19.6939 C.ar    1  UNL1       -0.0000
     19 C          -1.1087  -18.7781   20.7812 C.ar    1  UNL1       -0.0003
     20 C          -2.4143  -19.5069   20.8998 C.ar    1  UNL1       -0.0042
     21 C          -9.9594  -17.3827   21.4965 C.3     1  UNL1        0.1404
     22 C         -11.1034  -17.7037   22.4121 C.3     1  UNL1        0.1379
     23 C         -12.5384  -17.3239   22.1969 C.3     1  UNL1        0.0341
     24 C         -13.3350  -17.8464   23.3554 C.3     1  UNL1        0.0346
     25 C         -12.3923  -18.5491   24.2868 C.3     1  UNL1        0.1422
     26 O         -11.0131  -18.4609   23.7038 O.3     1  UNL1       -0.3543
@<TRIPOS>BOND
     1     1     2    1
     2     2     3   ar
     3     3     4   ar
     4     4     5   ar
     5     5     6   ar
     6     6     7   ar
     7     7     8    2
     8     7     9   ar
     9     9    13    1
    10    13    14    1
    11    14    15    1
    12    15    16   ar
    13    16    17   ar
    14    17    18   ar
    15    18    19   ar
    16    19    20   ar
    17     9    10   ar
    18    10    11    2
    19    10    12   ar
    20    12    21    1
    21    21    22    1
    22    22    23    1
    23    23    24    1
    24    24    25    1
    25    25    26    1
    26     6     2   ar
    27    20    15   ar
    28    26    22    1
    29    12     5   ar
@<TRIPOS>MOLECULE
*****
 26 29 0 0 0
SMALL
GASTEIGER

@<TRIPOS>ATOM
      1 C          -8.6977  -20.1794   19.2197 C.3     1  UNL1        0.0318
      2 C          -7.3656  -20.0291   19.8928 C.ar    1  UNL1       -0.0088
      3 C          -6.1529  -20.8770   19.6470 C.ar    1  UNL1        0.0328
      4 S          -5.0502  -20.3765   20.5323 S.2     1  UNL1       -0.0693
      5 C          -5.5814  -19.2193   21.3252 C.ar    1  UNL1        0.0982
      6 C          -7.0124  -19.0047   20.9300 C.ar    1  UNL1        0.0749
      7 C          -7.8090  -17.9040   21.5656 C.ar    1  UNL1        0.2658
      8 O          -9.2401  -17.6893   21.1704 O.2     1  UNL1       -0.2668
      9 N          -7.1745  -17.0181   22.5964 N.ar    1  UNL1       -0.2484
     10 C          -5.7436  -17.2327   22.9916 C.ar    1  UNL1        0.3342
     11 O          -5.1091  -16.3468   24.0225 O.2     1  UNL1       -0.2462
     12 N          -4.9470  -18.3334   22.3560 N.ar    1  UNL1       -0.2732
     13 C          -7.9712  -15.9174   23.2321 C.3     1  UNL1        0.1182
     14 C          -8.9605  -16.2359   24.3137 C.3     1  UNL1        0.0511
     15 C         -10.2963  -16.8193   23.9601 C.ar    1  UNL1       -0.0202
     16 C         -10.6897  -18.1670   24.4883 C.ar    1  UNL1       -0.0042
     17 C         -12.0255  -18.7505   24.1347 C.ar    1  UNL1       -0.0003
     18 C         -12.9680  -17.9862   23.2529 C.ar    1  UNL1       -0.0000
     19 C         -12.5747  -16.6385   22.7247 C.ar    1  UNL1       -0.0003
     20 C         -11.2389  -16.0550   23.0783 C.ar    1  UNL1       -0.0042
     21 C          -3.5160  -18.5480   22.7512 C.3     1  UNL1        0.1404
     22 C          -2.4113  -18.1084   21.8366 C.3     1  UNL1        0.1379
     23 C          -2.0476  -16.6899   21.5118 C.3     1  UNL1        0.0341
     24 C          -0.8879  -16.7149   20.5608 C.3     1  UNL1        0.0346
     25 C          -0.5349  -18.1488   20.2978 C.3     1  UNL1        0.1422
     26 O          -1.4764  -19.0101   21.0863 O.3     1  UNL1       -0.3543
@<TRIPOS>BOND
     1     1     2    1
     2     2     3   ar
     3     3     4   ar
     4     4     5   ar
     5     5     6   ar
     6     6     7   ar
     7     7     8    2
     8     7     9   ar
     9     9    13    1
    10    13    14    1
    11    14    15    1
    12    15    16   ar
    13    16    17   ar
    14    17    18   ar
    15    18    19   ar
    16    19    20   ar
    17     9    10   ar
    18    10    11    2
    19    10    12   ar
    20    12    21    1
    21    21    22    1
    22    22    23    1
    23    23    24    1
    24    24    25    1
    25    25    26    1
    26     6     2   ar
    27    20    15   ar
    28    26    22    1
    29    12     5   ar
@<TRIPOS>MOLECULE
*****
 26 29 0 0 0
SMALL
GASTEIGER

@<TRIPOS>ATOM
      1 C          -5.1566  -15.2706   25.2985 C.3     1  UNL1        0.0318
      2 C          -6.5120  -15.6799   24.8032 C.ar    1  UNL1       -0.0088
      3 C          -7.8221  -15.0845   25.2264 C.ar    1  UNL1        0.0328
      4 S          -8.9151  -15.7930   24.4825 S.2     1  UNL1       -0.0693
      5 C          -8.2805  -16.8262   23.5995 C.ar    1  UNL1        0.0982
      6 C          -6.7953  -16.7563   23.7977 C.ar    1  UNL1        0.0749
      7 C          -5.8928  -17.6818   23.0370 C.ar    1  UNL1        0.2658
      8 O          -4.4075  -17.6120   23.2351 O.2     1  UNL1       -0.2668
      9 N          -6.4755  -18.6773   22.0780 N.ar    1  UNL1       -0.2484
     10 C          -7.9606  -18.7472   21.8798 C.ar    1  UNL1        0.3342
     11 O          -8.5433  -19.7427   20.9209 O.2     1  UNL1       -0.2462
     12 N          -8.8632  -17.8217   22.6406 N.ar    1  UNL1       -0.2732
     13 C          -5.5729  -19.6029   21.3172 C.3     1  UNL1        0.1182
     14 C          -4.9894  -19.1707   20.0047 C.3     1  UNL1        0.0511
     15 C          -3.5392  -18.7979   19.9151 C.ar    1  UNL1       -0.0202
     16 C          -2.5714  -19.2972   20.9466 C.ar    1  UNL1       -0.0042
     17 C          -1.1212  -18.9245   20.8569 C.ar    1  UNL1       -0.0003
     18 C          -0.6389  -18.0524   19.7358 C.ar    1  UNL1       -0.0000
     19 C          -1.6068  -17.5530   18.7044 C.ar    1  UNL1       -0.0003
     20 C          -3.0570  -17.9258   18.7940 C.ar    1  UNL1       -0.0042
     21 C         -10.3484  -17.8916   22.4423 C.3     1  UNL1        0.1404
     22 C         -11.0008  -17.0746   21.3666 C.3     1  UNL1        0.1379
     23 C         -12.4769  -16.9076   21.1592 C.3     1  UNL1        0.0341
     24 C         -12.6799  -16.0111   19.9740 C.3     1  UNL1        0.0346
     25 C         -11.3293  -15.6241   19.4488 C.3     1  UNL1        0.1422
     26 O         -10.2915  -16.2814   20.3095 O.3     1  UNL1       -0.3543
@<TRIPOS>BOND
     1     1     2    1
     2     2     3   ar
     3     3     4   ar
     4     4     5   ar
     5     5     6   ar
     6     6     7   ar
     7     7     8    2
     8     7     9   ar
     9     9    13    1
    10    13    14    1
    11    14    15    1
    12    15    16   ar
    13    16    17   ar
    14    17    18   ar
    15    18    19   ar
    16    19    20   ar
    17     9    10   ar
    18    10    11    2
    19    10    12   ar
    20    12    21    1
    21    21    22    1
    22    22    23    1
    23    23    24    1
    24    24    25    1
    25    25    26    1
    26     6     2   ar
    27    20    15   ar
    28    26    22    1
    29    12     5   ar
@<TRIPOS>MOLECULE
*****
 26 29 0 0 0
SMALL
GASTEIGER

@<TRIPOS>ATOM
      1 C         -12.7914  -17.7596   21.2764 C.3     1  UNL1        0.0318
      2 C         -11.5542  -18.5812   21.4877 C.ar    1  UNL1       -0.0088
      3 C         -11.4694  -20.0777   21.4315 C.ar    1  UNL1        0.0328
      4 S         -10.0475  -20.4718   21.7013 S.2     1  UNL1       -0.0693
      5 C          -9.2535  -19.2189   21.9242 C.ar    1  UNL1        0.0982
      6 C         -10.1848  -18.0504   21.7922 C.ar    1  UNL1        0.0749
      7 C          -9.6654  -16.6540   21.9664 C.ar    1  UNL1        0.2658
      8 O         -10.5966  -15.4854   21.8344 O.2     1  UNL1       -0.2668
      9 N          -8.2147  -16.4262   22.2726 N.ar    1  UNL1       -0.2484
     10 C          -7.2835  -17.5946   22.4046 C.ar    1  UNL1        0.3342
     11 O          -5.8328  -17.3668   22.7108 O.2     1  UNL1       -0.2462
     12 N          -7.8029  -18.9910   22.2304 N.ar    1  UNL1       -0.2732
     13 C          -7.6953  -15.0297   22.4468 C.3     1  UNL1        0.1182
     14 C          -7.8829  -14.3173   23.7534 C.3     1  UNL1        0.0511
     15 C          -7.5027  -14.9930   25.0374 C.ar    1  UNL1       -0.0202
     16 C          -8.5693  -15.4923   25.9666 C.ar    1  UNL1       -0.0042
     17 C          -8.1891  -16.1681   27.2506 C.ar    1  UNL1       -0.0003
     18 C          -6.7424  -16.3445   27.6055 C.ar    1  UNL1       -0.0000
     19 C          -5.6759  -15.8452   26.6764 C.ar    1  UNL1       -0.0003
     20 C          -6.0560  -15.1695   25.3923 C.ar    1  UNL1       -0.0042
     21 C          -6.8716  -20.1595   22.3624 C.3     1  UNL1        0.1404
     22 C          -5.5896  -20.1885   21.5841 C.3     1  UNL1        0.1379
     23 C          -5.4244  -20.6761   20.1752 C.3     1  UNL1        0.0341
     24 C          -3.9805  -20.5240   19.7985 C.3     1  UNL1        0.0346
     25 C          -3.2534  -19.9424   20.9744 C.3     1  UNL1        0.1422
     26 O          -4.2478  -19.7351   22.0780 O.3     1  UNL1       -0.3543
@<TRIPOS>BOND
     1     1     2    1
     2     2     3   ar
     3     3     4   ar
     4     4     5   ar
     5     5     6   ar
     6     6     7   ar
     7     7     8    2
     8     7     9   ar
     9     9    13    1
    10    13    14    1
    11    14    15    1
    12    15    16   ar
    13    16    17   ar
    14    17    18   ar
    15    18    19   ar
    16    19    20   ar
    17     9    10   ar
    18    10    11    2
    19    10    12   ar
    20    12    21    1
    21    21    22    1
    22    22    23    1
    23    23    24    1
    24    24    25    1
    25    25    26    1
    26     6     2   ar
    27    20    15   ar
    28    26    22    1
    29    12     5   ar
@<TRIPOS>MOLECULE
*****
 26 29 0 0 0
SMALL
GASTEIGER

@<TRIPOS>ATOM
      1 C           8.9743   -7.6129   23.7118 C.3     1  UNL1        0.0318
      2 C           8.5057   -7.2392   25.0868 C.ar    1  UNL1       -0.0088
      3 C           8.6807   -8.0586   26.3309 C.ar    1  UNL1        0.0328
      4 S           8.0630   -7.3063   27.4722 S.2     1  UNL1       -0.0693
      5 C           7.5063   -6.0219   26.9334 C.ar    1  UNL1        0.0982
      6 C           7.7799   -5.9804   25.4592 C.ar    1  UNL1        0.0749
      7 C           7.3328   -4.8018   24.6462 C.ar    1  UNL1        0.2658
      8 O           7.6064   -4.7602   23.1720 O.2     1  UNL1       -0.2668
      9 N           6.6120   -3.6646   25.3077 N.ar    1  UNL1       -0.2484
     10 C           6.3384   -3.7061   26.7818 C.ar    1  UNL1        0.3342
     11 O           5.6176   -2.5689   27.4432 O.2     1  UNL1       -0.2462
     12 N           6.7855   -4.8847   27.5948 N.ar    1  UNL1       -0.2732
     13 C           6.1649   -2.4859   24.4947 C.3     1  UNL1        0.1182
     14 C           4.7237   -2.3489   24.1021 C.3     1  UNL1        0.0511
     15 C           4.3212   -2.4917   22.6642 C.ar    1  UNL1       -0.0202
     16 C           3.6597   -1.3482   21.9535 C.ar    1  UNL1       -0.0042
     17 C           3.2573   -1.4910   20.5156 C.ar    1  UNL1       -0.0003
     18 C           3.5163   -2.7771   19.7884 C.ar    1  UNL1       -0.0000
     19 C           4.1777   -3.9205   20.4991 C.ar    1  UNL1       -0.0003
     20 C           4.5802   -3.7778   21.9370 C.ar    1  UNL1       -0.0042
     21 C           6.5119   -4.9262   29.0690 C.3     1  UNL1        0.1404
     22 C           7.3918   -4.1663   30.0168 C.3     1  UNL1        0.1379
     23 C           7.1524   -3.9810   31.4860 C.3     1  UNL1        0.0341
     24 C           8.2782   -3.1585   32.0389 C.3     1  UNL1        0.0346
     25 C           9.2134   -2.8353   30.9116 C.3     1  UNL1        0.1422
     26 O           8.6656   -3.4582   29.6619 O.3     1  UNL1       -0.3543
@<TRIPOS>BOND
     1     1     2    1
     2     2     3   ar
     3     3     4   ar
     4     4     5   ar
     5     5     6   ar
     6     6     7   ar
     7     7     8    2
     8     7     9   ar
     9     9    13    1
    10    13    14    1
    11    14    15    1
    12    15    16   ar
    13    16    17   ar
    14    17    18   ar
    15    18    19   ar
    16    19    20   ar
    17     9    10   ar
    18    10    11    2
    19    10    12   ar
    20    12    21    1
    21    21    22    1
    22    22    23    1
    23    23    24    1
    24    24    25    1
    25    25    26    1
    26     6     2   ar
    27    20    15   ar
    28    26    22    1
    29    12     5   ar
@<TRIPOS>MOLECULE
*****
 26 29 0 0 0
SMALL
GASTEIGER

@<TRIPOS>ATOM
      1 C         -12.4342  -15.8499   22.7114 C.3     1  UNL1        0.0318
      2 C         -11.5339  -16.7688   21.9400 C.ar    1  UNL1       -0.0088
      3 C         -11.9195  -17.5741   20.7347 C.ar    1  UNL1        0.0328
      4 S         -10.7139  -18.3468   20.2882 S.2     1  UNL1       -0.0693
      5 C          -9.5830  -18.0191   21.2177 C.ar    1  UNL1        0.0982
      6 C         -10.0899  -17.0438   22.2385 C.ar    1  UNL1        0.0749
      7 C          -9.1710  -16.5322   23.3079 C.ar    1  UNL1        0.2658
      8 O          -9.6777  -15.5569   24.3288 O.2     1  UNL1       -0.2668
      9 N          -7.7452  -16.9958   23.3566 N.ar    1  UNL1       -0.2484
     10 C          -7.2384  -17.9710   22.3358 C.ar    1  UNL1        0.3342
     11 O          -5.8126  -18.4346   22.3844 O.2     1  UNL1       -0.2462
     12 N          -8.1573  -18.4826   21.2663 N.ar    1  UNL1       -0.2732
     13 C          -6.8262  -16.4841   24.4261 C.3     1  UNL1        0.1182
     14 C          -5.6669  -15.6049   24.0613 C.3     1  UNL1        0.0511
     15 C          -4.4041  -16.2124   23.5263 C.ar    1  UNL1       -0.0202
     16 C          -3.6530  -15.5299   22.4217 C.ar    1  UNL1       -0.0042
     17 C          -2.3902  -16.1374   21.8867 C.ar    1  UNL1       -0.0003
     18 C          -1.8785  -17.4273   22.4562 C.ar    1  UNL1       -0.0000
     19 C          -2.6297  -18.1097   23.5608 C.ar    1  UNL1       -0.0003
     20 C          -3.8925  -17.5023   24.0959 C.ar    1  UNL1       -0.0042
     21 C          -7.6505  -19.4579   20.2455 C.3     1  UNL1        0.1404
     22 C          -6.1745  -19.6277   20.0384 C.3     1  UNL1        0.1379
     23 C          -5.3913  -20.8866   20.2660 C.3     1  UNL1        0.0341
     24 C          -3.9555  -20.6053   19.9357 C.3     1  UNL1        0.0346
     25 C          -3.8513  -19.1726   19.5039 C.3     1  UNL1        0.1422
     26 O          -5.2227  -18.5684   19.5674 O.3     1  UNL1       -0.3543
@<TRIPOS>BOND
     1     1     2    1
     2     2     3   ar
     3     3     4   ar
     4     4     5   ar
     5     5     6   ar
     6     6     7   ar
     7     7     8    2
     8     7     9   ar
     9     9    13    1
    10    13    14    1
    11    14    15    1
    12    15    16   ar
    13    16    17   ar
    14    17    18   ar
    15    18    19   ar
    16    19    20   ar
    17     9    10   ar
    18    10    11    2
    19    10    12   ar
    20    12    21    1
    21    21    22    1
    22    22    23    1
    23    23    24    1
    24    24    25    1
    25    25    26    1
    26     6     2   ar
    27    20    15   ar
    28    26    22    1
    29    12     5   ar
@<TRIPOS>MOLECULE
*****
 26 29 0 0 0
SMALL
GASTEIGER

@<TRIPOS>ATOM
      1 C           4.7272   -3.7164   21.9621 C.3     1  UNL1        0.0318
      2 C           4.3225   -2.5073   22.7522 C.ar    1  UNL1       -0.0088
      3 C           4.8055   -2.1499   24.1266 C.ar    1  UNL1        0.0328
      4 S           4.1453   -0.8649   24.5304 S.2     1  UNL1       -0.0693
      5 C           3.2542   -0.4281   23.4055 C.ar    1  UNL1        0.0982
      6 C           3.3638   -1.4432   22.3066 C.ar    1  UNL1        0.0749
      7 C           2.5764   -1.2674   21.0420 C.ar    1  UNL1        0.2658
      8 O           2.6859   -2.2824   19.9430 O.2     1  UNL1       -0.2668
      9 N           1.6794   -0.0765   20.8765 N.ar    1  UNL1       -0.2484
     10 C           1.5699    0.9385   21.9754 C.ar    1  UNL1        0.3342
     11 O           0.6729    2.1294   21.8099 O.2     1  UNL1       -0.2462
     12 N           2.3573    0.7627   23.2400 N.ar    1  UNL1       -0.2732
     13 C           0.8920    0.0994   19.6119 C.3     1  UNL1        0.1182
     14 C           1.4270    0.9644   18.5094 C.3     1  UNL1        0.0511
     15 C           2.8893    0.9360   18.1764 C.ar    1  UNL1       -0.0202
     16 C           3.7713    2.0823   18.5741 C.ar    1  UNL1       -0.0042
     17 C           5.2336    2.0540   18.2411 C.ar    1  UNL1       -0.0003
     18 C           5.8138    0.8795   17.5104 C.ar    1  UNL1       -0.0000
     19 C           4.9317   -0.2667   17.1128 C.ar    1  UNL1       -0.0003
     20 C           3.4695   -0.2385   17.4457 C.ar    1  UNL1       -0.0042
     21 C           2.2477    1.7777   24.3390 C.3     1  UNL1        0.1404
     22 C           1.4137    1.4841   25.5507 C.3     1  UNL1        0.1379
     23 C          -0.0839    1.4097   25.5934 C.3     1  UNL1        0.0341
     24 C          -0.4923    1.0930   27.0014 C.3     1  UNL1        0.0346
     25 C           0.7528    0.9716   27.8291 C.3     1  UNL1        0.1422
     26 O           1.9308    1.2133   26.9325 O.3     1  UNL1       -0.3543
@<TRIPOS>BOND
     1     1     2    1
     2     2     3   ar
     3     3     4   ar
     4     4     5   ar
     5     5     6   ar
     6     6     7   ar
     7     7     8    2
     8     7     9   ar
     9     9    13    1
    10    13    14    1
    11    14    15    1
    12    15    16   ar
    13    16    17   ar
    14    17    18   ar
    15    18    19   ar
    16    19    20   ar
    17     9    10   ar
    18    10    11    2
    19    10    12   ar
    20    12    21    1
    21    21    22    1
    22    22    23    1
    23    23    24    1
    24    24    25    1
    25    25    26    1
    26     6     2   ar
    27    20    15   ar
    28    26    22    1
    29    12     5   ar
@<TRIPOS>MOLECULE
*****
 26 29 0 0 0
SMALL
GASTEIGER

@<TRIPOS>ATOM
      1 C         -12.0809  -18.8539   25.1137 C.3     1  UNL1        0.0318
      2 C         -10.8720  -19.5126   24.5181 C.ar    1  UNL1       -0.0088
      3 C         -10.4381  -20.9303   24.7461 C.ar    1  UNL1        0.0328
      4 S          -9.1827  -21.1631   23.9588 S.2     1  UNL1       -0.0693
      5 C          -8.8407  -19.8894   23.2443 C.ar    1  UNL1        0.0982
      6 C          -9.8848  -18.8693   23.5899 C.ar    1  UNL1        0.0749
      7 C          -9.8016  -17.4864   23.0149 C.ar    1  UNL1        0.2658
      8 O         -10.8456  -16.4663   23.3605 O.2     1  UNL1       -0.2668
      9 N          -8.6743  -17.1237   22.0941 N.ar    1  UNL1       -0.2484
     10 C          -7.6304  -18.1437   21.7485 C.ar    1  UNL1        0.3342
     11 O          -6.5031  -17.7809   20.8278 O.2     1  UNL1       -0.2462
     12 N          -7.7135  -19.5265   22.3236 N.ar    1  UNL1       -0.2732
     13 C          -8.5911  -15.7407   21.5190 C.3     1  UNL1        0.1182
     14 C          -7.8003  -14.6805   22.2265 C.3     1  UNL1        0.0511
     15 C          -7.1859  -14.9703   23.5639 C.ar    1  UNL1       -0.0202
     16 C          -5.7173  -15.2579   23.6681 C.ar    1  UNL1       -0.0042
     17 C          -5.1029  -15.5476   25.0054 C.ar    1  UNL1       -0.0003
     18 C          -5.9570  -15.5497   26.2386 C.ar    1  UNL1       -0.0000
     19 C          -7.4255  -15.2621   26.1343 C.ar    1  UNL1       -0.0003
     20 C          -8.0399  -14.9723   24.7970 C.ar    1  UNL1       -0.0042
     21 C          -6.6695  -20.5466   21.9779 C.3     1  UNL1        0.1404
     22 C          -5.2566  -20.1151   21.7172 C.3     1  UNL1        0.1379
     23 C          -4.3918  -19.3187   22.6488 C.3     1  UNL1        0.0341
     24 C          -3.0614  -19.1157   21.9865 C.3     1  UNL1        0.0346
     25 C          -3.1039  -19.7867   20.6456 C.3     1  UNL1        0.1422
     26 O          -4.4607  -20.4043   20.4792 O.3     1  UNL1       -0.3543
@<TRIPOS>BOND
     1     1     2    1
     2     2     3   ar
     3     3     4   ar
     4     4     5   ar
     5     5     6   ar
     6     6     7   ar
     7     7     8    2
     8     7     9   ar
     9     9    13    1
    10    13    14    1
    11    14    15    1
    12    15    16   ar
    13    16    17   ar
    14    17    18   ar
    15    18    19   ar
    16    19    20   ar
    17     9    10   ar
    18    10    11    2
    19    10    12   ar
    20    12    21    1
    21    21    22    1
    22    22    23    1
    23    23    24    1
    24    24    25    1
    25    25    26    1
    26     6     2   ar
    27    20    15   ar
    28    26    22    1
    29    12     5   ar
