@<TRIPOS>MOLECULE
*****
 34 37 0 0 0
SMALL
GASTEIGER

@<TRIPOS>ATOM
      1 C          -0.9740    2.9503   24.1088 C.3     1  UNL1        0.1537
      2 C          -0.1810    2.5753   22.8920 C.3     1  UNL1        0.0505
      3 C           0.7805    1.4918   23.2811 C.3     1  UNL1        0.0938
      4 C           0.5818    1.1970   24.7383 C.3     1  UNL1        0.1136
      5 N          -0.5026    2.0984   25.2499 N.am    1  UNL1       -0.2676
      6 C          -1.0239    2.1406   26.6558 C.2     1  UNL1        0.2526
      7 O          -2.1173    3.1000   27.0217 O.2     1  UNL1       -0.2698
      8 C          -0.4519    1.2233   27.6957 C.ar    1  UNL1        0.0940
      9 C          -1.1668    0.0792   28.3515 C.ar    1  UNL1        0.1840
     10 O          -0.2212   -0.5621   29.3234 O.2     1  UNL1       -0.4503
     11 C           1.0780    0.1855   29.2682 C.ar    1  UNL1        0.1456
     12 C           2.3725    0.0041   30.0040 C.ar    1  UNL1        0.0375
     13 C           3.5243    0.9261   29.7338 C.ar    1  UNL1        0.0031
     14 C           3.3817    2.0296   28.7278 C.ar    1  UNL1        0.0002
     15 C           2.0873    2.2110   27.9920 C.ar    1  UNL1        0.0033
     16 C           0.9355    1.2890   28.2622 C.ar    1  UNL1        0.0420
     17 N          -3.4856    3.5832   24.3121 N.am    1  UNL1       -0.3030
     18 C          -2.0495    3.9938   24.1732 C.2     1  UNL1        0.2406
     19 O          -1.6891    5.4480   24.0987 O.2     1  UNL1       -0.2733
     20 H          -3.7222    2.6288   24.3610 H       1  UNL1        0.1495
     21 C          -5.3965    4.7673   25.6144 C.3     1  UNL1        0.0230
     22 C          -4.5611    4.6267   24.3766 C.3     1  UNL1        0.0895
     23 N           1.7674    0.8208   22.3724 N.am    1  UNL1       -0.2995
     24 C           1.3010    0.1884   21.0947 C.2     1  UNL1        0.2633
     25 O          -0.1523    0.2270   20.7257 O.2     1  UNL1       -0.2685
     26 H           2.7213    0.7955   22.6146 H       1  UNL1        0.1498
     27 C           2.2880   -0.4826   20.1861 C.ar    1  UNL1        0.1323
     28 C           2.8926   -1.8402   20.3896 C.ar    1  UNL1        0.0398
     29 C           3.8219   -2.1104   19.2437 C.ar    1  UNL1        0.0802
     30 N           3.7918   -0.9196   18.3319 N.ar    1  UNL1       -0.1735
     31 N           2.8438    0.0863   18.9143 N.ar    1  UNL1       -0.2447
     32 C           2.5101    1.4260   18.3279 C.3     1  UNL1        0.1539
     33 C           4.6381   -3.3530   19.0446 C.3     1  UNL1        0.0476
     34 C           3.9698   -4.6958   19.0351 C.3     1  UNL1        0.0068
@<TRIPOS>BOND
     1    21    22    1
     2    22    17    1
     3    17    18   am
     4    18    19    2
     5     1    18    1
     6     1     2    1
     7     2     3    1
     8     3    23    1
     9    23    24   am
    10    24    25    2
    11    24    27    1
    12    27    28   ar
    13    28    29   ar
    14    29    33    1
    15    33    34    1
    16    29    30   ar
    17    30    31   ar
    18    31    32    1
    19     3     4    1
    20     4     5    1
    21     5     6   am
    22     6     7    2
    23     6     8    1
    24     8     9   ar
    25     9    10   ar
    26    10    11   ar
    27    11    12   ar
    28    12    13   ar
    29    13    14   ar
    30    14    15   ar
    31    15    16   ar
    32     5     1    1
    33    16     8   ar
    34    31    27   ar
    35    16    11   ar
    36    17    20    1
    37    23    26    1
@<TRIPOS>MOLECULE
*****
 34 37 0 0 0
SMALL
GASTEIGER

@<TRIPOS>ATOM
      1 C           3.6565    0.9865   36.8711 C.3     1  UNL1        0.1537
      2 C           4.6297   -0.0654   36.4279 C.3     1  UNL1        0.0505
      3 C           5.0072    0.2223   35.0051 C.3     1  UNL1        0.0938
      4 C           4.2674    1.4521   34.5688 C.3     1  UNL1        0.1136
      5 N           3.4326    1.9244   35.7220 N.am    1  UNL1       -0.2676
      6 C           2.5320    3.1240   35.7256 C.2     1  UNL1        0.2526
      7 O           1.7548    3.4746   36.9597 O.2     1  UNL1       -0.2698
      8 C           2.4087    3.9730   34.4951 C.ar    1  UNL1        0.0940
      9 C           2.8362    5.4049   34.3654 C.ar    1  UNL1        0.1840
     10 O           2.5279    5.8558   32.9684 O.2     1  UNL1       -0.4503
     11 C           1.9099    4.7027   32.2348 C.ar    1  UNL1        0.1456
     12 C           1.4048    4.5619   30.8294 C.ar    1  UNL1        0.0375
     13 C           0.8259    3.2574   30.3677 C.ar    1  UNL1        0.0031
     14 C           0.7522    2.0937   31.3113 C.ar    1  UNL1        0.0002
     15 C           1.2574    2.2345   32.7166 C.ar    1  UNL1        0.0033
     16 C           1.8362    3.5389   33.1783 C.ar    1  UNL1        0.0420
     17 N           1.5510    0.8199   38.3841 N.am    1  UNL1       -0.3030
     18 C           3.0192    1.0836   38.2254 C.2     1  UNL1        0.2406
     19 O           3.8499    1.4445   39.4211 O.2     1  UNL1       -0.2733
     20 H           1.0058    0.5831   37.5994 H       1  UNL1        0.1495
     21 C           0.4966    2.2534   40.2770 C.3     1  UNL1        0.0230
     22 C           0.9137    0.9170   39.7385 C.3     1  UNL1        0.0895
     23 N           5.9576   -0.5790   34.1658 N.am    1  UNL1       -0.2995
     24 C           5.4279   -1.5526   33.1549 C.2     1  UNL1        0.2633
     25 O           3.9478   -1.7247   32.9834 O.2     1  UNL1       -0.2685
     26 H           6.9291   -0.4661   34.2784 H       1  UNL1        0.1498
     27 C           6.3785   -2.3539   32.3157 C.ar    1  UNL1        0.1323
     28 C           6.4638   -3.8506   32.2654 C.ar    1  UNL1        0.0398
     29 C           7.5486   -4.2209   31.2980 C.ar    1  UNL1        0.0802
     30 N           8.1338   -2.9529   30.7503 N.ar    1  UNL1       -0.1735
     31 N           7.4106   -1.7991   31.3793 N.ar    1  UNL1       -0.2447
     32 C           7.6734   -0.3457   31.1178 C.3     1  UNL1        0.1539
     33 C           7.9737   -5.6143   30.9410 C.3     1  UNL1        0.0476
     34 C           7.6636   -6.1680   29.5818 C.3     1  UNL1        0.0068
@<TRIPOS>BOND
     1    21    22    1
     2    22    17    1
     3    17    18   am
     4    18    19    2
     5     1    18    1
     6     1     2    1
     7     2     3    1
     8     3    23    1
     9    23    24   am
    10    24    25    2
    11    24    27    1
    12    27    28   ar
    13    28    29   ar
    14    29    33    1
    15    33    34    1
    16    29    30   ar
    17    30    31   ar
    18    31    32    1
    19     3     4    1
    20     4     5    1
    21     5     6   am
    22     6     7    2
    23     6     8    1
    24     8     9   ar
    25     9    10   ar
    26    10    11   ar
    27    11    12   ar
    28    12    13   ar
    29    13    14   ar
    30    14    15   ar
    31    15    16   ar
    32     5     1    1
    33    16     8   ar
    34    31    27   ar
    35    16    11   ar
    36    17    20    1
    37    23    26    1
@<TRIPOS>MOLECULE
*****
 34 37 0 0 0
SMALL
GASTEIGER

@<TRIPOS>ATOM
      1 C           2.1362    0.8155   23.7055 C.3     1  UNL1        0.1537
      2 C           0.7735    1.3027   23.3110 C.3     1  UNL1        0.0505
      3 C           0.6477    1.1724   21.8220 C.3     1  UNL1        0.0938
      4 C           1.9327    0.6048   21.2962 C.3     1  UNL1        0.1136
      5 N           2.8526    0.3841   22.4602 N.am    1  UNL1       -0.2676
      6 C           4.2447   -0.1705   22.3911 C.2     1  UNL1        0.2526
      7 O           5.0496   -0.3350   23.6460 O.2     1  UNL1       -0.2698
      8 C           4.8317   -0.5606   21.0670 C.ar    1  UNL1        0.0940
      9 C           5.6500    0.3214   20.1711 C.ar    1  UNL1        0.1840
     10 O           6.0275   -0.4741   18.9568 O.2     1  UNL1       -0.4503
     11 C           5.4425   -1.8477   19.1021 C.ar    1  UNL1        0.1456
     12 C           5.4873   -3.0567   18.2153 C.ar    1  UNL1        0.0375
     13 C           4.7931   -4.3191   18.6328 C.ar    1  UNL1        0.0031
     14 C           4.0541   -4.3725   19.9370 C.ar    1  UNL1        0.0002
     15 C           4.0092   -3.1635   20.8237 C.ar    1  UNL1        0.0033
     16 C           4.7035   -1.9011   20.4063 C.ar    1  UNL1        0.0420
     17 N           2.8936   -0.5530   25.7800 N.am    1  UNL1       -0.3030
     18 C           2.6860    0.7679   25.1002 C.2     1  UNL1        0.2406
     19 O           3.0283    2.0413   25.8153 O.2     1  UNL1       -0.2733
     20 H           2.6690   -1.3888   25.3107 H       1  UNL1        0.1495
     21 C           2.5098   -0.6219   28.3486 C.3     1  UNL1        0.0230
     22 C           3.4434   -0.6006   27.1747 C.3     1  UNL1        0.0895
     23 N          -0.5523    1.5446   21.0027 N.am    1  UNL1       -0.2995
     24 C          -0.8784    2.9891   20.7632 C.2     1  UNL1        0.2633
     25 O          -0.0044    4.0613   21.3430 O.2     1  UNL1       -0.2685
     26 H          -1.1260    0.8408   20.6222 H       1  UNL1        0.1498
     27 C          -2.0785    3.3611   19.9439 C.ar    1  UNL1        0.1323
     28 C          -3.5090    3.2799   20.3879 C.ar    1  UNL1        0.0398
     29 C          -4.3733    3.7483   19.2551 C.ar    1  UNL1        0.0802
     30 N          -3.4770    4.1191   18.1108 N.ar    1  UNL1       -0.1735
     31 N          -2.0588    3.8798   18.5366 N.ar    1  UNL1       -0.2447
     32 C          -0.8356    4.1174   17.7015 C.3     1  UNL1        0.1539
     33 C          -5.8710    3.8314   19.2647 C.3     1  UNL1        0.0476
     34 C          -6.5841    4.3779   20.4659 C.3     1  UNL1        0.0068
@<TRIPOS>BOND
     1    21    22    1
     2    22    17    1
     3    17    18   am
     4    18    19    2
     5     1    18    1
     6     1     2    1
     7     2     3    1
     8     3    23    1
     9    23    24   am
    10    24    25    2
    11    24    27    1
    12    27    28   ar
    13    28    29   ar
    14    29    33    1
    15    33    34    1
    16    29    30   ar
    17    30    31   ar
    18    31    32    1
    19     3     4    1
    20     4     5    1
    21     5     6   am
    22     6     7    2
    23     6     8    1
    24     8     9   ar
    25     9    10   ar
    26    10    11   ar
    27    11    12   ar
    28    12    13   ar
    29    13    14   ar
    30    14    15   ar
    31    15    16   ar
    32     5     1    1
    33    16     8   ar
    34    31    27   ar
    35    16    11   ar
    36    17    20    1
    37    23    26    1
@<TRIPOS>MOLECULE
*****
 34 37 0 0 0
SMALL
GASTEIGER

@<TRIPOS>ATOM
      1 C           1.3380    1.6753   22.5982 C.3     1  UNL1        0.1537
      2 C           1.1432    1.3765   24.0552 C.3     1  UNL1        0.0505
      3 C           2.2070    0.4061   24.4755 C.3     1  UNL1        0.0938
      4 C           3.0591    0.1051   23.2784 C.3     1  UNL1        0.1136
      5 N           2.5221    0.8895   22.1181 N.am    1  UNL1       -0.2676
      6 C           3.0726    0.8884   20.7227 C.2     1  UNL1        0.2526
      7 O           2.4265    1.7282   19.6610 O.2     1  UNL1       -0.2698
      8 C           4.2690    0.0474   20.3891 C.ar    1  UNL1        0.0940
      9 C           5.7013    0.4891   20.4478 C.ar    1  UNL1        0.1840
     10 O           6.5606   -0.6683   20.0332 O.2     1  UNL1       -0.4503
     11 C           5.6595   -1.8253   19.7182 C.ar    1  UNL1        0.1456
     12 C           5.9456   -3.2245   19.2595 C.ar    1  UNL1        0.0375
     13 C           4.8154   -4.1813   19.0208 C.ar    1  UNL1        0.0031
     14 C           3.3990   -3.7390   19.2407 C.ar    1  UNL1        0.0002
     15 C           3.1129   -2.3398   19.6994 C.ar    1  UNL1        0.0033
     16 C           4.2431   -1.3830   19.9381 C.ar    1  UNL1        0.0420
     17 N          -0.5462    2.0367   20.8462 N.am    1  UNL1       -0.3030
     18 C           0.4965    2.5979   21.7672 C.2     1  UNL1        0.2406
     19 O           0.6975    4.0816   21.8571 O.2     1  UNL1       -0.2733
     20 H          -0.6781    1.0629   20.7872 H       1  UNL1        0.1495
     21 C          -0.8201    3.5759   18.7712 C.3     1  UNL1        0.0230
     22 C          -1.3877    2.9593   20.0152 C.3     1  UNL1        0.0895
     23 N           2.3869   -0.1634   25.8514 N.am    1  UNL1       -0.2995
     24 C           2.5926    0.7526   27.0214 C.2     1  UNL1        0.2633
     25 O           2.6183    2.2381   26.8152 O.2     1  UNL1       -0.2685
     26 H           2.3700   -1.1385   25.9867 H       1  UNL1        0.1498
     27 C           2.7725    0.1830   28.3973 C.ar    1  UNL1        0.1323
     28 C           4.0829   -0.1006   29.0698 C.ar    1  UNL1        0.0398
     29 C           3.7938   -0.6618   30.4304 C.ar    1  UNL1        0.0802
     30 N           2.3046   -0.7250   30.5988 N.ar    1  UNL1       -0.1735
     31 N           1.6735   -0.2029   29.3423 N.ar    1  UNL1       -0.2447
     32 C           0.2016   -0.0870   29.0774 C.3     1  UNL1        0.1539
     33 C           4.8146   -1.0854   31.4445 C.3     1  UNL1        0.0476
     34 C           4.4744   -2.1397   32.4559 C.3     1  UNL1        0.0068
@<TRIPOS>BOND
     1    21    22    1
     2    22    17    1
     3    17    18   am
     4    18    19    2
     5     1    18    1
     6     1     2    1
     7     2     3    1
     8     3    23    1
     9    23    24   am
    10    24    25    2
    11    24    27    1
    12    27    28   ar
    13    28    29   ar
    14    29    33    1
    15    33    34    1
    16    29    30   ar
    17    30    31   ar
    18    31    32    1
    19     3     4    1
    20     4     5    1
    21     5     6   am
    22     6     7    2
    23     6     8    1
    24     8     9   ar
    25     9    10   ar
    26    10    11   ar
    27    11    12   ar
    28    12    13   ar
    29    13    14   ar
    30    14    15   ar
    31    15    16   ar
    32     5     1    1
    33    16     8   ar
    34    31    27   ar
    35    16    11   ar
    36    17    20    1
    37    23    26    1
@<TRIPOS>MOLECULE
*****
 34 37 0 0 0
SMALL
GASTEIGER

@<TRIPOS>ATOM
      1 C           5.2856   -1.5336   23.0128 C.3     1  UNL1        0.1537
      2 C           5.3356   -1.8466   24.4790 C.3     1  UNL1        0.0505
      3 C           4.0230   -1.4449   25.0836 C.3     1  UNL1        0.0938
      4 C           3.1618   -0.8836   23.9913 C.3     1  UNL1        0.1136
      5 N           3.9422   -0.9384   22.7115 N.am    1  UNL1       -0.2676
      6 C           3.4631   -0.4787   21.3663 C.2     1  UNL1        0.2526
      7 O           4.3603   -0.5968   20.1702 O.2     1  UNL1       -0.2698
      8 C           2.0868    0.0991   21.2175 C.ar    1  UNL1        0.0940
      9 C           0.9410   -0.5307   20.4824 C.ar    1  UNL1        0.1840
     10 O          -0.2392    0.3891   20.5883 O.2     1  UNL1       -0.4503
     11 C           0.1773    1.5873   21.3889 C.ar    1  UNL1        0.1456
     12 C          -0.5668    2.8184   21.8140 C.ar    1  UNL1        0.0375
     13 C           0.1267    3.8702   22.6281 C.ar    1  UNL1        0.0031
     14 C           1.5643    3.6909   23.0170 C.ar    1  UNL1        0.0002
     15 C           2.3084    2.4598   22.5918 C.ar    1  UNL1        0.0033
     16 C           1.6149    1.4080   21.7778 C.ar    1  UNL1        0.0420
     17 N           6.2268   -2.8258   20.9647 N.am    1  UNL1       -0.3030
     18 C           6.3859   -1.7736   22.0220 C.2     1  UNL1        0.2406
     19 O           7.6453   -0.9616   22.0885 O.2     1  UNL1       -0.2733
     20 H           5.4002   -3.3587   20.9211 H       1  UNL1        0.1495
     21 C           7.4408   -2.1992   18.7549 C.3     1  UNL1        0.0230
     22 C           7.3271   -3.0658   19.9740 C.3     1  UNL1        0.0895
     23 N           3.6390   -1.5806   26.5273 N.am    1  UNL1       -0.2995
     24 C           3.8991   -0.4531   27.4818 C.2     1  UNL1        0.2633
     25 O           4.5432    0.8101   26.9927 O.2     1  UNL1       -0.2685
     26 H           3.2162   -2.4098   26.8483 H       1  UNL1        0.1498
     27 C           3.5151   -0.5889   28.9255 C.ar    1  UNL1        0.1323
     28 C           4.4519   -0.8585   30.0655 C.ar    1  UNL1        0.0398
     29 C           3.6426   -0.9152   31.3271 C.ar    1  UNL1        0.0802
     30 N           2.2054   -0.6806   30.9667 N.ar    1  UNL1       -0.1735
     31 N           2.1267   -0.4790   29.4825 N.ar    1  UNL1       -0.2447
     32 C           0.8787   -0.2140   28.6937 C.3     1  UNL1        0.1539
     33 C           4.1765   -1.1630   32.7067 C.3     1  UNL1        0.0476
     34 C           4.5026   -2.5599   33.1451 C.3     1  UNL1        0.0068
@<TRIPOS>BOND
     1    21    22    1
     2    22    17    1
     3    17    18   am
     4    18    19    2
     5     1    18    1
     6     1     2    1
     7     2     3    1
     8     3    23    1
     9    23    24   am
    10    24    25    2
    11    24    27    1
    12    27    28   ar
    13    28    29   ar
    14    29    33    1
    15    33    34    1
    16    29    30   ar
    17    30    31   ar
    18    31    32    1
    19     3     4    1
    20     4     5    1
    21     5     6   am
    22     6     7    2
    23     6     8    1
    24     8     9   ar
    25     9    10   ar
    26    10    11   ar
    27    11    12   ar
    28    12    13   ar
    29    13    14   ar
    30    14    15   ar
    31    15    16   ar
    32     5     1    1
    33    16     8   ar
    34    31    27   ar
    35    16    11   ar
    36    17    20    1
    37    23    26    1
@<TRIPOS>MOLECULE
*****
 34 37 0 0 0
SMALL
GASTEIGER

@<TRIPOS>ATOM
      1 C           2.5657    2.8522   34.8925 C.3     1  UNL1        0.1537
      2 C           1.6487    3.2300   33.7671 C.3     1  UNL1        0.0505
      3 C           2.2300    2.6897   32.4943 C.3     1  UNL1        0.0938
      4 C           3.5062    1.9780   32.8330 C.3     1  UNL1        0.1136
      5 N           3.7137    2.0784   34.3151 N.am    1  UNL1       -0.2676
      6 C           4.8668    1.5056   35.0848 C.2     1  UNL1        0.2526
      7 O           4.9399    1.6872   36.5719 O.2     1  UNL1       -0.2698
      8 C           5.9467    0.7513   34.3673 C.ar    1  UNL1        0.0940
      9 C           7.3461    1.2332   34.1237 C.ar    1  UNL1        0.1840
     10 O           8.0810    0.1623   33.3732 O.2     1  UNL1       -0.4503
     11 C           7.1358   -0.9814   33.1531 C.ar    1  UNL1        0.1456
     12 C           7.3058   -2.3073   32.4726 C.ar    1  UNL1        0.0375
     13 C           6.1568   -3.2692   32.4065 C.ar    1  UNL1        0.0031
     14 C           4.8377   -2.9052   33.0209 C.ar    1  UNL1        0.0002
     15 C           4.6676   -1.5793   33.7014 C.ar    1  UNL1        0.0033
     16 C           5.8167   -0.6174   33.7675 C.ar    1  UNL1        0.0420
     17 N           2.0156    2.1098   37.3207 N.am    1  UNL1       -0.3030
     18 C           2.3693    3.1891   36.3409 C.2     1  UNL1        0.2406
     19 O           2.5264    4.6053   36.8095 O.2     1  UNL1       -0.2733
     20 H           1.9125    1.1802   37.0131 H       1  UNL1        0.1495
     21 C           0.6237    1.9197   39.5061 C.3     1  UNL1        0.0230
     22 C           1.8191    2.4466   38.7691 C.3     1  UNL1        0.0895
     23 N           1.6388    2.8354   31.1235 N.am    1  UNL1       -0.2995
     24 C           1.3247    1.6158   30.3085 C.2     1  UNL1        0.2633
     25 O           1.6018    0.2506   30.8645 O.2     1  UNL1       -0.2685
     26 H           1.4570    3.7316   30.7586 H       1  UNL1        0.1498
     27 C           0.7335    1.7617   28.9376 C.ar    1  UNL1        0.1323
     28 C           1.3039    2.5745   27.8133 C.ar    1  UNL1        0.0398
     29 C           0.3910    2.4355   26.6313 C.ar    1  UNL1        0.0802
     30 N          -0.7436    1.5367   27.0252 N.ar    1  UNL1       -0.1735
     31 N          -0.5319    1.1204   28.4505 N.ar    1  UNL1       -0.2447
     32 C          -1.4283    0.2206   29.2486 C.3     1  UNL1        0.1539
     33 C           0.5796    3.0816   25.2909 C.3     1  UNL1        0.0476
     34 C          -0.3131    2.7065   24.1452 C.3     1  UNL1        0.0068
@<TRIPOS>BOND
     1    21    22    1
     2    22    17    1
     3    17    18   am
     4    18    19    2
     5     1    18    1
     6     1     2    1
     7     2     3    1
     8     3    23    1
     9    23    24   am
    10    24    25    2
    11    24    27    1
    12    27    28   ar
    13    28    29   ar
    14    29    33    1
    15    33    34    1
    16    29    30   ar
    17    30    31   ar
    18    31    32    1
    19     3     4    1
    20     4     5    1
    21     5     6   am
    22     6     7    2
    23     6     8    1
    24     8     9   ar
    25     9    10   ar
    26    10    11   ar
    27    11    12   ar
    28    12    13   ar
    29    13    14   ar
    30    14    15   ar
    31    15    16   ar
    32     5     1    1
    33    16     8   ar
    34    31    27   ar
    35    16    11   ar
    36    17    20    1
    37    23    26    1
@<TRIPOS>MOLECULE
*****
 34 37 0 0 0
SMALL
GASTEIGER

@<TRIPOS>ATOM
      1 C           0.4737    1.5187   25.5143 C.3     1  UNL1        0.1537
      2 C           1.5007    0.6617   24.8354 C.3     1  UNL1        0.0505
      3 C           1.4587    0.9637   23.3668 C.3     1  UNL1        0.0938
      4 C           0.4059    2.0072   23.1379 C.3     1  UNL1        0.1136
      5 N          -0.2029    2.3503   24.4652 N.am    1  UNL1       -0.2676
      6 C          -1.2964    3.3495   24.7019 C.2     1  UNL1        0.2526
      7 O          -1.8068    3.5876   26.0920 O.2     1  UNL1       -0.2698
      8 C          -1.8794    4.1106   23.5482 C.ar    1  UNL1        0.0940
      9 C          -1.1258    5.0122   22.6158 C.ar    1  UNL1        0.1840
     10 O          -2.0990    5.5625   21.6158 O.2     1  UNL1       -0.4503
     11 C          -3.4540    5.0011   21.9302 C.ar    1  UNL1        0.1456
     12 C          -4.7939    5.1910   21.2832 C.ar    1  UNL1        0.0375
     13 C          -5.9980    4.4836   21.8305 C.ar    1  UNL1        0.0031
     14 C          -5.8623    3.5862   23.0248 C.ar    1  UNL1        0.0002
     15 C          -4.5224    3.3963   23.6718 C.ar    1  UNL1        0.0033
     16 C          -3.3183    4.1037   23.1245 C.ar    1  UNL1        0.0420
     17 N           0.7946    2.5894   27.8597 N.am    1  UNL1       -0.3030
     18 C           0.1756    1.5403   26.9842 C.2     1  UNL1        0.2406
     19 O          -0.7414    0.5128   27.5787 O.2     1  UNL1       -0.2733
     20 H           1.3964    3.2637   27.4695 H       1  UNL1        0.1495
     21 C           1.3401    1.8113   30.2777 C.3     1  UNL1        0.0230
     22 C           0.4965    2.6110   29.3296 C.3     1  UNL1        0.0895
     23 N           2.3187    0.3328   22.3121 N.am    1  UNL1       -0.2995
     24 C           1.6923   -0.2260   21.0689 C.2     1  UNL1        0.2633
     25 O           0.2060   -0.1539   20.8805 O.2     1  UNL1       -0.2685
     26 H           3.2943    0.2855   22.4357 H       1  UNL1        0.1498
     27 C           2.5524   -0.8569   20.0142 C.ar    1  UNL1        0.1323
     28 C           3.1635   -2.2253   20.0770 C.ar    1  UNL1        0.0398
     29 C           3.9411   -2.4442   18.8132 C.ar    1  UNL1        0.0802
     30 N           3.8105   -1.2109   17.9692 N.ar    1  UNL1       -0.1735
     31 N           2.9523   -0.2300   18.7115 N.ar    1  UNL1       -0.2447
     32 C           2.5624    1.1378   18.2348 C.3     1  UNL1        0.1539
     33 C           4.7136   -3.6793   18.4559 C.3     1  UNL1        0.0476
     34 C           4.2794   -5.0144   18.9841 C.3     1  UNL1        0.0068
@<TRIPOS>BOND
     1    21    22    1
     2    22    17    1
     3    17    18   am
     4    18    19    2
     5     1    18    1
     6     1     2    1
     7     2     3    1
     8     3    23    1
     9    23    24   am
    10    24    25    2
    11    24    27    1
    12    27    28   ar
    13    28    29   ar
    14    29    33    1
    15    33    34    1
    16    29    30   ar
    17    30    31   ar
    18    31    32    1
    19     3     4    1
    20     4     5    1
    21     5     6   am
    22     6     7    2
    23     6     8    1
    24     8     9   ar
    25     9    10   ar
    26    10    11   ar
    27    11    12   ar
    28    12    13   ar
    29    13    14   ar
    30    14    15   ar
    31    15    16   ar
    32     5     1    1
    33    16     8   ar
    34    31    27   ar
    35    16    11   ar
    36    17    20    1
    37    23    26    1
@<TRIPOS>MOLECULE
*****
 34 37 0 0 0
SMALL
GASTEIGER

@<TRIPOS>ATOM
      1 C           5.9265   -1.7009   28.7215 C.3     1  UNL1        0.1537
      2 C           6.2425   -2.6267   27.5845 C.3     1  UNL1        0.0505
      3 C           5.3608   -2.2585   26.4282 C.3     1  UNL1        0.0938
      4 C           4.4999   -1.1051   26.8506 C.3     1  UNL1        0.1136
      5 N           4.8495   -0.7605   28.2680 N.am    1  UNL1       -0.2676
      6 C           4.2307    0.3327   29.0879 C.2     1  UNL1        0.2526
      7 O           4.6849    0.5604   30.4992 O.2     1  UNL1       -0.2698
      8 C           3.1578    1.1982   28.4964 C.ar    1  UNL1        0.0940
      9 C           3.3677    2.5079   27.7960 C.ar    1  UNL1        0.1840
     10 O           2.0262    3.0249   27.3682 O.2     1  UNL1       -0.4503
     11 C           0.9872    2.0348   27.8043 C.ar    1  UNL1        0.1456
     12 C          -0.5053    2.0154   27.6565 C.ar    1  UNL1        0.0375
     13 C          -1.2985    0.8670   28.2060 C.ar    1  UNL1        0.0031
     14 C          -0.5991   -0.2620   28.9032 C.ar    1  UNL1        0.0002
     15 C           0.8934   -0.2426   29.0510 C.ar    1  UNL1        0.0033
     16 C           1.6866    0.9058   28.5015 C.ar    1  UNL1        0.0420
     17 N           5.7932   -2.1592   31.2754 N.am    1  UNL1       -0.3030
     18 C           6.5738   -1.7132   30.0746 C.2     1  UNL1        0.2406
     19 O           8.0017   -1.2797   30.2269 O.2     1  UNL1       -0.2733
     20 H           4.8561   -2.4437   31.1755 H       1  UNL1        0.1495
     21 C           6.4054   -0.9427   33.4879 C.3     1  UNL1        0.0230
     22 C           6.4405   -2.1715   32.6285 C.3     1  UNL1        0.0895
     23 N           5.3432   -2.9264   25.0853 N.am    1  UNL1       -0.2995
     24 C           6.2175   -2.4121   23.9802 C.2     1  UNL1        0.2633
     25 O           7.1094   -1.2298   24.2181 O.2     1  UNL1       -0.2685
     26 H           4.7578   -3.7024   24.9291 H       1  UNL1        0.1498
     27 C           6.1998   -3.0801   22.6372 C.ar    1  UNL1        0.1323
     28 C           5.1241   -2.9470   21.6003 C.ar    1  UNL1        0.0398
     29 C           5.5142   -3.7831   20.4178 C.ar    1  UNL1        0.0802
     30 N           6.8311   -4.4330   20.7238 N.ar    1  UNL1       -0.1735
     31 N           7.2547   -3.9985   22.0955 N.ar    1  UNL1       -0.2447
     32 C           8.5126   -4.4101   22.8014 C.3     1  UNL1        0.1539
     33 C           4.7260   -3.9416   19.1515 C.3     1  UNL1        0.0476
     34 C           3.3972   -4.6371   19.1773 C.3     1  UNL1        0.0068
@<TRIPOS>BOND
     1    21    22    1
     2    22    17    1
     3    17    18   am
     4    18    19    2
     5     1    18    1
     6     1     2    1
     7     2     3    1
     8     3    23    1
     9    23    24   am
    10    24    25    2
    11    24    27    1
    12    27    28   ar
    13    28    29   ar
    14    29    33    1
    15    33    34    1
    16    29    30   ar
    17    30    31   ar
    18    31    32    1
    19     3     4    1
    20     4     5    1
    21     5     6   am
    22     6     7    2
    23     6     8    1
    24     8     9   ar
    25     9    10   ar
    26    10    11   ar
    27    11    12   ar
    28    12    13   ar
    29    13    14   ar
    30    14    15   ar
    31    15    16   ar
    32     5     1    1
    33    16     8   ar
    34    31    27   ar
    35    16    11   ar
    36    17    20    1
    37    23    26    1
@<TRIPOS>MOLECULE
*****
 34 37 0 0 0
SMALL
GASTEIGER

@<TRIPOS>ATOM
      1 C           4.5592   -0.8580   29.1527 C.3     1  UNL1        0.1537
      2 C           5.2333   -1.5744   28.0203 C.3     1  UNL1        0.0505
      3 C           4.2811   -1.6097   26.8619 C.3     1  UNL1        0.0938
      4 C           3.0186   -0.9151   27.2783 C.3     1  UNL1        0.1136
      5 N           3.1904   -0.4505   28.6941 N.am    1  UNL1       -0.2676
      6 C           2.1722    0.2914   29.5084 C.2     1  UNL1        0.2526
      7 O           2.4877    0.6928   30.9187 O.2     1  UNL1       -0.2698
      8 C           0.8385    0.6317   28.9122 C.ar    1  UNL1        0.0940
      9 C          -0.4311   -0.1473   29.0892 C.ar    1  UNL1        0.1840
     10 O          -1.5139    0.5504   28.3207 O.2     1  UNL1       -0.4503
     11 C          -0.9137    1.7606   27.6687 C.ar    1  UNL1        0.1456
     12 C          -1.5031    2.8232   26.7894 C.ar    1  UNL1        0.0375
     13 C          -0.6386    3.9362   26.2756 C.ar    1  UNL1        0.0031
     14 C           0.8153    3.9864   26.6411 C.ar    1  UNL1        0.0002
     15 C           1.4047    2.9237   27.5205 C.ar    1  UNL1        0.0033
     16 C           0.5403    1.8108   28.0342 C.ar    1  UNL1        0.0420
     17 N           4.5940   -1.2881   31.7148 N.am    1  UNL1       -0.3030
     18 C           5.1501   -0.5952   30.5061 C.2     1  UNL1        0.2406
     19 O           6.2972    0.3605   30.6510 O.2     1  UNL1       -0.2733
     20 H           3.8411   -1.9153   31.6197 H       1  UNL1        0.1495
     21 C           4.5009   -1.5432   34.2985 C.3     1  UNL1        0.0230
     22 C           5.1849   -1.0253   33.0681 C.3     1  UNL1        0.0895
     23 N           4.5452   -2.2306   25.5222 N.am    1  UNL1       -0.2995
     24 C           4.7419   -1.3591   24.3173 C.2     1  UNL1        0.2633
     25 O           4.6746    0.1333   24.4521 O.2     1  UNL1       -0.2685
     26 H           4.5893   -3.2101   25.4337 H       1  UNL1        0.1498
     27 C           5.0060   -1.9800   22.9776 C.ar    1  UNL1        0.1323
     28 C           3.9672   -2.4041   21.9821 C.ar    1  UNL1        0.0398
     29 C           4.6744   -2.9721   20.7875 C.ar    1  UNL1        0.0802
     30 N           6.1505   -2.8991   21.0448 N.ar    1  UNL1       -0.1735
     31 N           6.3553   -2.2860   22.3983 N.ar    1  UNL1       -0.2447
     32 C           7.6774   -2.0248   23.0569 C.3     1  UNL1        0.1539
     33 C           4.0206   -3.5173   19.5526 C.3     1  UNL1        0.0476
     34 C           4.5268   -4.7866   18.9340 C.3     1  UNL1        0.0068
@<TRIPOS>BOND
     1    21    22    1
     2    22    17    1
     3    17    18   am
     4    18    19    2
     5     1    18    1
     6     1     2    1
     7     2     3    1
     8     3    23    1
     9    23    24   am
    10    24    25    2
    11    24    27    1
    12    27    28   ar
    13    28    29   ar
    14    29    33    1
    15    33    34    1
    16    29    30   ar
    17    30    31   ar
    18    31    32    1
    19     3     4    1
    20     4     5    1
    21     5     6   am
    22     6     7    2
    23     6     8    1
    24     8     9   ar
    25     9    10   ar
    26    10    11   ar
    27    11    12   ar
    28    12    13   ar
    29    13    14   ar
    30    14    15   ar
    31    15    16   ar
    32     5     1    1
    33    16     8   ar
    34    31    27   ar
    35    16    11   ar
    36    17    20    1
    37    23    26    1
