@<TRIPOS>MOLECULE
*****
 36 39 0 0 0
SMALL
GASTEIGER

@<TRIPOS>ATOM
      1 N          -5.5487  -15.2089   23.1360 N.am    1  UNL1       -0.2683
      2 C          -4.4968  -16.2286   22.8141 C.2     1  UNL1        0.3045
      3 O          -4.8166  -17.6912   22.9072 O.2     1  UNL1       -0.2525
      4 N          -3.1250  -15.7858   22.3992 N.am    1  UNL1       -0.2887
      5 H          -5.3389  -14.2490   23.0749 H       1  UNL1        0.1564
      6 H          -2.9152  -14.8258   22.3381 H       1  UNL1        0.1510
      7 C          -8.8531  -16.7445   26.8404 C.3     1  UNL1        0.0311
      8 C          -8.5727  -16.4197   25.4032 C.ar    1  UNL1       -0.0205
      9 C          -7.2010  -15.9767   24.9882 C.ar    1  UNL1        0.0105
     10 C          -6.9205  -15.6519   23.5509 C.ar    1  UNL1        0.0514
     11 C          -8.0118  -15.7699   22.5286 C.ar    1  UNL1        0.0178
     12 C          -9.3835  -16.2128   22.9435 C.ar    1  UNL1        0.0383
     13 C          -9.6639  -16.5377   24.3808 C.ar    1  UNL1       -0.0011
     14 C         -10.4748  -16.3308   21.9212 C.ar    1  UNL1        0.1839
     15 N         -10.3711  -15.9531   20.4732 N.ar    1  UNL1       -0.1081
     16 N         -11.6936  -16.2361   19.8244 N.ar    1  UNL1       -0.0227
     17 N         -12.6146  -16.7888   20.8715 N.ar    1  UNL1       -0.0429
     18 N         -11.8614  -16.8473   22.1673 N.ar    1  UNL1       -0.2113
     19 C         -12.4002  -17.3365   23.4790 C.3     1  UNL1        0.1573
     20 C          -2.0731  -16.8054   22.0773 C.3     1  UNL1        0.0924
     21 C          -1.5705  -16.9463   20.6710 C.3     1  UNL1        0.0386
     22 C          -2.5120  -17.3489   19.5749 C.3     1  UNL1        0.0738
     23 N          -3.4898  -18.4642   19.7980 N.3     1  UNL1       -0.2726
     24 C          -2.9980  -19.8245   20.1954 C.3     1  UNL1        0.0721
     25 C          -3.9758  -20.9398   20.4186 C.3     1  UNL1        0.0174
     26 C          -5.4454  -20.6950   20.2444 C.3     1  UNL1        0.0031
     27 C          -5.9372  -19.3348   19.8470 C.3     1  UNL1        0.0204
     28 C          -4.9593  -18.2194   19.6238 C.3     1  UNL1        0.0724
     29 C          -7.4067  -19.0899   19.6728 C.3     1  UNL1        0.0277
     30 C          -8.3603  -19.4312   20.7792 C.ar    1  UNL1       -0.0220
     31 C          -7.8684  -19.5160   22.1937 C.ar    1  UNL1       -0.0020
     32 C          -8.8220  -19.8573   23.3002 C.ar    1  UNL1        0.0293
     33 C         -10.2674  -20.1139   22.9921 C.ar    1  UNL1        0.1401
     34 F         -11.2210  -20.4553   24.0986 F       1  UNL1       -0.2042
     35 C         -10.7592  -20.0292   21.5776 C.ar    1  UNL1        0.0293
     36 C          -9.8057  -19.6878   20.4711 C.ar    1  UNL1       -0.0020
@<TRIPOS>BOND
     1     7     8    1
     2     8     9   ar
     3     9    10   ar
     4    10     1    1
     5     1     2   am
     6     2     3    2
     7     2     4   am
     8     4    20    1
     9    20    21    1
    10    21    22    1
    11    22    23    1
    12    23    24    1
    13    24    25    1
    14    25    26    1
    15    26    27    1
    16    27    29    1
    17    29    30    1
    18    30    31   ar
    19    31    32   ar
    20    32    33   ar
    21    33    34    1
    22    33    35   ar
    23    35    36   ar
    24    27    28    1
    25    10    11   ar
    26    11    12   ar
    27    12    14    1
    28    14    15   ar
    29    15    16   ar
    30    16    17   ar
    31    17    18   ar
    32    18    19    1
    33    12    13   ar
    34    13     8   ar
    35    28    23    1
    36    18    14   ar
    37    36    30   ar
    38     1     5    1
    39     4     6    1
@<TRIPOS>MOLECULE
*****
 36 39 0 0 0
SMALL
GASTEIGER

@<TRIPOS>ATOM
      1 N          -8.0886  -14.9750   22.1550 N.am    1  UNL1       -0.2683
      2 C          -7.2153  -15.6721   23.1556 C.2     1  UNL1        0.3045
      3 O          -7.6991  -16.9202   23.8326 O.2     1  UNL1       -0.2525
      4 N          -5.8582  -15.1211   23.4793 N.am    1  UNL1       -0.2887
      5 H          -7.7712  -14.1558   21.7107 H       1  UNL1        0.1564
      6 H          -5.5408  -14.3020   23.0350 H       1  UNL1        0.1510
      7 C         -11.9814  -15.6561   18.7811 C.3     1  UNL1        0.0311
      8 C         -11.3921  -15.8665   20.1444 C.ar    1  UNL1       -0.0205
      9 C         -10.0350  -15.3155   20.4681 C.ar    1  UNL1        0.0105
     10 C          -9.4458  -15.5260   21.8313 C.ar    1  UNL1        0.0514
     11 C         -10.2135  -16.2874   22.8709 C.ar    1  UNL1        0.0178
     12 C         -11.5706  -16.8384   22.5472 C.ar    1  UNL1        0.0383
     13 C         -12.1598  -16.6279   21.1839 C.ar    1  UNL1       -0.0011
     14 C         -12.3384  -17.5999   23.5867 C.ar    1  UNL1        0.1839
     15 N         -13.8123  -17.4968   23.8458 N.ar    1  UNL1       -0.1081
     16 N         -14.1520  -18.4313   24.9689 N.ar    1  UNL1       -0.0227
     17 N         -12.8880  -19.1119   25.4039 N.ar    1  UNL1       -0.0429
     18 N         -11.7672  -18.5981   24.5497 N.ar    1  UNL1       -0.2113
     19 C         -10.3279  -19.0101   24.6422 C.3     1  UNL1        0.1573
     20 C          -4.9849  -15.8182   24.4799 C.3     1  UNL1        0.0924
     21 C          -4.1423  -16.9847   24.0562 C.3     1  UNL1        0.0386
     22 C          -3.2002  -16.8475   22.8970 C.3     1  UNL1        0.0738
     23 N          -3.3141  -17.7755   21.7240 N.3     1  UNL1       -0.2726
     24 C          -2.3280  -17.6848   20.5974 C.3     1  UNL1        0.0721
     25 C          -2.4420  -18.6127   19.4244 C.3     1  UNL1        0.0174
     26 C          -3.5420  -19.6315   19.3781 C.3     1  UNL1        0.0031
     27 C          -4.5281  -19.7222   20.5048 C.3     1  UNL1        0.0204
     28 C          -4.4142  -18.7941   21.6778 C.3     1  UNL1        0.0724
     29 C          -5.6282  -20.7408   20.4585 C.3     1  UNL1        0.0277
     30 C          -7.0321  -20.3149   20.1461 C.ar    1  UNL1       -0.0220
     31 C          -7.6838  -20.7578   18.8698 C.ar    1  UNL1       -0.0020
     32 C          -9.0878  -20.3318   18.5574 C.ar    1  UNL1        0.0293
     33 C          -9.8399  -19.4629   19.5214 C.ar    1  UNL1        0.1401
     34 F         -11.2439  -19.0370   19.2091 F       1  UNL1       -0.2042
     35 C          -9.1882  -19.0200   20.7978 C.ar    1  UNL1        0.0293
     36 C          -7.7843  -19.4460   21.1101 C.ar    1  UNL1       -0.0020
@<TRIPOS>BOND
     1     7     8    1
     2     8     9   ar
     3     9    10   ar
     4    10     1    1
     5     1     2   am
     6     2     3    2
     7     2     4   am
     8     4    20    1
     9    20    21    1
    10    21    22    1
    11    22    23    1
    12    23    24    1
    13    24    25    1
    14    25    26    1
    15    26    27    1
    16    27    29    1
    17    29    30    1
    18    30    31   ar
    19    31    32   ar
    20    32    33   ar
    21    33    34    1
    22    33    35   ar
    23    35    36   ar
    24    27    28    1
    25    10    11   ar
    26    11    12   ar
    27    12    14    1
    28    14    15   ar
    29    15    16   ar
    30    16    17   ar
    31    17    18   ar
    32    18    19    1
    33    12    13   ar
    34    13     8   ar
    35    28    23    1
    36    18    14   ar
    37    36    30   ar
    38     1     5    1
    39     4     6    1
@<TRIPOS>MOLECULE
*****
 36 39 0 0 0
SMALL
GASTEIGER

@<TRIPOS>ATOM
      1 N          -5.5168  -15.0523   23.0891 N.am    1  UNL1       -0.2683
      2 C          -4.2673  -15.8801   23.0296 C.2     1  UNL1        0.3045
      3 O          -4.1100  -17.0665   23.9339 O.2     1  UNL1       -0.2525
      4 N          -3.1753  -15.5214   22.0660 N.am    1  UNL1       -0.2887
      5 H          -5.6201  -14.2736   22.4956 H       1  UNL1        0.1564
      6 H          -3.2786  -14.7428   21.4725 H       1  UNL1        0.1510
      7 C          -7.2994  -15.3551   27.9605 C.3     1  UNL1        0.0311
      8 C          -7.5002  -15.5623   26.4885 C.ar    1  UNL1       -0.0205
      9 C          -6.4082  -15.2037   25.5248 C.ar    1  UNL1        0.0105
     10 C          -6.6089  -15.4109   24.0528 C.ar    1  UNL1        0.0514
     11 C          -7.9017  -15.9768   23.5446 C.ar    1  UNL1        0.0178
     12 C          -8.9938  -16.3355   24.5083 C.ar    1  UNL1        0.0383
     13 C          -8.7930  -16.1282   25.9803 C.ar    1  UNL1       -0.0011
     14 C         -10.2867  -16.9014   24.0001 C.ar    1  UNL1        0.1839
     15 N         -11.3254  -16.1586   23.2131 N.ar    1  UNL1       -0.1081
     16 N         -12.4485  -17.1075   22.9162 N.ar    1  UNL1       -0.0227
     17 N         -12.1038  -18.4369   23.5197 N.ar    1  UNL1       -0.0429
     18 N         -10.7678  -18.3095   24.1895 N.ar    1  UNL1       -0.2113
     19 C         -10.0405  -19.3989   24.9205 C.3     1  UNL1        0.1573
     20 C          -1.9258  -16.3492   22.0065 C.3     1  UNL1        0.0924
     21 C          -1.3807  -16.7902   20.6804 C.3     1  UNL1        0.0386
     22 C          -2.1498  -17.7665   19.8405 C.3     1  UNL1        0.0738
     23 N          -3.1547  -18.6777   20.4805 N.3     1  UNL1       -0.2726
     24 C          -2.9736  -19.1115   21.9050 C.3     1  UNL1        0.0721
     25 C          -3.9785  -20.0228   22.5450 C.3     1  UNL1        0.0174
     26 C          -5.1647  -20.5003   21.7606 C.3     1  UNL1        0.0031
     27 C          -5.3458  -20.0665   20.3362 C.3     1  UNL1        0.0204
     28 C          -4.3408  -19.1552   19.6961 C.3     1  UNL1        0.0724
     29 C          -6.5318  -20.5439   19.5518 C.3     1  UNL1        0.0277
     30 C          -7.8583  -19.8613   19.7079 C.ar    1  UNL1       -0.0220
     31 C          -8.0532  -18.8390   20.7881 C.ar    1  UNL1       -0.0020
     32 C          -9.3798  -18.1563   20.9442 C.ar    1  UNL1        0.0293
     33 C         -10.5114  -18.4961   20.0201 C.ar    1  UNL1        0.1401
     34 F         -11.8380  -17.8135   20.1761 F       1  UNL1       -0.2042
     35 C         -10.3165  -19.5184   18.9399 C.ar    1  UNL1        0.0293
     36 C          -8.9900  -20.2010   18.7838 C.ar    1  UNL1       -0.0020
@<TRIPOS>BOND
     1     7     8    1
     2     8     9   ar
     3     9    10   ar
     4    10     1    1
     5     1     2   am
     6     2     3    2
     7     2     4   am
     8     4    20    1
     9    20    21    1
    10    21    22    1
    11    22    23    1
    12    23    24    1
    13    24    25    1
    14    25    26    1
    15    26    27    1
    16    27    29    1
    17    29    30    1
    18    30    31   ar
    19    31    32   ar
    20    32    33   ar
    21    33    34    1
    22    33    35   ar
    23    35    36   ar
    24    27    28    1
    25    10    11   ar
    26    11    12   ar
    27    12    14    1
    28    14    15   ar
    29    15    16   ar
    30    16    17   ar
    31    17    18   ar
    32    18    19    1
    33    12    13   ar
    34    13     8   ar
    35    28    23    1
    36    18    14   ar
    37    36    30   ar
    38     1     5    1
    39     4     6    1
@<TRIPOS>MOLECULE
*****
 36 39 0 0 0
SMALL
GASTEIGER

@<TRIPOS>ATOM
      1 N           2.4205   -0.6127   21.8188 N.am    1  UNL1       -0.2683
      2 C           1.8103    0.7575   21.8310 C.2     1  UNL1        0.3045
      3 O           2.6510    1.9499   22.1796 O.2     1  UNL1       -0.2525
      4 N           0.3593    0.9353   21.4947 N.am    1  UNL1       -0.2887
      5 H           1.8688   -1.3953   21.5901 H       1  UNL1        0.1564
      6 H          -0.1924    0.1527   21.2660 H       1  UNL1        0.1510
      7 C           7.4009    0.6732   21.0822 C.3     1  UNL1        0.0311
      8 C           6.3617   -0.1475   21.7868 C.ar    1  UNL1       -0.0205
      9 C           4.9107    0.0302   21.4506 C.ar    1  UNL1        0.0105
     10 C           3.8715   -0.7905   22.1552 C.ar    1  UNL1        0.0514
     11 C           4.2833   -1.7889   23.1961 C.ar    1  UNL1        0.0178
     12 C           5.7342   -1.9667   23.5324 C.ar    1  UNL1        0.0383
     13 C           6.7734   -1.1459   22.8278 C.ar    1  UNL1       -0.0011
     14 C           6.1460   -2.9652   24.5733 C.ar    1  UNL1        0.1839
     15 N           6.6293   -4.3612   24.3135 N.ar    1  UNL1       -0.1081
     16 N           6.9288   -5.0018   25.6364 N.ar    1  UNL1       -0.0227
     17 N           6.6306   -4.0016   26.7138 N.ar    1  UNL1       -0.0429
     18 N           6.1468   -2.7429   26.0567 N.ar    1  UNL1       -0.2113
     19 C           5.7359   -1.4832   26.7598 C.3     1  UNL1        0.1573
     20 C          -0.2509    2.3055   21.5069 C.3     1  UNL1        0.0924
     21 C          -0.4097    3.0673   20.2245 C.3     1  UNL1        0.0386
     22 C          -0.0021    2.4402   18.9243 C.3     1  UNL1        0.0738
     23 N           1.4365    2.0953   18.6764 N.3     1  UNL1       -0.2726
     24 C           2.5035    3.1267   18.8950 C.3     1  UNL1        0.0721
     25 C           3.9420    2.7819   18.6471 C.3     1  UNL1        0.0174
     26 C           4.3137    1.4055   18.1805 C.3     1  UNL1        0.0031
     27 C           3.2468    0.3741   17.9618 C.3     1  UNL1        0.0204
     28 C           1.8081    0.7190   18.2098 C.3     1  UNL1        0.0724
     29 C           3.6184   -1.0021   17.4953 C.3     1  UNL1        0.0277
     30 C           4.4911   -1.8734   18.3492 C.ar    1  UNL1       -0.0220
     31 C           5.9819   -1.7122   18.3076 C.ar    1  UNL1       -0.0020
     32 C           6.8546   -2.5835   19.1616 C.ar    1  UNL1        0.0293
     33 C           6.2366   -3.6159   20.0572 C.ar    1  UNL1        0.1401
     34 F           7.1093   -4.4871   20.9113 F       1  UNL1       -0.2042
     35 C           4.7458   -3.7770   20.0989 C.ar    1  UNL1        0.0293
     36 C           3.8731   -2.9058   19.2449 C.ar    1  UNL1       -0.0020
@<TRIPOS>BOND
     1     7     8    1
     2     8     9   ar
     3     9    10   ar
     4    10     1    1
     5     1     2   am
     6     2     3    2
     7     2     4   am
     8     4    20    1
     9    20    21    1
    10    21    22    1
    11    22    23    1
    12    23    24    1
    13    24    25    1
    14    25    26    1
    15    26    27    1
    16    27    29    1
    17    29    30    1
    18    30    31   ar
    19    31    32   ar
    20    32    33   ar
    21    33    34    1
    22    33    35   ar
    23    35    36   ar
    24    27    28    1
    25    10    11   ar
    26    11    12   ar
    27    12    14    1
    28    14    15   ar
    29    15    16   ar
    30    16    17   ar
    31    17    18   ar
    32    18    19    1
    33    12    13   ar
    34    13     8   ar
    35    28    23    1
    36    18    14   ar
    37    36    30   ar
    38     1     5    1
    39     4     6    1
@<TRIPOS>MOLECULE
*****
 36 39 0 0 0
SMALL
GASTEIGER

@<TRIPOS>ATOM
      1 N           4.9319   -3.4160   33.0073 N.am    1  UNL1       -0.2683
      2 C           6.1626   -3.7725   32.2275 C.2     1  UNL1        0.3045
      3 O           6.9666   -2.6955   31.5614 O.2     1  UNL1       -0.2525
      4 N           6.5893   -5.2060   32.1137 N.am    1  UNL1       -0.2887
      5 H           4.4041   -4.1228   33.4445 H       1  UNL1        0.1564
      6 H           6.0616   -5.9129   32.5508 H       1  UNL1        0.1510
      7 C           4.6260    0.9835   35.7552 C.3     1  UNL1        0.0311
      8 C           4.3522    0.2173   34.4950 C.ar    1  UNL1       -0.0205
      9 C           4.7789   -1.2162   34.3812 C.ar    1  UNL1        0.0105
     10 C           4.5052   -1.9824   33.1211 C.ar    1  UNL1        0.0514
     11 C           3.8048   -1.3151   31.9747 C.ar    1  UNL1        0.0178
     12 C           3.3781    0.1183   32.0885 C.ar    1  UNL1        0.0383
     13 C           3.6518    0.8846   33.3487 C.ar    1  UNL1       -0.0011
     14 C           2.6777    0.7857   30.9421 C.ar    1  UNL1        0.1839
     15 N           1.1930    0.8746   30.7473 N.ar    1  UNL1       -0.1081
     16 N           0.9366    1.6251   29.4742 N.ar    1  UNL1       -0.0227
     17 N           2.2629    2.0001   28.8821 N.ar    1  UNL1       -0.0429
     18 N           3.3389    1.4813   29.7894 N.ar    1  UNL1       -0.2113
     19 C           4.8166    1.6317   29.5804 C.3     1  UNL1        0.1573
     20 C           7.8201   -5.5625   31.3338 C.3     1  UNL1        0.0924
     21 C           7.6929   -6.2039   29.9837 C.3     1  UNL1        0.0386
     22 C           6.9754   -5.4880   28.8780 C.3     1  UNL1        0.0738
     23 N           7.2844   -5.8165   27.4474 N.3     1  UNL1       -0.2726
     24 C           7.4863   -7.2437   27.0323 C.3     1  UNL1        0.0721
     25 C           7.7953   -7.5721   25.6017 C.3     1  UNL1        0.0174
     26 C           7.9025   -6.4733   24.5862 C.3     1  UNL1        0.0031
     27 C           7.7007   -5.0461   25.0013 C.3     1  UNL1        0.0204
     28 C           7.3916   -4.7177   26.4320 C.3     1  UNL1        0.0724
     29 C           7.8079   -3.9474   23.9859 C.3     1  UNL1        0.0277
     30 C           6.8012   -3.8490   22.8782 C.ar    1  UNL1       -0.0220
     31 C           5.3578   -3.5943   23.1970 C.ar    1  UNL1       -0.0020
     32 C           4.3511   -3.4960   22.0893 C.ar    1  UNL1        0.0293
     33 C           4.7879   -3.6523   20.6629 C.ar    1  UNL1        0.1401
     34 F           3.7812   -3.5539   19.5552 F       1  UNL1       -0.2042
     35 C           6.2313   -3.9069   20.3441 C.ar    1  UNL1        0.0293
     36 C           7.2380   -4.0053   21.4517 C.ar    1  UNL1       -0.0020
@<TRIPOS>BOND
     1     7     8    1
     2     8     9   ar
     3     9    10   ar
     4    10     1    1
     5     1     2   am
     6     2     3    2
     7     2     4   am
     8     4    20    1
     9    20    21    1
    10    21    22    1
    11    22    23    1
    12    23    24    1
    13    24    25    1
    14    25    26    1
    15    26    27    1
    16    27    29    1
    17    29    30    1
    18    30    31   ar
    19    31    32   ar
    20    32    33   ar
    21    33    34    1
    22    33    35   ar
    23    35    36   ar
    24    27    28    1
    25    10    11   ar
    26    11    12   ar
    27    12    14    1
    28    14    15   ar
    29    15    16   ar
    30    16    17   ar
    31    17    18   ar
    32    18    19    1
    33    12    13   ar
    34    13     8   ar
    35    28    23    1
    36    18    14   ar
    37    36    30   ar
    38     1     5    1
    39     4     6    1
