@<TRIPOS>MOLECULE
*****
 40 44 0 0 0
SMALL
GASTEIGER

@<TRIPOS>ATOM
      1 N           0.0335    2.5045   20.4792 N.am    1  UNL1       -0.2655
      2 C           0.7735    1.2854   20.9440 C.2     1  UNL1        0.3076
      3 O           0.3129    0.5494   22.1673 O.2     1  UNL1       -0.2522
      4 N           1.9740    0.8020   20.1856 N.am    1  UNL1       -0.2681
      5 H           2.2763    1.2850   19.3828 H       1  UNL1        0.1564
      6 C           2.7139   -0.4172   20.6505 C.ar    1  UNL1        0.0517
      7 C           3.1072   -0.5517   22.0918 C.ar    1  UNL1        0.0170
      8 C           3.8471   -1.7709   22.5567 C.ar    1  UNL1        0.0309
      9 C           4.1936   -2.8555   21.5803 C.ar    1  UNL1        0.1441
     10 F           4.9335   -4.0748   22.0452 F       1  UNL1       -0.2042
     11 C           3.8003   -2.7211   20.1391 C.ar    1  UNL1        0.1000
     12 C           3.0605   -1.5019   19.6742 C.ar    1  UNL1        0.0208
     13 C           4.1470   -3.8058   19.1627 C.3     1  UNL1        0.4207
     14 F           4.4935   -4.8905   18.1864 F       1  UNL1       -0.1658
     15 F           2.7126   -4.2439   19.1403 F       1  UNL1       -0.1658
     16 F           5.5813   -3.3677   19.1851 F       1  UNL1       -0.1658
     17 C          -1.1670    2.9879   21.2376 C.3     1  UNL1        0.0771
     18 C          -1.1672    3.5273   22.6372 C.3     1  UNL1        0.0202
     19 C          -2.5784    3.8895   22.9942 C.3     1  UNL1        0.0058
     20 C          -3.4503    3.5738   21.8152 C.3     1  UNL1        0.0206
     21 C          -4.0536    3.1646   20.5042 C.3     1  UNL1        0.0061
     22 C          -2.5780    3.0166   20.7296 C.3     1  UNL1        0.0223
     23 C          -4.7353    4.0215   22.4461 C.ar    1  UNL1       -0.0227
     24 C          -5.8543    4.5327   21.5878 C.ar    1  UNL1       -0.0036
     25 C          -7.1393    4.9804   22.2188 C.ar    1  UNL1        0.0100
     26 C          -7.3055    4.9169   23.7081 C.ar    1  UNL1        0.0684
     27 C          -6.1866    4.4056   24.5666 C.ar    1  UNL1        0.0100
     28 C          -4.9015    3.9579   23.9356 C.ar    1  UNL1       -0.0036
     29 C          -8.5906    5.3645   24.3392 C.1     1  UNL1        0.1004
     30 N          -9.8757    5.8122   24.9703 N.1     1  UNL1       -0.1908
     31 C           0.4941    3.2404   19.2559 C.3     1  UNL1        0.0963
     32 C          -0.1559    2.9732   17.9307 C.3     1  UNL1        0.0389
     33 C          -0.7189    4.1090   17.1290 C.3     1  UNL1        0.0739
     34 C          -6.3109    6.0252   18.1577 C.3     1  UNL1        0.0897
     35 N          -4.9129    5.5461   17.9005 N.3     1  UNL1       -0.2691
     36 C          -4.6797    4.3418   17.0373 C.3     1  UNL1        0.0897
     37 C          -3.2817    3.8627   16.7802 C.3     1  UNL1        0.0897
     38 N          -2.1169    4.5881   17.3861 N.3     1  UNL1       -0.2703
     39 C          -2.3502    5.7924   18.2493 C.3     1  UNL1        0.0897
     40 C          -3.7482    6.2715   18.5065 C.3     1  UNL1        0.0897
@<TRIPOS>BOND
     1    34    35    1
     2    35    36    1
     3    36    37    1
     4    37    38    1
     5    38    33    1
     6    33    32    1
     7    32    31    1
     8    31     1    1
     9     1     2   am
    10     2     3    2
    11     2     4   am
    12     4     6    1
    13     6     7   ar
    14     7     8   ar
    15     8     9   ar
    16     9    10    1
    17     9    11   ar
    18    11    13    1
    19    13    14    1
    20    13    15    1
    21    13    16    1
    22    11    12   ar
    23     1    17    1
    24    17    18    1
    25    18    19    1
    26    19    20    1
    27    20    23    1
    28    23    24   ar
    29    24    25   ar
    30    25    26   ar
    31    26    29    1
    32    29    30    3
    33    26    27   ar
    34    27    28   ar
    35    20    21    1
    36    21    22    1
    37    38    39    1
    38    39    40    1
    39    40    35    1
    40    12     6   ar
    41    22    17    1
    42    22    20    1
    43    28    23   ar
    44     4     5    1
@<TRIPOS>MOLECULE
*****
 40 44 0 0 0
SMALL
GASTEIGER

@<TRIPOS>ATOM
      1 N           1.7824    1.2573   24.1570 N.am    1  UNL1       -0.2655
      2 C           1.9122    0.8568   22.7173 C.2     1  UNL1        0.3076
      3 O           0.7514    1.0300   21.7831 O.2     1  UNL1       -0.2522
      4 N           3.2027    0.2832   22.2117 N.am    1  UNL1       -0.2681
      5 H           3.9645    0.1696   22.8248 H       1  UNL1        0.1564
      6 C           3.3323   -0.1173   20.7719 C.ar    1  UNL1        0.0517
      7 C           3.1080    0.8957   19.6886 C.ar    1  UNL1        0.0170
      8 C           3.2377    0.4953   18.2489 C.ar    1  UNL1        0.0309
      9 C           3.5917   -0.9181   17.8925 C.ar    1  UNL1        0.1441
     10 F           3.7214   -1.3186   16.4527 F       1  UNL1       -0.2042
     11 C           3.8160   -1.9310   18.9758 C.ar    1  UNL1        0.1000
     12 C           3.6864   -1.5306   20.4156 C.ar    1  UNL1        0.0208
     13 C           4.1701   -3.3445   18.6194 C.3     1  UNL1        0.4207
     14 F           4.5241   -4.7578   18.2630 F       1  UNL1       -0.1658
     15 F           5.4609   -2.8700   18.0205 F       1  UNL1       -0.1658
     16 F           2.8793   -3.8189   19.2183 F       1  UNL1       -0.1658
     17 C           0.4919    1.8309   24.6625 C.3     1  UNL1        0.0771
     18 C          -0.1690    1.4994   25.9676 C.3     1  UNL1        0.0202
     19 C          -1.4336    2.3004   26.0635 C.3     1  UNL1        0.0058
     20 C          -1.5543    3.1269   24.8176 C.3     1  UNL1        0.0206
     21 C          -1.4040    3.8161   23.4938 C.3     1  UNL1        0.0061
     22 C          -0.3643    2.8368   23.9518 C.3     1  UNL1        0.0223
     23 C          -2.8503    3.7838   25.1901 C.ar    1  UNL1       -0.0227
     24 C          -3.7886    4.2533   24.1181 C.ar    1  UNL1       -0.0036
     25 C          -5.0845    4.9102   24.4907 C.ar    1  UNL1        0.0100
     26 C          -5.4424    5.0975   25.9352 C.ar    1  UNL1        0.0684
     27 C          -4.5041    4.6280   27.0074 C.ar    1  UNL1        0.0100
     28 C          -3.2081    3.9711   26.6348 C.ar    1  UNL1       -0.0036
     29 C          -6.7384    5.7544   26.3079 C.1     1  UNL1        0.1004
     30 N          -8.0344    6.4112   26.6806 N.1     1  UNL1       -0.1908
     31 C           2.9432    1.0842   25.0912 C.3     1  UNL1        0.0963
     32 C           3.4365   -0.2919   25.4275 C.3     1  UNL1        0.0389
     33 C           4.9035   -0.5984   25.3668 C.3     1  UNL1        0.0739
     34 C           7.1216   -3.7548   20.7715 C.3     1  UNL1        0.0897
     35 N           6.5671   -2.9657   21.9203 N.3     1  UNL1       -0.2691
     36 C           7.0456   -1.5661   22.1691 C.3     1  UNL1        0.0897
     37 C           6.4911   -0.7770   23.3180 C.3     1  UNL1        0.0897
     38 N           5.4581   -1.3875   24.2180 N.3     1  UNL1       -0.2703
     39 C           4.9795   -2.7871   23.9692 C.3     1  UNL1        0.0897
     40 C           5.5341   -3.5763   22.8203 C.3     1  UNL1        0.0897
@<TRIPOS>BOND
     1    34    35    1
     2    35    36    1
     3    36    37    1
     4    37    38    1
     5    38    33    1
     6    33    32    1
     7    32    31    1
     8    31     1    1
     9     1     2   am
    10     2     3    2
    11     2     4   am
    12     4     6    1
    13     6     7   ar
    14     7     8   ar
    15     8     9   ar
    16     9    10    1
    17     9    11   ar
    18    11    13    1
    19    13    14    1
    20    13    15    1
    21    13    16    1
    22    11    12   ar
    23     1    17    1
    24    17    18    1
    25    18    19    1
    26    19    20    1
    27    20    23    1
    28    23    24   ar
    29    24    25   ar
    30    25    26   ar
    31    26    29    1
    32    29    30    3
    33    26    27   ar
    34    27    28   ar
    35    20    21    1
    36    21    22    1
    37    38    39    1
    38    39    40    1
    39    40    35    1
    40    12     6   ar
    41    22    17    1
    42    22    20    1
    43    28    23   ar
    44     4     5    1
@<TRIPOS>MOLECULE
*****
 40 44 0 0 0
SMALL
GASTEIGER

@<TRIPOS>ATOM
      1 N          -0.1356    2.3865   20.2957 N.am    1  UNL1       -0.2655
      2 C           0.6534    1.2149   20.8004 C.2     1  UNL1        0.3076
      3 O           0.2772    0.5595   22.0961 O.2     1  UNL1       -0.2522
      4 N           1.8186    0.6986   20.0093 N.am    1  UNL1       -0.2681
      5 H           2.0655    1.1287   19.1589 H       1  UNL1        0.1564
      6 C           2.6076   -0.4731   20.5141 C.ar    1  UNL1        0.0517
      7 C           3.0277   -0.5305   21.9529 C.ar    1  UNL1        0.0170
      8 C           3.8166   -1.7021   22.4577 C.ar    1  UNL1        0.0309
      9 C           4.1856   -2.8162   21.5236 C.ar    1  UNL1        0.1441
     10 F           4.9747   -3.9879   22.0283 F       1  UNL1       -0.2042
     11 C           3.7656   -2.7588   20.0847 C.ar    1  UNL1        0.1000
     12 C           2.9766   -1.5872   19.5800 C.ar    1  UNL1        0.0208
     13 C           4.1346   -3.8730   19.1506 C.3     1  UNL1        0.4207
     14 F           4.5037   -4.9871   18.2166 F       1  UNL1       -0.1658
     15 F           5.5631   -3.4158   19.1698 F       1  UNL1       -0.1658
     16 F           2.7062   -4.3301   19.1315 F       1  UNL1       -0.1658
     17 C          -1.3008    2.9027   21.0867 C.3     1  UNL1        0.0771
     18 C          -1.2486    3.4351   22.4881 C.3     1  UNL1        0.0202
     19 C          -2.6383    3.8387   22.8828 C.3     1  UNL1        0.0058
     20 C          -3.5495    3.5557   21.7253 C.3     1  UNL1        0.0206
     21 C          -4.1985    3.1715   20.4287 C.3     1  UNL1        0.0061
     22 C          -2.7229    2.9772   20.6153 C.3     1  UNL1        0.0223
     23 C          -4.8035    4.0395   22.3910 C.ar    1  UNL1       -0.0227
     24 C          -4.9386    3.9621   23.8829 C.ar    1  UNL1       -0.0036
     25 C          -6.1926    4.4459   24.5486 C.ar    1  UNL1        0.0100
     26 C          -7.3117    5.0072   23.7224 C.ar    1  UNL1        0.0684
     27 C          -7.1767    5.0848   22.2304 C.ar    1  UNL1        0.0100
     28 C          -5.9226    4.6009   21.5647 C.ar    1  UNL1       -0.0036
     29 C          -8.5658    5.4911   24.3880 C.1     1  UNL1        0.1004
     30 N          -9.8199    5.9750   25.0537 N.1     1  UNL1       -0.1908
     31 C           0.2406    3.0419   18.9999 C.3     1  UNL1        0.0963
     32 C           1.2666    4.1360   18.9829 C.3     1  UNL1        0.0389
     33 C           2.5998    3.9040   18.3360 C.3     1  UNL1        0.0739
     34 C           6.8118    0.7313   21.1983 C.3     1  UNL1        0.0897
     35 N           5.7588    1.5245   20.4827 N.3     1  UNL1       -0.2691
     36 C           4.9416    2.5343   21.2325 C.3     1  UNL1        0.0897
     37 C           3.8886    3.3275   20.5169 C.3     1  UNL1        0.0897
     38 N           3.6528    3.1108   19.0516 N.3     1  UNL1       -0.2703
     39 C           4.4700    2.1009   18.3018 C.3     1  UNL1        0.0897
     40 C           5.5230    1.3077   19.0174 C.3     1  UNL1        0.0897
@<TRIPOS>BOND
     1    34    35    1
     2    35    36    1
     3    36    37    1
     4    37    38    1
     5    38    33    1
     6    33    32    1
     7    32    31    1
     8    31     1    1
     9     1     2   am
    10     2     3    2
    11     2     4   am
    12     4     6    1
    13     6     7   ar
    14     7     8   ar
    15     8     9   ar
    16     9    10    1
    17     9    11   ar
    18    11    13    1
    19    13    14    1
    20    13    15    1
    21    13    16    1
    22    11    12   ar
    23     1    17    1
    24    17    18    1
    25    18    19    1
    26    19    20    1
    27    20    23    1
    28    23    24   ar
    29    24    25   ar
    30    25    26   ar
    31    26    29    1
    32    29    30    3
    33    26    27   ar
    34    27    28   ar
    35    20    21    1
    36    21    22    1
    37    38    39    1
    38    39    40    1
    39    40    35    1
    40    12     6   ar
    41    22    17    1
    42    22    20    1
    43    28    23   ar
    44     4     5    1
@<TRIPOS>MOLECULE
*****
 40 44 0 0 0
SMALL
GASTEIGER

@<TRIPOS>ATOM
      1 N           0.7550    2.6560   20.4365 N.am    1  UNL1       -0.2655
      2 C           1.4254    1.4903   19.7720 C.2     1  UNL1        0.3076
      3 O           0.7551    0.7935   18.6251 O.2     1  UNL1       -0.2522
      4 N           2.7661    1.0214   20.2543 N.am    1  UNL1       -0.2681
      5 H           3.2060    1.4787   21.0070 H       1  UNL1        0.1564
      6 C           3.4365   -0.1444   19.5897 C.ar    1  UNL1        0.0517
      7 C           4.3580    0.0827   18.4282 C.ar    1  UNL1        0.0170
      8 C           5.0284   -1.0830   17.7636 C.ar    1  UNL1        0.0309
      9 C           4.7773   -2.4758   18.2606 C.ar    1  UNL1        0.1441
     10 F           5.4477   -3.6416   17.5960 F       1  UNL1       -0.2042
     11 C           3.8557   -2.7029   19.4222 C.ar    1  UNL1        0.1000
     12 C           3.1853   -1.5372   20.0867 C.ar    1  UNL1        0.0208
     13 C           3.6046   -4.0957   19.9191 C.3     1  UNL1        0.4207
     14 F           3.3535   -5.4886   20.4160 F       1  UNL1       -0.1658
     15 F           2.7955   -4.3882   18.6904 F       1  UNL1       -0.1658
     16 F           4.4137   -3.8033   21.1478 F       1  UNL1       -0.1658
     17 C          -0.5857    3.1250   19.9542 C.3     1  UNL1        0.0771
     18 C          -0.8965    3.6459   18.5823 C.3     1  UNL1        0.0202
     19 C          -2.3539    3.9982   18.5393 C.3     1  UNL1        0.0058
     20 C          -2.9439    3.6950   19.8847 C.3     1  UNL1        0.0206
     21 C          -3.2422    3.3010   21.3009 C.3     1  UNL1        0.0061
     22 C          -1.8511    3.1554   20.7591 C.3     1  UNL1        0.0223
     23 C          -4.3389    4.1297   19.5457 C.ar    1  UNL1       -0.0227
     24 C          -5.3450    4.3410   20.6380 C.ar    1  UNL1       -0.0036
     25 C          -6.7400    4.7756   20.2990 C.ar    1  UNL1        0.0100
     26 C          -7.1290    4.9991   18.8676 C.ar    1  UNL1        0.0684
     27 C          -6.1229    4.7878   17.7752 C.ar    1  UNL1        0.0100
     28 C          -4.7278    4.3532   18.1142 C.ar    1  UNL1       -0.0036
     29 C          -8.5240    5.4338   18.5285 C.1     1  UNL1        0.1004
     30 N          -9.9190    5.8685   18.1893 N.1     1  UNL1       -0.1908
     31 C           1.4252    3.3529   21.5833 C.3     1  UNL1        0.0963
     32 C           0.9964    3.0628   22.9912 C.3     1  UNL1        0.0389
     33 C           0.9566    1.6476   23.4866 C.3     1  UNL1        0.0739
     34 C           0.7916    0.5358   29.3804 C.3     1  UNL1        0.0897
     35 N           0.8328    0.8137   27.9069 N.3     1  UNL1       -0.2691
     36 C           2.1210    0.6690   27.1521 C.3     1  UNL1        0.0897
     37 C           2.1622    0.9469   25.6787 C.3     1  UNL1        0.0897
     38 N           0.9153    1.3697   24.9600 N.3     1  UNL1       -0.2703
     39 C          -0.3728    1.5144   25.7148 C.3     1  UNL1        0.0897
     40 C          -0.4141    1.2364   27.1882 C.3     1  UNL1        0.0897
@<TRIPOS>BOND
     1    34    35    1
     2    35    36    1
     3    36    37    1
     4    37    38    1
     5    38    33    1
     6    33    32    1
     7    32    31    1
     8    31     1    1
     9     1     2   am
    10     2     3    2
    11     2     4   am
    12     4     6    1
    13     6     7   ar
    14     7     8   ar
    15     8     9   ar
    16     9    10    1
    17     9    11   ar
    18    11    13    1
    19    13    14    1
    20    13    15    1
    21    13    16    1
    22    11    12   ar
    23     1    17    1
    24    17    18    1
    25    18    19    1
    26    19    20    1
    27    20    23    1
    28    23    24   ar
    29    24    25   ar
    30    25    26   ar
    31    26    29    1
    32    29    30    3
    33    26    27   ar
    34    27    28   ar
    35    20    21    1
    36    21    22    1
    37    38    39    1
    38    39    40    1
    39    40    35    1
    40    12     6   ar
    41    22    17    1
    42    22    20    1
    43    28    23   ar
    44     4     5    1
@<TRIPOS>MOLECULE
*****
 40 44 0 0 0
SMALL
GASTEIGER

@<TRIPOS>ATOM
      1 N           0.7118    2.0476   21.9361 N.am    1  UNL1       -0.2655
      2 C           1.7219    1.0817   21.3916 C.2     1  UNL1        0.3076
      3 O           2.8202    0.5677   22.2746 O.2     1  UNL1       -0.2522
      4 N           1.6340    0.6298   19.9639 N.am    1  UNL1       -0.2681
      5 H           0.9132    0.9672   19.3844 H       1  UNL1        0.1564
      6 C           2.6442   -0.3361   19.4194 C.ar    1  UNL1        0.0517
      7 C           3.6770    0.1328   18.4378 C.ar    1  UNL1        0.0170
      8 C           4.6872   -0.8331   17.8932 C.ar    1  UNL1        0.0309
      9 C           4.6647   -2.2678   18.3303 C.ar    1  UNL1        0.1441
     10 F           5.6749   -3.2337   17.7857 F       1  UNL1       -0.2042
     11 C           3.6319   -2.7366   19.3119 C.ar    1  UNL1        0.1000
     12 C           2.6217   -1.7708   19.8565 C.ar    1  UNL1        0.0208
     13 C           3.6094   -4.1714   19.7490 C.3     1  UNL1        0.4207
     14 F           3.5869   -5.6061   20.1860 F       1  UNL1       -0.1658
     15 F           2.6423   -4.4916   18.6480 F       1  UNL1       -0.1658
     16 F           4.5765   -3.8513   20.8499 F       1  UNL1       -0.1658
     17 C           0.7998    2.4994   23.3637 C.3     1  UNL1        0.0771
     18 C           1.4437    3.7638   23.8502 C.3     1  UNL1        0.0202
     19 C           1.3012    3.8121   25.3427 C.3     1  UNL1        0.0058
     20 C           0.5691    2.5776   25.7786 C.3     1  UNL1        0.0206
     21 C          -0.1652    1.2761   25.9081 C.3     1  UNL1        0.0061
     22 C           0.2592    1.7663   24.5555 C.3     1  UNL1        0.0223
     23 C           0.5801    2.8979   27.2438 C.ar    1  UNL1       -0.0227
     24 C           0.5080    4.3250   27.7002 C.ar    1  UNL1       -0.0036
     25 C           0.5190    4.6453   29.1655 C.ar    1  UNL1        0.0100
     26 C           0.6020    3.5386   30.1746 C.ar    1  UNL1        0.0684
     27 C           0.6741    2.1114   29.7183 C.ar    1  UNL1        0.0100
     28 C           0.6632    1.7911   28.2529 C.ar    1  UNL1       -0.0036
     29 C           0.6130    3.8588   31.6400 C.1     1  UNL1        0.1004
     30 N           0.6241    4.1791   33.1053 N.1     1  UNL1       -0.1908
     31 C          -0.3865    2.5616   21.0531 C.3     1  UNL1        0.0963
     32 C          -1.5744    3.2499   21.6572 C.3     1  UNL1        0.0389
     33 C          -2.8597    3.3403   20.8891 C.3     1  UNL1        0.0739
     34 C          -7.9829    4.5917   23.7503 C.3     1  UNL1        0.0897
     35 N          -6.7021    4.2788   23.0350 N.3     1  UNL1       -0.2691
     36 C          -6.6172    4.4356   21.5457 C.3     1  UNL1        0.0897
     37 C          -5.3364    4.1228   20.8304 C.3     1  UNL1        0.0897
     38 N          -4.1405    3.6531   21.6044 N.3     1  UNL1       -0.2703
     39 C          -4.2254    3.4964   23.0937 C.3     1  UNL1        0.0897
     40 C          -5.5062    3.8092   23.8090 C.3     1  UNL1        0.0897
@<TRIPOS>BOND
     1    34    35    1
     2    35    36    1
     3    36    37    1
     4    37    38    1
     5    38    33    1
     6    33    32    1
     7    32    31    1
     8    31     1    1
     9     1     2   am
    10     2     3    2
    11     2     4   am
    12     4     6    1
    13     6     7   ar
    14     7     8   ar
    15     8     9   ar
    16     9    10    1
    17     9    11   ar
    18    11    13    1
    19    13    14    1
    20    13    15    1
    21    13    16    1
    22    11    12   ar
    23     1    17    1
    24    17    18    1
    25    18    19    1
    26    19    20    1
    27    20    23    1
    28    23    24   ar
    29    24    25   ar
    30    25    26   ar
    31    26    29    1
    32    29    30    3
    33    26    27   ar
    34    27    28   ar
    35    20    21    1
    36    21    22    1
    37    38    39    1
    38    39    40    1
    39    40    35    1
    40    12     6   ar
    41    22    17    1
    42    22    20    1
    43    28    23   ar
    44     4     5    1
@<TRIPOS>MOLECULE
*****
 40 44 0 0 0
SMALL
GASTEIGER

@<TRIPOS>ATOM
      1 N           0.9366    1.7896   22.2651 N.am    1  UNL1       -0.2655
      2 C           1.9344    0.8487   21.6577 C.2     1  UNL1        0.3076
      3 O           3.0738    0.3284   22.4831 O.2     1  UNL1       -0.2522
      4 N           1.7929    0.4280   20.2248 N.am    1  UNL1       -0.2681
      5 H           1.0452    0.7695   19.6831 H       1  UNL1        0.1564
      6 C           2.7908   -0.5129   19.6174 C.ar    1  UNL1        0.0517
      7 C           3.8517    0.0116   18.6957 C.ar    1  UNL1        0.0170
      8 C           4.8495   -0.9293   18.0882 C.ar    1  UNL1        0.0309
      9 C           4.7865   -2.3946   18.4025 C.ar    1  UNL1        0.1441
     10 F           5.7844   -3.3355   17.7950 F       1  UNL1       -0.2042
     11 C           3.7257   -2.9191   19.3242 C.ar    1  UNL1        0.1000
     12 C           2.7279   -1.9782   19.9316 C.ar    1  UNL1        0.0208
     13 C           3.6628   -4.3845   19.6385 C.3     1  UNL1        0.4207
     14 F           3.5999   -5.8498   19.9527 F       1  UNL1       -0.1658
     15 F           4.7434   -4.2109   20.6641 F       1  UNL1       -0.1658
     16 F           2.5821   -4.5581   18.6128 F       1  UNL1       -0.1658
     17 C           1.0781    2.2102   23.6980 C.3     1  UNL1        0.0771
     18 C           2.0314    3.2420   24.2240 C.3     1  UNL1        0.0202
     19 C           1.8336    3.3424   25.7075 C.3     1  UNL1        0.0058
     20 C           0.7581    2.3726   26.0984 C.3     1  UNL1        0.0206
     21 C          -0.3233    1.3366   26.1828 C.3     1  UNL1        0.0061
     22 C           0.2912    1.6729   24.8564 C.3     1  UNL1        0.0223
     23 C           0.7864    2.6896   27.5642 C.ar    1  UNL1       -0.0227
     24 C           0.8713    4.1156   28.0218 C.ar    1  UNL1       -0.0036
     25 C           0.8996    4.4325   29.4875 C.ar    1  UNL1        0.0100
     26 C           0.8429    3.3235   30.4959 C.ar    1  UNL1        0.0684
     27 C           0.7579    1.8974   30.0384 C.ar    1  UNL1        0.0100
     28 C           0.7296    1.5805   28.5726 C.ar    1  UNL1       -0.0036
     29 C           0.8712    3.6404   31.9618 C.1     1  UNL1        0.1004
     30 N           0.8994    3.9571   33.4277 N.1     1  UNL1       -0.1908
     31 C          -0.2028    2.3098   21.4398 C.3     1  UNL1        0.0963
     32 C          -0.8569    3.6108   21.7998 C.3     1  UNL1        0.0389
     33 C          -2.2380    3.6191   22.3850 C.3     1  UNL1        0.0739
     34 C          -7.0207    3.9981   18.7819 C.3     1  UNL1        0.0897
     35 N          -5.8250    3.9033   19.6827 N.3     1  UNL1       -0.2691
     36 C          -4.4588    3.7024   19.0970 C.3     1  UNL1        0.0897
     37 C          -3.2632    3.6077   19.9978 C.3     1  UNL1        0.0897
     38 N          -3.4337    3.7138   21.4842 N.3     1  UNL1       -0.2703
     39 C          -4.7999    3.9147   22.0699 C.3     1  UNL1        0.0897
     40 C          -5.9956    4.0095   21.1691 C.3     1  UNL1        0.0897
@<TRIPOS>BOND
     1    34    35    1
     2    35    36    1
     3    36    37    1
     4    37    38    1
     5    38    33    1
     6    33    32    1
     7    32    31    1
     8    31     1    1
     9     1     2   am
    10     2     3    2
    11     2     4   am
    12     4     6    1
    13     6     7   ar
    14     7     8   ar
    15     8     9   ar
    16     9    10    1
    17     9    11   ar
    18    11    13    1
    19    13    14    1
    20    13    15    1
    21    13    16    1
    22    11    12   ar
    23     1    17    1
    24    17    18    1
    25    18    19    1
    26    19    20    1
    27    20    23    1
    28    23    24   ar
    29    24    25   ar
    30    25    26   ar
    31    26    29    1
    32    29    30    3
    33    26    27   ar
    34    27    28   ar
    35    20    21    1
    36    21    22    1
    37    38    39    1
    38    39    40    1
    39    40    35    1
    40    12     6   ar
    41    22    17    1
    42    22    20    1
    43    28    23   ar
    44     4     5    1
@<TRIPOS>MOLECULE
*****
 40 44 0 0 0
SMALL
GASTEIGER

@<TRIPOS>ATOM
      1 N           1.8414    1.2916   24.2540 N.am    1  UNL1       -0.2655
      2 C           1.9375    0.8932   22.8111 C.2     1  UNL1        0.3076
      3 O           0.7540    1.0640   21.9054 O.2     1  UNL1       -0.2522
      4 N           3.2171    0.3239   22.2738 N.am    1  UNL1       -0.2681
      5 H           3.9938    0.2118   22.8682 H       1  UNL1        0.1564
      6 C           3.3131   -0.0745   20.8308 C.ar    1  UNL1        0.0517
      7 C           3.0138    0.9268   19.7548 C.ar    1  UNL1        0.0170
      8 C           3.1099    0.5285   18.3119 C.ar    1  UNL1        0.0309
      9 C           3.5052   -0.8711   17.9450 C.ar    1  UNL1        0.1441
     10 F           3.6013   -1.2695   16.5020 F       1  UNL1       -0.2042
     11 C           3.8046   -1.8724   19.0210 C.ar    1  UNL1        0.1000
     12 C           3.7085   -1.4741   20.4639 C.ar    1  UNL1        0.0208
     13 C           4.2000   -3.2721   18.6540 C.3     1  UNL1        0.4207
     14 F           4.5954   -4.6717   18.2870 F       1  UNL1       -0.1658
     15 F           5.4781   -2.7559   18.0625 F       1  UNL1       -0.1658
     16 F           2.9219   -3.7883   19.2455 F       1  UNL1       -0.1658
     17 C           0.5618    1.8608   24.7913 C.3     1  UNL1        0.0771
     18 C          -0.0726    1.5169   26.1063 C.3     1  UNL1        0.0202
     19 C          -1.3345    2.3174   26.2356 C.3     1  UNL1        0.0058
     20 C          -1.4800    3.1562   25.0006 C.3     1  UNL1        0.0206
     21 C          -1.3562    3.8582   23.6808 C.3     1  UNL1        0.0061
     22 C          -0.3080    2.8739   24.1079 C.3     1  UNL1        0.0223
     23 C          -2.7677    3.8099   25.4058 C.ar    1  UNL1       -0.0227
     24 C          -4.0025    3.6119   24.5776 C.ar    1  UNL1       -0.0036
     25 C          -5.2902    4.2657   24.9828 C.ar    1  UNL1        0.0100
     26 C          -5.3432    5.1176   26.2163 C.ar    1  UNL1        0.0684
     27 C          -4.1084    5.3156   27.0446 C.ar    1  UNL1        0.0100
     28 C          -2.8206    4.6618   26.6393 C.ar    1  UNL1       -0.0036
     29 C          -6.6309    5.7714   26.6216 C.1     1  UNL1        0.1004
     30 N          -7.9187    6.4252   27.0269 N.1     1  UNL1       -0.1908
     31 C           3.0249    1.1207   25.1597 C.3     1  UNL1        0.0963
     32 C           3.2086   -0.1589   25.9205 C.3     1  UNL1        0.0389
     33 C           4.0878   -1.2409   25.3671 C.3     1  UNL1        0.0739
     34 C           8.2486   -3.8006   28.8507 C.3     1  UNL1        0.0897
     35 N           7.2084   -3.1607   27.9798 N.3     1  UNL1       -0.2691
     36 C           7.3027   -3.2801   26.4876 C.3     1  UNL1        0.0897
     37 C           6.2625   -2.6402   25.6167 C.3     1  UNL1        0.0897
     38 N           5.1280   -1.8808   26.2380 N.3     1  UNL1       -0.2703
     39 C           5.0336   -1.7614   27.7302 C.3     1  UNL1        0.0897
     40 C           6.0738   -2.4013   28.6011 C.3     1  UNL1        0.0897
@<TRIPOS>BOND
     1    34    35    1
     2    35    36    1
     3    36    37    1
     4    37    38    1
     5    38    33    1
     6    33    32    1
     7    32    31    1
     8    31     1    1
     9     1     2   am
    10     2     3    2
    11     2     4   am
    12     4     6    1
    13     6     7   ar
    14     7     8   ar
    15     8     9   ar
    16     9    10    1
    17     9    11   ar
    18    11    13    1
    19    13    14    1
    20    13    15    1
    21    13    16    1
    22    11    12   ar
    23     1    17    1
    24    17    18    1
    25    18    19    1
    26    19    20    1
    27    20    23    1
    28    23    24   ar
    29    24    25   ar
    30    25    26   ar
    31    26    29    1
    32    29    30    3
    33    26    27   ar
    34    27    28   ar
    35    20    21    1
    36    21    22    1
    37    38    39    1
    38    39    40    1
    39    40    35    1
    40    12     6   ar
    41    22    17    1
    42    22    20    1
    43    28    23   ar
    44     4     5    1
@<TRIPOS>MOLECULE
*****
 40 44 0 0 0
SMALL
GASTEIGER

@<TRIPOS>ATOM
      1 N          -0.2399    1.6855   25.5993 N.am    1  UNL1       -0.2655
      2 C          -1.2111    2.7211   25.1154 C.2     1  UNL1        0.3076
      3 O          -1.1322    3.2217   23.7035 O.2     1  UNL1       -0.2522
      4 N          -2.2613    3.2562   26.0432 N.am    1  UNL1       -0.2681
      5 H          -2.3131    2.9276   26.9698 H       1  UNL1        0.1564
      6 C          -3.2325    4.2918   25.5592 C.ar    1  UNL1        0.0517
      7 C          -2.8650    5.7453   25.6074 C.ar    1  UNL1        0.0170
      8 C          -3.8361    6.7810   25.1235 C.ar    1  UNL1        0.0309
      9 C          -5.1748    6.3631   24.5912 C.ar    1  UNL1        0.1441
     10 F          -6.1460    7.3988   24.1072 F       1  UNL1       -0.2042
     11 C          -5.5423    4.9097   24.5430 C.ar    1  UNL1        0.1000
     12 C          -4.5712    3.8740   25.0270 C.ar    1  UNL1        0.0208
     13 C          -6.8811    4.4918   24.0107 C.3     1  UNL1        0.4207
     14 F          -8.2198    4.0740   23.4785 F       1  UNL1       -0.1658
     15 F          -6.2057    3.7394   22.9027 F       1  UNL1       -0.1658
     16 F          -7.5565    5.2443   25.1187 F       1  UNL1       -0.1658
     17 C           0.8102    1.1505   24.6715 C.3     1  UNL1        0.0771
     18 C           2.1726    0.6641   25.0685 C.3     1  UNL1        0.0202
     19 C           2.8868    0.2209   23.8261 C.3     1  UNL1        0.0058
     20 C           1.9659    0.4333   22.6613 C.3     1  UNL1        0.0206
     21 C           0.8467    0.7523   21.7149 C.3     1  UNL1        0.0061
     22 C           0.6825    1.0078   23.1838 C.3     1  UNL1        0.0223
     23 C           2.9139   -0.0766   21.6168 C.ar    1  UNL1       -0.0227
     24 C           4.3037    0.4811   21.5289 C.ar    1  UNL1       -0.0036
     25 C           5.2518   -0.0288   20.4844 C.ar    1  UNL1        0.0100
     26 C           4.8102   -1.0965   19.5278 C.ar    1  UNL1        0.0684
     27 C           3.4205   -1.6542   19.6156 C.ar    1  UNL1        0.0100
     28 C           2.4724   -1.1443   20.6602 C.ar    1  UNL1       -0.0036
     29 C           5.7583   -1.6064   18.4832 C.1     1  UNL1        0.1004
     30 N           6.7063   -2.1164   17.4386 N.1     1  UNL1       -0.1908
     31 C          -0.3189    1.1849   27.0112 C.3     1  UNL1        0.0963
     32 C           0.4226    1.8985   28.1025 C.3     1  UNL1        0.0389
     33 C           0.1287    1.5832   29.5392 C.3     1  UNL1        0.0739
     34 C           4.4184   -0.7249   33.0422 C.3     1  UNL1        0.0897
     35 N           3.3460   -0.1478   32.1665 N.3     1  UNL1       -0.2691
     36 C           2.9797   -0.8293   30.8815 C.3     1  UNL1        0.0897
     37 C           1.9072   -0.2523   30.0057 C.3     1  UNL1        0.0897
     38 N           1.2012    1.0062   30.4150 N.3     1  UNL1       -0.2703
     39 C           1.5675    1.6877   31.7000 C.3     1  UNL1        0.0897
     40 C           2.6399    1.1107   32.5757 C.3     1  UNL1        0.0897
@<TRIPOS>BOND
     1    34    35    1
     2    35    36    1
     3    36    37    1
     4    37    38    1
     5    38    33    1
     6    33    32    1
     7    32    31    1
     8    31     1    1
     9     1     2   am
    10     2     3    2
    11     2     4   am
    12     4     6    1
    13     6     7   ar
    14     7     8   ar
    15     8     9   ar
    16     9    10    1
    17     9    11   ar
    18    11    13    1
    19    13    14    1
    20    13    15    1
    21    13    16    1
    22    11    12   ar
    23     1    17    1
    24    17    18    1
    25    18    19    1
    26    19    20    1
    27    20    23    1
    28    23    24   ar
    29    24    25   ar
    30    25    26   ar
    31    26    29    1
    32    29    30    3
    33    26    27   ar
    34    27    28   ar
    35    20    21    1
    36    21    22    1
    37    38    39    1
    38    39    40    1
    39    40    35    1
    40    12     6   ar
    41    22    17    1
    42    22    20    1
    43    28    23   ar
    44     4     5    1
@<TRIPOS>MOLECULE
*****
 40 44 0 0 0
SMALL
GASTEIGER

@<TRIPOS>ATOM
      1 N           4.4082   -1.3465   26.4476 N.am    1  UNL1       -0.2655
      2 C           4.0348   -1.3519   24.9949 C.2     1  UNL1        0.3076
      3 O           3.1173   -0.2966   24.4523 O.2     1  UNL1       -0.2522
      4 N           4.5790   -2.4128   24.0846 N.am    1  UNL1       -0.2681
      5 H           5.1812   -3.1054   24.4407 H       1  UNL1        0.1564
      6 C           4.2056   -2.4182   22.6318 C.ar    1  UNL1        0.0517
      7 C           3.4934   -1.2401   22.0361 C.ar    1  UNL1        0.0170
      8 C           3.1200   -1.2455   20.5834 C.ar    1  UNL1        0.0309
      9 C           3.4587   -2.4290   19.7263 C.ar    1  UNL1        0.1441
     10 F           3.0853   -2.4344   18.2735 F       1  UNL1       -0.2042
     11 C           4.1709   -3.6071   20.3221 C.ar    1  UNL1        0.1000
     12 C           4.5443   -3.6017   21.7748 C.ar    1  UNL1        0.0208
     13 C           4.5096   -4.7906   19.4649 C.3     1  UNL1        0.4207
     14 F           4.8484   -5.9741   18.6079 F       1  UNL1       -0.1658
     15 F           5.6578   -4.0309   18.8697 F       1  UNL1       -0.1658
     16 F           3.3615   -5.5504   20.0602 F       1  UNL1       -0.1658
     17 C           3.8641   -0.2856   27.3579 C.3     1  UNL1        0.0771
     18 C           4.4474    1.0802   27.5678 C.3     1  UNL1        0.0202
     19 C           3.5849    1.8056   28.5577 C.3     1  UNL1        0.0058
     20 C           2.4684    0.8880   28.9596 C.3     1  UNL1        0.0206
     21 C           1.4895   -0.2301   29.1634 C.3     1  UNL1        0.0061
     22 C           2.6410   -0.4044   28.2181 C.3     1  UNL1        0.0223
     23 C           1.8106    1.8471   29.9068 C.ar    1  UNL1       -0.0227
     24 C           1.2476    3.1397   29.3948 C.ar    1  UNL1       -0.0036
     25 C           0.5897    4.0987   30.3420 C.ar    1  UNL1        0.0100
     26 C           0.4948    3.7652   31.8014 C.ar    1  UNL1        0.0684
     27 C           1.0578    2.4726   32.3135 C.ar    1  UNL1        0.0100
     28 C           1.7157    1.5135   31.3662 C.ar    1  UNL1       -0.0036
     29 C          -0.1631    4.7243   32.7488 C.1     1  UNL1        0.1004
     30 N          -0.8209    5.6833   33.6962 N.1     1  UNL1       -0.1908
     31 C           5.3258   -2.4018   26.9902 C.3     1  UNL1        0.0963
     32 C           6.6386   -2.0118   27.6021 C.3     1  UNL1        0.0389
     33 C           7.1131   -2.6886   28.8539 C.3     1  UNL1        0.0739
     34 C           4.3366   -1.6400   34.0684 C.3     1  UNL1        0.0897
     35 N           5.0307   -1.9021   32.7648 N.3     1  UNL1       -0.2691
     36 C           4.9284   -0.9069   31.6472 C.3     1  UNL1        0.0897
     37 C           5.6225   -1.1691   30.3435 C.3     1  UNL1        0.0897
     38 N           6.4190   -2.4264   30.1575 N.3     1  UNL1       -0.2703
     39 C           6.5213   -3.4216   31.2751 C.3     1  UNL1        0.0897
     40 C           5.8272   -3.1595   32.5787 C.3     1  UNL1        0.0897
@<TRIPOS>BOND
     1    34    35    1
     2    35    36    1
     3    36    37    1
     4    37    38    1
     5    38    33    1
     6    33    32    1
     7    32    31    1
     8    31     1    1
     9     1     2   am
    10     2     3    2
    11     2     4   am
    12     4     6    1
    13     6     7   ar
    14     7     8   ar
    15     8     9   ar
    16     9    10    1
    17     9    11   ar
    18    11    13    1
    19    13    14    1
    20    13    15    1
    21    13    16    1
    22    11    12   ar
    23     1    17    1
    24    17    18    1
    25    18    19    1
    26    19    20    1
    27    20    23    1
    28    23    24   ar
    29    24    25   ar
    30    25    26   ar
    31    26    29    1
    32    29    30    3
    33    26    27   ar
    34    27    28   ar
    35    20    21    1
    36    21    22    1
    37    38    39    1
    38    39    40    1
    39    40    35    1
    40    12     6   ar
    41    22    17    1
    42    22    20    1
    43    28    23   ar
    44     4     5    1
