@<TRIPOS>MOLECULE
*****
 17 18 0 0 0
SMALL
GASTEIGER

@<TRIPOS>ATOM
      1 C          -8.2505  -17.5433   22.9371 C.2     1  UNL1        0.0436
      2 C          -8.3330  -16.1444   23.4721 C.2     1  UNL1        0.0042
      3 C          -7.7446  -15.8182   24.8128 C.ar    1  UNL1        0.0107
      4 C          -8.6122  -15.8331   26.0363 C.ar    1  UNL1        0.0008
      5 C          -8.0238  -15.5069   27.3769 C.ar    1  UNL1        0.0001
      6 C          -6.5678  -15.1658   27.4940 C.ar    1  UNL1        0.0009
      7 C          -5.7002  -15.1509   26.2705 C.ar    1  UNL1        0.0114
      8 C          -6.2886  -15.4771   24.9299 C.ar    1  UNL1        0.0576
      9 CL         -5.4210  -15.4622   23.7063 Cl      1  UNL1       -0.0822
     10 O          -8.0067  -18.5677   20.5619 O.2     1  UNL1       -0.2850
     11 C          -8.8389  -17.8695   21.5964 C.2     1  UNL1        0.2111
     12 C         -10.2594  -17.4976   21.2902 C.ar    1  UNL1        0.0961
     13 C         -11.4840  -18.1862   21.8157 C.ar    1  UNL1        0.0218
     14 C         -12.6861  -17.4859   21.2550 C.ar    1  UNL1        0.0200
     15 C         -12.2046  -16.3645   20.3829 C.ar    1  UNL1        0.0725
     16 N         -10.7047  -16.3717   20.4046 N.ar    1  UNL1       -0.3495
     17 H         -10.1160  -15.7471   19.9224 H       1  UNL1        0.1661
@<TRIPOS>BOND
     1    10    11    2
     2    11     1    1
     3     1     2    2
     4     2     3    1
     5     3     4   ar
     6     4     5   ar
     7     5     6   ar
     8     6     7   ar
     9     7     8   ar
    10     8     9    1
    11    11    12    1
    12    12    13   ar
    13    13    14   ar
    14    14    15   ar
    15    15    16   ar
    16     8     3   ar
    17    16    12   ar
    18    16    17    1
@<TRIPOS>MOLECULE
*****
 17 18 0 0 0
SMALL
GASTEIGER

@<TRIPOS>ATOM
      1 C         -10.0222  -17.8877   24.4082 C.2     1  UNL1        0.0436
      2 C          -9.5508  -16.4638   24.4147 C.2     1  UNL1        0.0042
      3 C          -8.3489  -16.0753   25.2238 C.ar    1  UNL1        0.0107
      4 C          -8.3594  -16.2497   26.7136 C.ar    1  UNL1        0.0008
      5 C          -7.1575  -15.8612   27.5226 C.ar    1  UNL1        0.0001
      6 C          -5.9452  -15.2983   26.8418 C.ar    1  UNL1        0.0009
      7 C          -5.9347  -15.1239   25.3521 C.ar    1  UNL1        0.0114
      8 C          -7.1366  -15.5124   24.5431 C.ar    1  UNL1        0.0576
      9 CL         -7.1261  -15.3380   23.0532 Cl      1  UNL1       -0.0822
     10 O         -12.5471  -18.4854   24.2744 O.2     1  UNL1       -0.2850
     11 C         -11.2241  -18.2762   23.5991 C.2     1  UNL1        0.2111
     12 C         -11.1030  -18.4555   22.1149 C.ar    1  UNL1        0.0961
     13 C         -10.8131  -19.7436   21.4031 C.ar    1  UNL1        0.0218
     14 C         -10.7815  -19.4624   19.9301 C.ar    1  UNL1        0.0200
     15 C         -11.0519  -18.0003   19.7314 C.ar    1  UNL1        0.0725
     16 N         -11.2506  -17.3781   21.0817 N.ar    1  UNL1       -0.3495
     17 H         -11.4439  -16.4291   21.2587 H       1  UNL1        0.1661
@<TRIPOS>BOND
     1    10    11    2
     2    11     1    1
     3     1     2    2
     4     2     3    1
     5     3     4   ar
     6     4     5   ar
     7     5     6   ar
     8     6     7   ar
     9     7     8   ar
    10     8     9    1
    11    11    12    1
    12    12    13   ar
    13    13    14   ar
    14    14    15   ar
    15    15    16   ar
    16     8     3   ar
    17    16    12   ar
    18    16    17    1
@<TRIPOS>MOLECULE
*****
 17 18 0 0 0
SMALL
GASTEIGER

@<TRIPOS>ATOM
      1 C          -9.5709  -17.6259   24.2932 C.2     1  UNL1        0.0436
      2 C          -9.1176  -16.1981   24.3679 C.2     1  UNL1        0.0042
      3 C          -7.7422  -15.8731   24.8707 C.ar    1  UNL1        0.0107
      4 C          -6.5990  -15.7575   23.9065 C.ar    1  UNL1        0.0008
      5 C          -5.2237  -15.4326   24.4093 C.ar    1  UNL1        0.0001
      6 C          -4.9916  -15.2233   25.8764 C.ar    1  UNL1        0.0009
      7 C          -6.1347  -15.3389   26.8406 C.ar    1  UNL1        0.0114
      8 C          -7.5100  -15.6638   26.3378 C.ar    1  UNL1        0.0576
      9 CL         -8.6533  -15.7795   27.3020 Cl      1  UNL1       -0.0822
     10 O         -11.9060  -18.7030   24.6640 O.2     1  UNL1       -0.2850
     11 C         -10.9463  -17.9509   23.7904 C.2     1  UNL1        0.2111
     12 C         -11.3620  -17.5236   22.4139 C.ar    1  UNL1        0.0961
     13 C         -12.3402  -16.4347   22.0866 C.ar    1  UNL1        0.0218
     14 C         -12.4553  -16.3484   20.5935 C.ar    1  UNL1        0.0200
     15 C         -11.5481  -17.3841   19.9980 C.ar    1  UNL1        0.0725
     16 N         -10.8724  -18.1104   21.1231 N.ar    1  UNL1       -0.3495
     17 H         -10.2219  -18.8435   21.0306 H       1  UNL1        0.1661
@<TRIPOS>BOND
     1    10    11    2
     2    11     1    1
     3     1     2    2
     4     2     3    1
     5     3     4   ar
     6     4     5   ar
     7     5     6   ar
     8     6     7   ar
     9     7     8   ar
    10     8     9    1
    11    11    12    1
    12    12    13   ar
    13    13    14   ar
    14    14    15   ar
    15    15    16   ar
    16     8     3   ar
    17    16    12   ar
    18    16    17    1
@<TRIPOS>MOLECULE
*****
 17 18 0 0 0
SMALL
GASTEIGER

@<TRIPOS>ATOM
      1 C          -7.2111  -18.4531   21.2177 C.2     1  UNL1        0.0436
      2 C          -6.3036  -19.1976   22.1515 C.2     1  UNL1        0.0042
      3 C          -4.8170  -19.0258   22.0486 C.ar    1  UNL1        0.0107
      4 C          -4.1074  -18.0706   22.9618 C.ar    1  UNL1        0.0008
      5 C          -2.6209  -17.8988   22.8588 C.ar    1  UNL1        0.0001
      6 C          -1.8439  -18.6822   21.8426 C.ar    1  UNL1        0.0009
      7 C          -2.5535  -19.6374   20.9294 C.ar    1  UNL1        0.0114
      8 C          -4.0400  -19.8092   21.0324 C.ar    1  UNL1        0.0576
      9 CL         -4.7497  -20.7644   20.1191 Cl      1  UNL1       -0.0822
     10 O          -9.5481  -18.5541   20.0870 O.2     1  UNL1       -0.2850
     11 C          -8.6977  -18.6249   21.3206 C.2     1  UNL1        0.2111
     12 C          -9.3339  -18.8676   22.6571 C.ar    1  UNL1        0.0961
     13 C         -10.1346  -20.0748   23.0463 C.ar    1  UNL1        0.0218
     14 C         -10.5767  -19.8989   24.4688 C.ar    1  UNL1        0.0200
     15 C         -10.0491  -18.5830   24.9589 C.ar    1  UNL1        0.0725
     16 N          -9.2811  -17.9456   23.8392 N.ar    1  UNL1       -0.3495
     17 H          -8.8228  -17.0750   23.8740 H       1  UNL1        0.1661
@<TRIPOS>BOND
     1    10    11    2
     2    11     1    1
     3     1     2    2
     4     2     3    1
     5     3     4   ar
     6     4     5   ar
     7     5     6   ar
     8     6     7   ar
     9     7     8   ar
    10     8     9    1
    11    11    12    1
    12    12    13   ar
    13    13    14   ar
    14    14    15   ar
    15    15    16   ar
    16     8     3   ar
    17    16    12   ar
    18    16    17    1
@<TRIPOS>MOLECULE
*****
 17 18 0 0 0
SMALL
GASTEIGER

@<TRIPOS>ATOM
      1 C          -7.4078  -17.5536   22.5581 C.2     1  UNL1        0.0436
      2 C          -6.9242  -18.9324   22.2189 C.2     1  UNL1        0.0042
      3 C          -5.4801  -19.1590   21.8824 C.ar    1  UNL1        0.0107
      4 C          -4.4108  -18.4181   22.6290 C.ar    1  UNL1        0.0008
      5 C          -2.9667  -18.6447   22.2924 C.ar    1  UNL1        0.0001
      6 C          -2.5920  -19.6123   21.2092 C.ar    1  UNL1        0.0009
      7 C          -3.6613  -20.3533   20.4626 C.ar    1  UNL1        0.0114
      8 C          -5.1054  -20.1266   20.7992 C.ar    1  UNL1        0.0576
      9 CL         -6.1748  -20.8676   20.0525 Cl      1  UNL1       -0.0822
     10 O          -9.2963  -17.3217   24.3273 O.2     1  UNL1       -0.2850
     11 C          -8.8520  -17.3270   22.8946 C.2     1  UNL1        0.2111
     12 C          -9.8517  -17.1056   21.7985 C.ar    1  UNL1        0.0961
     13 C         -10.3214  -18.1339   20.8127 C.ar    1  UNL1        0.0218
     14 C         -11.3172  -17.4809   19.9007 C.ar    1  UNL1        0.0200
     15 C         -11.4631  -16.0489   20.3229 C.ar    1  UNL1        0.0725
     16 N         -10.5573  -15.8170   21.4958 N.ar    1  UNL1       -0.3495
     17 H         -10.4456  -14.9680   21.9817 H       1  UNL1        0.1661
@<TRIPOS>BOND
     1    10    11    2
     2    11     1    1
     3     1     2    2
     4     2     3    1
     5     3     4   ar
     6     4     5   ar
     7     5     6   ar
     8     6     7   ar
     9     7     8   ar
    10     8     9    1
    11    11    12    1
    12    12    13   ar
    13    13    14   ar
    14    14    15   ar
    15    15    16   ar
    16     8     3   ar
    17    16    12   ar
    18    16    17    1
@<TRIPOS>MOLECULE
*****
 17 18 0 0 0
SMALL
GASTEIGER

@<TRIPOS>ATOM
      1 C          -7.5959  -16.1190   22.7730 C.2     1  UNL1        0.0436
      2 C          -7.7198  -17.6135   22.7421 C.2     1  UNL1        0.0042
      3 C          -8.6565  -18.2685   21.7707 C.ar    1  UNL1        0.0107
      4 C          -8.1188  -18.9059   20.5239 C.ar    1  UNL1        0.0008
      5 C          -9.0555  -19.5609   19.5525 C.ar    1  UNL1        0.0001
      6 C         -10.5299  -19.5785   19.8280 C.ar    1  UNL1        0.0009
      7 C         -11.0676  -18.9410   21.0748 C.ar    1  UNL1        0.0114
      8 C         -10.1309  -18.2861   22.0461 C.ar    1  UNL1        0.0576
      9 CL        -10.6686  -17.6486   23.2930 Cl      1  UNL1       -0.0822
     10 O          -5.3496  -14.9104   23.2664 O.2     1  UNL1       -0.2850
     11 C          -6.6592  -15.4639   23.7444 C.2     1  UNL1        0.2111
     12 C          -7.0321  -15.3625   25.1938 C.ar    1  UNL1        0.0961
     13 C          -8.4037  -15.5618   25.7672 C.ar    1  UNL1        0.0218
     14 C          -8.3183  -15.3664   27.2520 C.ar    1  UNL1        0.0200
     15 C          -6.8938  -15.0463   27.5962 C.ar    1  UNL1        0.0725
     16 N          -6.0989  -15.0438   26.3241 N.ar    1  UNL1       -0.3495
     17 H          -5.1341  -14.8646   26.2449 H       1  UNL1        0.1661
@<TRIPOS>BOND
     1    10    11    2
     2    11     1    1
     3     1     2    2
     4     2     3    1
     5     3     4   ar
     6     4     5   ar
     7     5     6   ar
     8     6     7   ar
     9     7     8   ar
    10     8     9    1
    11    11    12    1
    12    12    13   ar
    13    13    14   ar
    14    14    15   ar
    15    15    16   ar
    16     8     3   ar
    17    16    12   ar
    18    16    17    1
@<TRIPOS>MOLECULE
*****
 17 18 0 0 0
SMALL
GASTEIGER

@<TRIPOS>ATOM
      1 C          -8.7219  -18.7255   21.0266 C.2     1  UNL1        0.0436
      2 C         -10.0838  -19.3534   21.0580 C.2     1  UNL1        0.0042
      3 C         -11.0708  -18.9516   22.1136 C.ar    1  UNL1        0.0107
      4 C         -12.2337  -18.0734   21.7578 C.ar    1  UNL1        0.0008
      5 C         -13.2206  -17.6716   22.8134 C.ar    1  UNL1        0.0001
      6 C         -13.0448  -18.1480   24.2248 C.ar    1  UNL1        0.0009
      7 C         -11.8820  -19.0261   24.5807 C.ar    1  UNL1        0.0114
      8 C         -10.8950  -19.4279   23.5251 C.ar    1  UNL1        0.0576
      9 CL         -9.7321  -20.3061   23.8809 Cl      1  UNL1       -0.0822
     10 O          -8.2082  -19.4449   18.5835 O.2     1  UNL1       -0.2850
     11 C          -7.7348  -19.1273   19.9710 C.2     1  UNL1        0.2111
     12 C          -6.2745  -19.2116   20.3028 C.ar    1  UNL1        0.0961
     13 C          -5.6709  -19.9891   21.4347 C.ar    1  UNL1        0.0218
     14 C          -4.1847  -19.7911   21.3925 C.ar    1  UNL1        0.0200
     15 C          -3.8696  -18.8912   20.2345 C.ar    1  UNL1        0.0725
     16 N          -5.1612  -18.5330   19.5610 N.ar    1  UNL1       -0.3495
     17 H          -5.2607  -17.9542   18.7709 H       1  UNL1        0.1661
@<TRIPOS>BOND
     1    10    11    2
     2    11     1    1
     3     1     2    2
     4     2     3    1
     5     3     4   ar
     6     4     5   ar
     7     5     6   ar
     8     6     7   ar
     9     7     8   ar
    10     8     9    1
    11    11    12    1
    12    12    13   ar
    13    13    14   ar
    14    14    15   ar
    15    15    16   ar
    16     8     3   ar
    17    16    12   ar
    18    16    17    1
@<TRIPOS>MOLECULE
*****
 17 18 0 0 0
SMALL
GASTEIGER

@<TRIPOS>ATOM
      1 C          -7.5238  -19.4654   22.0921 C.2     1  UNL1        0.0436
      2 C          -8.7830  -19.2645   21.3022 C.2     1  UNL1        0.0042
      3 C         -10.0557  -18.8896   22.0021 C.ar    1  UNL1        0.0107
      4 C         -10.1954  -19.1184   23.4779 C.ar    1  UNL1        0.0008
      5 C         -11.4681  -18.7435   24.1777 C.ar    1  UNL1        0.0001
      6 C         -12.6009  -18.1398   23.4017 C.ar    1  UNL1        0.0009
      7 C         -12.4611  -17.9110   21.9259 C.ar    1  UNL1        0.0114
      8 C         -11.1885  -18.2859   21.2261 C.ar    1  UNL1        0.0576
      9 CL        -11.0487  -18.0570   19.7502 Cl      1  UNL1       -0.0822
     10 O          -6.2738  -20.8530   20.2858 O.2     1  UNL1       -0.2850
     11 C          -6.2511  -19.8403   21.3922 C.2     1  UNL1        0.2111
     12 C          -4.9557  -19.2025   21.7986 C.ar    1  UNL1        0.0961
     13 C          -3.5837  -19.6691   21.4116 C.ar    1  UNL1        0.0218
     14 C          -2.5849  -18.7412   22.0372 C.ar    1  UNL1        0.0200
     15 C          -3.3397  -17.7010   22.8109 C.ar    1  UNL1        0.0725
     16 N          -4.8049  -17.9862   22.6634 N.ar    1  UNL1       -0.3495
     17 H          -5.5388  -17.4663   23.0639 H       1  UNL1        0.1661
@<TRIPOS>BOND
     1    10    11    2
     2    11     1    1
     3     1     2    2
     4     2     3    1
     5     3     4   ar
     6     4     5   ar
     7     5     6   ar
     8     6     7   ar
     9     7     8   ar
    10     8     9    1
    11    11    12    1
    12    12    13   ar
    13    13    14   ar
    14    14    15   ar
    15    15    16   ar
    16     8     3   ar
    17    16    12   ar
    18    16    17    1
@<TRIPOS>MOLECULE
*****
 17 18 0 0 0
SMALL
GASTEIGER

@<TRIPOS>ATOM
      1 C          -7.5478  -15.8848   22.6981 C.2     1  UNL1        0.0436
      2 C          -8.0280  -17.3031   22.7852 C.2     1  UNL1        0.0042
      3 C          -8.9750  -17.8391   21.7527 C.ar    1  UNL1        0.0107
      4 C         -10.3511  -17.2565   21.6228 C.ar    1  UNL1        0.0008
      5 C         -11.2980  -17.7924   20.5904 C.ar    1  UNL1        0.0001
      6 C         -10.8689  -18.9111   19.6879 C.ar    1  UNL1        0.0009
      7 C          -9.4929  -19.4937   19.8178 C.ar    1  UNL1        0.0114
      8 C          -8.5459  -18.9578   20.8502 C.ar    1  UNL1        0.0576
      9 CL         -7.1698  -19.5404   20.9802 Cl      1  UNL1       -0.0822
     10 O          -5.2670  -14.8037   23.3138 O.2     1  UNL1       -0.2850
     11 C          -6.6008  -15.3488   23.7306 C.2     1  UNL1        0.2111
     12 C          -6.9876  -15.3579   25.1798 C.ar    1  UNL1        0.0961
     13 C          -6.0522  -15.5214   26.3410 C.ar    1  UNL1        0.0218
     14 C          -6.8642  -15.4697   27.6011 C.ar    1  UNL1        0.0200
     15 C          -8.3015  -15.2743   27.2188 C.ar    1  UNL1        0.0725
     16 N          -8.3777  -15.2052   25.7223 N.ar    1  UNL1       -0.3495
     17 H          -9.1964  -15.0814   25.1897 H       1  UNL1        0.1661
@<TRIPOS>BOND
     1    10    11    2
     2    11     1    1
     3     1     2    2
     4     2     3    1
     5     3     4   ar
     6     4     5   ar
     7     5     6   ar
     8     6     7   ar
     9     7     8   ar
    10     8     9    1
    11    11    12    1
    12    12    13   ar
    13    13    14   ar
    14    14    15   ar
    15    15    16   ar
    16     8     3   ar
    17    16    12   ar
    18    16    17    1
