@<TRIPOS>MOLECULE
*****
 36 41 0 0 0
SMALL
GASTEIGER

@<TRIPOS>ATOM
      1 C           8.6326   -8.2259   26.4241 C.ar    1  UNL1       -0.0065
      2 C           9.5357   -8.4164   25.2416 C.ar    1  UNL1       -0.0029
      3 C           9.4588   -7.4714   24.0793 C.ar    1  UNL1        0.0010
      4 C           8.4789   -6.3359   24.0995 C.ar    1  UNL1        0.0167
      5 C           7.5759   -6.1454   25.2819 C.ar    1  UNL1       -0.0206
      6 C           7.6527   -7.0904   26.4442 C.ar    1  UNL1       -0.0071
      7 C           6.5960   -5.0099   25.3020 C.3     1  UNL1        0.0312
      8 C           6.5191   -4.0648   24.1398 C.3     1  UNL1        0.0360
      9 C           7.4222   -4.2553   22.9572 C.ar    1  UNL1        0.0392
     10 C           8.4021   -5.3908   22.9371 C.ar    1  UNL1        0.1187
     11 N           9.1586   -5.3274   21.6434 N.ar    1  UNL1       -0.0772
     12 O           8.6462   -4.1527   20.8640 O.2     1  UNL1       -0.3505
     13 C           7.5731   -3.4901   21.6760 C.ar    1  UNL1        0.2097
     14 C           6.7886   -2.2755   21.2768 C.ar    1  UNL1        0.2173
     15 O           7.2687   -0.8558   21.3396 O.2     1  UNL1       -0.3502
     16 N           6.1630    0.0297   20.8464 N.ar    1  UNL1       -0.0769
     17 C           4.9995   -0.8428   20.4787 C.ar    1  UNL1        0.1270
     18 C           5.3861   -2.2675   20.7447 C.ar    1  UNL1        0.1323
     19 C           3.6809   -0.3729   19.9397 C.ar    1  UNL1        0.0209
     20 C           3.6400    0.5598   18.7657 C.ar    1  UNL1        0.0016
     21 C           2.3214    1.0296   18.2267 C.ar    1  UNL1        0.0000
     22 C           1.0437    0.5667   18.8616 C.ar    1  UNL1        0.0000
     23 C           1.0846   -0.3660   20.0356 C.ar    1  UNL1        0.0000
     24 C           2.4032   -0.8358   20.5747 C.ar    1  UNL1        0.0016
     25 C           4.5220   -3.4724   20.5184 C.3     1  UNL1        0.4231
     26 F           3.6579   -4.6774   20.2920 F       1  UNL1       -0.1657
     27 F           4.9423   -3.5034   19.0788 F       1  UNL1       -0.1657
     28 F           4.1017   -3.4415   21.9580 F       1  UNL1       -0.1657
     29 C           8.7094   -9.1710   27.5864 C.3     1  UNL1        0.0992
     30 C           6.2562  -11.8114   27.9385 C.3     1  UNL1        0.0684
     31 C           7.7351  -11.7007   28.1636 C.3     1  UNL1        0.0793
     32 N           7.6933  -10.2647   27.7323 N.3     1  UNL1       -0.2682
     33 C           6.2144  -10.3753   27.5072 C.3     1  UNL1        0.0793
     34 O           4.4224  -13.0069   29.3378 O.co2   1  UNL1       -0.5491
     35 C           5.2400  -12.9050   28.0844 C.2     1  UNL1        0.0527
     36 O           5.0414  -13.8968   26.9767 O.co2   1  UNL1       -0.5491
@<TRIPOS>UNITY_ATOM_ATTR
34 1
charge -1
@<TRIPOS>BOND
     1    34    35   ar
     2    35    36   ar
     3    35    30    1
     4    30    31    1
     5    31    32    1
     6    32    29    1
     7    29     1    1
     8     1     2   ar
     9     2     3   ar
    10     3     4   ar
    11     4     5   ar
    12     5     6   ar
    13     5     7    1
    14     7     8    1
    15     8     9    1
    16     9    10   ar
    17    10    11   ar
    18    11    12   ar
    19    12    13   ar
    20    13    14    1
    21    14    15   ar
    22    15    16   ar
    23    16    17   ar
    24    17    19    1
    25    19    20   ar
    26    20    21   ar
    27    21    22   ar
    28    22    23   ar
    29    23    24   ar
    30    17    18   ar
    31    18    25    1
    32    25    26    1
    33    25    27    1
    34    25    28    1
    35    32    33    1
    36    33    30    1
    37     6     1   ar
    38    13     9   ar
    39    18    14   ar
    40    10     4    1
    41    24    19   ar
@<TRIPOS>MOLECULE
*****
 36 41 0 0 0
SMALL
GASTEIGER

@<TRIPOS>ATOM
      1 C           4.5643   -1.1890   18.3264 C.ar    1  UNL1       -0.0065
      2 C           4.6919    0.1620   17.6874 C.ar    1  UNL1       -0.0029
      3 C           3.6631    1.2196   17.9577 C.ar    1  UNL1        0.0010
      4 C           2.5067    0.9261   18.8669 C.ar    1  UNL1        0.0167
      5 C           2.3791   -0.4249   19.5059 C.ar    1  UNL1       -0.0206
      6 C           3.4079   -1.4825   19.2357 C.ar    1  UNL1       -0.0071
      7 C           1.2228   -0.7183   20.4152 C.3     1  UNL1        0.0312
      8 C           0.1940    0.3392   20.6854 C.3     1  UNL1        0.0360
      9 C           0.3216    1.6904   20.0464 C.ar    1  UNL1        0.0392
     10 C           1.4779    1.9838   19.1372 C.ar    1  UNL1        0.1187
     11 N           1.3404    3.3971   18.6538 N.ar    1  UNL1       -0.0772
     12 O           0.0991    3.9771   19.2642 O.2     1  UNL1       -0.3505
     13 C          -0.5306    2.9223   20.1249 C.ar    1  UNL1        0.2097
     14 C          -1.7911    3.0730   20.9239 C.ar    1  UNL1        0.2173
     15 O          -3.1791    2.7610   20.4482 O.2     1  UNL1       -0.3502
     16 N          -4.1308    3.0572   21.5692 N.ar    1  UNL1       -0.0769
     17 C          -3.3310    3.5523   22.7376 C.ar    1  UNL1        0.1270
     18 C          -1.8850    3.5620   22.3388 C.ar    1  UNL1        0.1323
     19 C          -3.8807    3.9652   24.0708 C.ar    1  UNL1        0.0209
     20 C          -3.1671    3.5726   25.3304 C.ar    1  UNL1        0.0016
     21 C          -3.7168    3.9855   26.6636 C.ar    1  UNL1        0.0000
     22 C          -4.9801    4.7909   26.7371 C.ar    1  UNL1        0.0000
     23 C          -5.6937    5.1834   25.4775 C.ar    1  UNL1        0.0000
     24 C          -5.1440    4.7705   24.1443 C.ar    1  UNL1        0.0016
     25 C          -0.7349    3.9863   23.2032 C.3     1  UNL1        0.4231
     26 F           0.4152    4.4105   24.0676 F       1  UNL1       -0.1657
     27 F          -0.4231    2.5482   23.4942 F       1  UNL1       -0.1657
     28 F          -1.0467    5.4244   22.9122 F       1  UNL1       -0.1657
     29 C           5.5931   -2.2467   18.0562 C.3     1  UNL1        0.0992
     30 C           7.3180   -3.8411   20.8123 C.3     1  UNL1        0.0684
     31 C           7.6737   -2.7876   19.8055 C.3     1  UNL1        0.0793
     32 N           6.3075   -2.9071   19.1978 N.3     1  UNL1       -0.2682
     33 C           5.9518   -3.9606   20.2046 C.3     1  UNL1        0.0793
     34 O           8.4309   -5.9443   21.8555 O.co2   1  UNL1       -0.5491
     35 C           8.0325   -4.5016   21.9540 C.2     1  UNL1        0.0527
     36 O           8.3485   -3.7192   23.1942 O.co2   1  UNL1       -0.5491
@<TRIPOS>UNITY_ATOM_ATTR
34 1
charge -1
@<TRIPOS>BOND
     1    34    35   ar
     2    35    36   ar
     3    35    30    1
     4    30    31    1
     5    31    32    1
     6    32    29    1
     7    29     1    1
     8     1     2   ar
     9     2     3   ar
    10     3     4   ar
    11     4     5   ar
    12     5     6   ar
    13     5     7    1
    14     7     8    1
    15     8     9    1
    16     9    10   ar
    17    10    11   ar
    18    11    12   ar
    19    12    13   ar
    20    13    14    1
    21    14    15   ar
    22    15    16   ar
    23    16    17   ar
    24    17    19    1
    25    19    20   ar
    26    20    21   ar
    27    21    22   ar
    28    22    23   ar
    29    23    24   ar
    30    17    18   ar
    31    18    25    1
    32    25    26    1
    33    25    27    1
    34    25    28    1
    35    32    33    1
    36    33    30    1
    37     6     1   ar
    38    13     9   ar
    39    18    14   ar
    40    10     4    1
    41    24    19   ar
@<TRIPOS>MOLECULE
*****
 36 41 0 0 0
SMALL
GASTEIGER

@<TRIPOS>ATOM
      1 C           4.7282   -0.8447   18.2558 C.ar    1  UNL1       -0.0065
      2 C           6.1359   -1.0902   17.7996 C.ar    1  UNL1       -0.0029
      3 C           7.0458   -1.9637   18.6113 C.ar    1  UNL1        0.0010
      4 C           6.5480   -2.5918   19.8793 C.ar    1  UNL1        0.0167
      5 C           5.1403   -2.3464   20.3355 C.ar    1  UNL1       -0.0206
      6 C           4.2304   -1.4728   19.5237 C.ar    1  UNL1       -0.0071
      7 C           4.6425   -2.9745   21.6034 C.3     1  UNL1        0.0312
      8 C           5.5524   -3.8480   22.4152 C.3     1  UNL1        0.0360
      9 C           6.9601   -4.0935   21.9590 C.ar    1  UNL1        0.0392
     10 C           7.4579   -3.4654   20.6911 C.ar    1  UNL1        0.1187
     11 N           8.8844   -3.8858   20.4945 N.ar    1  UNL1       -0.0772
     12 O           9.2681   -4.7736   21.6409 O.2     1  UNL1       -0.3505
     13 C           8.0789   -4.9020   22.5460 C.ar    1  UNL1        0.2097
     14 C           8.0190   -5.6990   23.8154 C.ar    1  UNL1        0.2173
     15 O           7.9685   -7.1948   23.9157 O.2     1  UNL1       -0.3502
     16 N           7.9173   -7.5604   25.3696 N.ar    1  UNL1       -0.0769
     17 C           7.9361   -6.2905   26.1678 C.ar    1  UNL1        0.1270
     18 C           7.9989   -5.1401   25.2072 C.ar    1  UNL1        0.1323
     19 C           7.8987   -6.1889   27.6639 C.ar    1  UNL1        0.0209
     20 C           9.0249   -6.7476   28.4819 C.ar    1  UNL1        0.0016
     21 C           8.9875   -6.6460   29.9780 C.ar    1  UNL1        0.0000
     22 C           7.8238   -5.9856   30.6560 C.ar    1  UNL1        0.0000
     23 C           6.6975   -5.4269   29.8380 C.ar    1  UNL1        0.0000
     24 C           6.7349   -5.5285   28.3419 C.ar    1  UNL1        0.0016
     25 C           8.0354   -3.6862   25.5741 C.3     1  UNL1        0.4231
     26 F           8.0717   -2.2322   25.9410 F       1  UNL1       -0.1657
     27 F           6.5358   -3.6525   25.5896 F       1  UNL1       -0.1657
     28 F           9.5349   -3.7198   25.5587 F       1  UNL1       -0.1657
     29 C           3.8182    0.0289   17.4440 C.3     1  UNL1        0.0992
     30 C           1.1092    1.8125   19.0544 C.3     1  UNL1        0.0684
     31 C           2.5552    2.1024   18.7808 C.3     1  UNL1        0.0793
     32 N           2.6961    0.7677   18.1111 N.3     1  UNL1       -0.2682
     33 C           1.2500    0.4778   18.3846 C.3     1  UNL1        0.0793
     34 O          -0.4057    3.9154   19.2366 O.co2   1  UNL1       -0.5491
     35 C          -0.0131    2.5513   19.7215 C.2     1  UNL1        0.0527
     36 O          -0.7425    1.9260   20.8733 O.co2   1  UNL1       -0.5491
@<TRIPOS>UNITY_ATOM_ATTR
34 1
charge -1
@<TRIPOS>BOND
     1    34    35   ar
     2    35    36   ar
     3    35    30    1
     4    30    31    1
     5    31    32    1
     6    32    29    1
     7    29     1    1
     8     1     2   ar
     9     2     3   ar
    10     3     4   ar
    11     4     5   ar
    12     5     6   ar
    13     5     7    1
    14     7     8    1
    15     8     9    1
    16     9    10   ar
    17    10    11   ar
    18    11    12   ar
    19    12    13   ar
    20    13    14    1
    21    14    15   ar
    22    15    16   ar
    23    16    17   ar
    24    17    19    1
    25    19    20   ar
    26    20    21   ar
    27    21    22   ar
    28    22    23   ar
    29    23    24   ar
    30    17    18   ar
    31    18    25    1
    32    25    26    1
    33    25    27    1
    34    25    28    1
    35    32    33    1
    36    33    30    1
    37     6     1   ar
    38    13     9   ar
    39    18    14   ar
    40    10     4    1
    41    24    19   ar
@<TRIPOS>MOLECULE
*****
 36 41 0 0 0
SMALL
GASTEIGER

@<TRIPOS>ATOM
      1 C           2.5768    0.0875   18.6438 C.ar    1  UNL1       -0.0065
      2 C           3.8807    0.4075   17.9749 C.ar    1  UNL1       -0.0029
      3 C           5.1172   -0.3610   18.3359 C.ar    1  UNL1        0.0010
      4 C           5.0499   -1.4494   19.3658 C.ar    1  UNL1        0.0167
      5 C           3.7460   -1.7694   20.0348 C.ar    1  UNL1       -0.0206
      6 C           2.5095   -1.0009   19.6737 C.ar    1  UNL1       -0.0071
      7 C           3.6786   -2.8578   21.0647 C.3     1  UNL1        0.0312
      8 C           4.9152   -3.6263   21.4257 C.3     1  UNL1        0.0360
      9 C           6.2191   -3.3064   20.7568 C.ar    1  UNL1        0.0392
     10 C           6.2865   -2.2179   19.7269 C.ar    1  UNL1        0.1187
     11 N           7.7023   -2.1279   19.2395 N.ar    1  UNL1       -0.0772
     12 O           8.5098   -3.1606   19.9683 O.2     1  UNL1       -0.3505
     13 C           7.5933   -3.8890   20.9060 C.ar    1  UNL1        0.2097
     14 C           7.9825   -5.0042   21.8306 C.ar    1  UNL1        0.2173
     15 O           8.4446   -6.3704   21.4186 O.2     1  UNL1       -0.3502
     16 N           8.7256   -7.1596   22.6630 N.ar    1  UNL1       -0.0769
     17 C           8.4371   -6.2809   23.8440 C.ar    1  UNL1        0.1270
     18 C           7.9778   -4.9488   23.3296 C.ar    1  UNL1        0.1323
     19 C           8.5824   -6.6667   25.2862 C.ar    1  UNL1        0.0209
     20 C           7.9214   -7.9114   25.7999 C.ar    1  UNL1        0.0016
     21 C           8.0667   -8.2972   27.2421 C.ar    1  UNL1        0.0000
     22 C           8.8730   -7.4383   28.1707 C.ar    1  UNL1        0.0000
     23 C           9.5340   -6.1937   27.6570 C.ar    1  UNL1        0.0000
     24 C           9.3887   -5.8079   26.2148 C.ar    1  UNL1        0.0016
     25 C           7.5833   -3.7687   24.1671 C.3     1  UNL1        0.4231
     26 F           7.1887   -2.5885   25.0046 F       1  UNL1       -0.1657
     27 F           8.9104   -3.1273   23.8886 F       1  UNL1       -0.1657
     28 F           6.2562   -4.4100   24.4456 F       1  UNL1       -0.1657
     29 C           1.3402    0.8560   18.2828 C.3     1  UNL1        0.0992
     30 C          -0.5543    2.5529   20.8607 C.3     1  UNL1        0.0684
     31 C           0.1891    1.2530   20.7726 C.3     1  UNL1        0.0793
     32 N           0.5555    1.5589   19.3506 N.3     1  UNL1       -0.2682
     33 C          -0.1879    2.8588   19.4386 C.3     1  UNL1        0.0793
     34 O          -2.8381    3.2606   21.8772 O.co2   1  UNL1       -0.5491
     35 C          -1.3390    3.2558   21.9285 C.2     1  UNL1        0.0527
     36 O          -0.6246    3.9539   23.0475 O.co2   1  UNL1       -0.5491
@<TRIPOS>UNITY_ATOM_ATTR
34 1
charge -1
@<TRIPOS>BOND
     1    34    35   ar
     2    35    36   ar
     3    35    30    1
     4    30    31    1
     5    31    32    1
     6    32    29    1
     7    29     1    1
     8     1     2   ar
     9     2     3   ar
    10     3     4   ar
    11     4     5   ar
    12     5     6   ar
    13     5     7    1
    14     7     8    1
    15     8     9    1
    16     9    10   ar
    17    10    11   ar
    18    11    12   ar
    19    12    13   ar
    20    13    14    1
    21    14    15   ar
    22    15    16   ar
    23    16    17   ar
    24    17    19    1
    25    19    20   ar
    26    20    21   ar
    27    21    22   ar
    28    22    23   ar
    29    23    24   ar
    30    17    18   ar
    31    18    25    1
    32    25    26    1
    33    25    27    1
    34    25    28    1
    35    32    33    1
    36    33    30    1
    37     6     1   ar
    38    13     9   ar
    39    18    14   ar
    40    10     4    1
    41    24    19   ar
@<TRIPOS>MOLECULE
*****
 36 41 0 0 0
SMALL
GASTEIGER

@<TRIPOS>ATOM
      1 C           7.5369   -5.7939   29.0095 C.ar    1  UNL1       -0.0065
      2 C           7.9536   -7.0387   28.2837 C.ar    1  UNL1       -0.0029
      3 C           8.0744   -7.0302   26.7886 C.ar    1  UNL1        0.0010
      4 C           7.7785   -5.7769   26.0193 C.ar    1  UNL1        0.0167
      5 C           7.3619   -4.5321   26.7451 C.ar    1  UNL1       -0.0206
      6 C           7.2410   -4.5406   28.2402 C.ar    1  UNL1       -0.0071
      7 C           7.0660   -3.2789   25.9758 C.3     1  UNL1        0.0312
      8 C           7.1868   -3.2704   24.4807 C.3     1  UNL1        0.0360
      9 C           7.6035   -4.5152   23.7549 C.ar    1  UNL1        0.0392
     10 C           7.8994   -5.7685   24.5242 C.ar    1  UNL1        0.1187
     11 N           8.2860   -6.8347   23.5424 N.ar    1  UNL1       -0.0772
     12 O           8.2290   -6.2403   22.1664 O.2     1  UNL1       -0.3505
     13 C           7.8073   -4.8069   22.2977 C.ar    1  UNL1        0.2097
     14 C           7.6218   -3.8355   21.1698 C.ar    1  UNL1        0.2173
     15 O           8.6535   -3.4664   20.1455 O.2     1  UNL1       -0.3502
     16 N           8.0414   -2.4654   19.2108 N.ar    1  UNL1       -0.0769
     17 C           6.6313   -2.2160   19.6576 C.ar    1  UNL1        0.1270
     18 C           6.3720   -3.0628   20.8683 C.ar    1  UNL1        0.1323
     19 C           5.6525   -1.2835   19.0078 C.ar    1  UNL1        0.0209
     20 C           5.5077    0.1219   19.5114 C.ar    1  UNL1        0.0016
     21 C           4.5289    1.0544   18.8615 C.ar    1  UNL1        0.0000
     22 C           3.6948    0.5814   17.7080 C.ar    1  UNL1        0.0000
     23 C           3.8395   -0.8241   17.2044 C.ar    1  UNL1        0.0000
     24 C           4.8183   -1.7566   17.8543 C.ar    1  UNL1        0.0016
     25 C           5.0883   -3.1257   21.6417 C.3     1  UNL1        0.4231
     26 F           3.8046   -3.1885   22.4151 F       1  UNL1       -0.1657
     27 F           5.4274   -1.8263   22.3101 F       1  UNL1       -0.1657
     28 F           4.7493   -4.4250   20.9733 F       1  UNL1       -0.1657
     29 C           7.4160   -5.8023   30.5046 C.3     1  UNL1        0.0992
     30 C           7.9216   -2.7455   32.3793 C.3     1  UNL1        0.0684
     31 C           8.8013   -3.6501   31.5682 C.3     1  UNL1        0.0793
     32 N           7.6254   -4.5362   31.2811 N.3     1  UNL1       -0.2682
     33 C           6.7458   -3.6316   32.0922 C.3     1  UNL1        0.0793
     34 O           7.2194   -0.3078   32.9402 O.co2   1  UNL1       -0.5491
     35 C           8.1310   -1.4793   33.1559 C.2     1  UNL1        0.0527
     36 O           9.2520   -1.3847   34.1480 O.co2   1  UNL1       -0.5491
@<TRIPOS>UNITY_ATOM_ATTR
34 1
charge -1
@<TRIPOS>BOND
     1    34    35   ar
     2    35    36   ar
     3    35    30    1
     4    30    31    1
     5    31    32    1
     6    32    29    1
     7    29     1    1
     8     1     2   ar
     9     2     3   ar
    10     3     4   ar
    11     4     5   ar
    12     5     6   ar
    13     5     7    1
    14     7     8    1
    15     8     9    1
    16     9    10   ar
    17    10    11   ar
    18    11    12   ar
    19    12    13   ar
    20    13    14    1
    21    14    15   ar
    22    15    16   ar
    23    16    17   ar
    24    17    19    1
    25    19    20   ar
    26    20    21   ar
    27    21    22   ar
    28    22    23   ar
    29    23    24   ar
    30    17    18   ar
    31    18    25    1
    32    25    26    1
    33    25    27    1
    34    25    28    1
    35    32    33    1
    36    33    30    1
    37     6     1   ar
    38    13     9   ar
    39    18    14   ar
    40    10     4    1
    41    24    19   ar
@<TRIPOS>MOLECULE
*****
 36 41 0 0 0
SMALL
GASTEIGER

@<TRIPOS>ATOM
      1 C           6.8844   -4.2971   30.3883 C.ar    1  UNL1       -0.0065
      2 C           7.1192   -5.7125   29.9510 C.ar    1  UNL1       -0.0029
      3 C           7.2613   -6.0330   28.4926 C.ar    1  UNL1        0.0010
      4 C           7.1688   -4.9381   27.4715 C.ar    1  UNL1        0.0167
      5 C           6.9340   -3.5226   27.9089 C.ar    1  UNL1       -0.0206
      6 C           6.7918   -3.2021   29.3673 C.ar    1  UNL1       -0.0071
      7 C           6.8414   -2.4277   26.8878 C.3     1  UNL1        0.0312
      8 C           6.9836   -2.7482   25.4294 C.3     1  UNL1        0.0360
      9 C           7.2184   -4.1637   24.9920 C.ar    1  UNL1        0.0392
     10 C           7.3110   -5.2587   26.0130 C.ar    1  UNL1        0.1187
     11 N           7.5466   -6.5502   25.2875 N.ar    1  UNL1       -0.0772
     12 O           7.5996   -6.2535   23.8182 O.2     1  UNL1       -0.3505
     13 C           7.3968   -4.7786   23.6355 C.ar    1  UNL1        0.2097
     14 C           7.3760   -4.0470   22.3262 C.ar    1  UNL1        0.2173
     15 O           8.4702   -4.0442   21.3003 O.2     1  UNL1       -0.3502
     16 N           8.0278   -3.1851   20.1529 N.ar    1  UNL1       -0.0769
     17 C           6.6600   -2.6570   20.4699 C.ar    1  UNL1        0.1270
     18 C           6.2572   -3.1897   21.8130 C.ar    1  UNL1        0.1323
     19 C           5.8392   -1.7547   19.5969 C.ar    1  UNL1        0.0209
     20 C           5.0605   -2.3264   18.4494 C.ar    1  UNL1        0.0016
     21 C           4.2398   -1.4241   17.5764 C.ar    1  UNL1        0.0000
     22 C           4.1977    0.0500   17.8509 C.ar    1  UNL1        0.0000
     23 C           4.9764    0.6218   18.9983 C.ar    1  UNL1        0.0000
     24 C           5.7972   -0.2806   19.8713 C.ar    1  UNL1        0.0016
     25 C           4.9629   -2.9135   22.5189 C.3     1  UNL1        0.4231
     26 F           3.6685   -2.6374   23.2248 F       1  UNL1       -0.1657
     27 F           4.4611   -4.2728   22.1307 F       1  UNL1       -0.1657
     28 F           5.4645   -1.5542   22.9071 F       1  UNL1       -0.1657
     29 C           6.7422   -3.9765   31.8468 C.3     1  UNL1        0.0992
     30 C           4.7227   -1.1584   32.8928 C.3     1  UNL1        0.0684
     31 C           4.5476   -2.6482   32.8963 C.3     1  UNL1        0.0793
     32 N           5.9057   -2.8092   32.2801 N.3     1  UNL1       -0.2682
     33 C           6.0808   -1.3195   32.2766 C.3     1  UNL1        0.0793
     34 O           2.8549    0.5782   32.3976 O.co2   1  UNL1       -0.5491
     35 C           3.8863    0.0089   33.3261 C.2     1  UNL1        0.0527
     36 O           4.0813    0.6070   34.6878 O.co2   1  UNL1       -0.5491
@<TRIPOS>UNITY_ATOM_ATTR
34 1
charge -1
@<TRIPOS>BOND
     1    34    35   ar
     2    35    36   ar
     3    35    30    1
     4    30    31    1
     5    31    32    1
     6    32    29    1
     7    29     1    1
     8     1     2   ar
     9     2     3   ar
    10     3     4   ar
    11     4     5   ar
    12     5     6   ar
    13     5     7    1
    14     7     8    1
    15     8     9    1
    16     9    10   ar
    17    10    11   ar
    18    11    12   ar
    19    12    13   ar
    20    13    14    1
    21    14    15   ar
    22    15    16   ar
    23    16    17   ar
    24    17    19    1
    25    19    20   ar
    26    20    21   ar
    27    21    22   ar
    28    22    23   ar
    29    23    24   ar
    30    17    18   ar
    31    18    25    1
    32    25    26    1
    33    25    27    1
    34    25    28    1
    35    32    33    1
    36    33    30    1
    37     6     1   ar
    38    13     9   ar
    39    18    14   ar
    40    10     4    1
    41    24    19   ar
@<TRIPOS>MOLECULE
*****
 36 41 0 0 0
SMALL
GASTEIGER

@<TRIPOS>ATOM
      1 C           8.2184   -5.6454   25.3993 C.ar    1  UNL1       -0.0065
      2 C           9.3780   -5.6202   24.4481 C.ar    1  UNL1       -0.0029
      3 C           9.2356   -4.9588   23.1094 C.ar    1  UNL1        0.0010
      4 C           7.9336   -4.3226   22.7218 C.ar    1  UNL1        0.0167
      5 C           6.7741   -4.3478   23.6730 C.ar    1  UNL1       -0.0206
      6 C           6.9164   -5.0093   25.0117 C.ar    1  UNL1       -0.0071
      7 C           5.4721   -3.7116   23.2854 C.3     1  UNL1        0.0312
      8 C           5.3297   -3.0502   21.9467 C.3     1  UNL1        0.0360
      9 C           6.4893   -3.0249   20.9955 C.ar    1  UNL1        0.0392
     10 C           7.7913   -3.6611   21.3830 C.ar    1  UNL1        0.1187
     11 N           8.7521   -3.4806   20.2454 N.ar    1  UNL1       -0.0772
     12 O           8.0440   -2.7330   19.1548 O.2     1  UNL1       -0.3505
     13 C           6.6456   -2.4513   19.6183 C.ar    1  UNL1        0.2097
     14 C           5.5888   -1.7237   18.8412 C.ar    1  UNL1        0.2173
     15 O           5.0808   -2.0976   17.4803 O.2     1  UNL1       -0.3502
     16 N           4.0325   -1.0994   17.0865 N.ar    1  UNL1       -0.0769
     17 C           3.8928   -0.1088   18.2042 C.ar    1  UNL1        0.1270
     18 C           4.8546   -0.4946   19.2886 C.ar    1  UNL1        0.1323
     19 C           2.9557    1.0622   18.2324 C.ar    1  UNL1        0.0209
     20 C           3.5012    2.4594   18.2322 C.ar    1  UNL1        0.0016
     21 C           2.5641    3.6304   18.2604 C.ar    1  UNL1        0.0000
     22 C           1.0815    3.4040   18.2887 C.ar    1  UNL1        0.0000
     23 C           0.5360    2.0067   18.2889 C.ar    1  UNL1        0.0000
     24 C           1.4731    0.8358   18.2607 C.ar    1  UNL1        0.0016
     25 C           5.0483    0.2228   20.5916 C.3     1  UNL1        0.4231
     26 F           5.2419    0.9402   21.8945 F       1  UNL1       -0.1657
     27 F           6.3370    0.7980   20.0833 F       1  UNL1       -0.1657
     28 F           3.7595   -0.3524   21.0998 F       1  UNL1       -0.1657
     29 C           8.3607   -6.3069   26.7381 C.3     1  UNL1        0.0992
     30 C           7.1100   -4.6626   29.7122 C.3     1  UNL1        0.0684
     31 C           8.4711   -4.9992   29.1793 C.3     1  UNL1        0.0793
     32 N           7.8427   -5.6258   27.9700 N.3     1  UNL1       -0.2682
     33 C           6.4815   -5.2892   28.5029 C.3     1  UNL1        0.0793
     34 O           6.5361   -4.7256   32.2453 O.co2   1  UNL1       -0.5491
     35 C           6.5918   -3.9814   30.9442 C.2     1  UNL1        0.0527
     36 O           6.1294   -2.5562   30.8749 O.co2   1  UNL1       -0.5491
@<TRIPOS>UNITY_ATOM_ATTR
34 1
charge -1
@<TRIPOS>BOND
     1    34    35   ar
     2    35    36   ar
     3    35    30    1
     4    30    31    1
     5    31    32    1
     6    32    29    1
     7    29     1    1
     8     1     2   ar
     9     2     3   ar
    10     3     4   ar
    11     4     5   ar
    12     5     6   ar
    13     5     7    1
    14     7     8    1
    15     8     9    1
    16     9    10   ar
    17    10    11   ar
    18    11    12   ar
    19    12    13   ar
    20    13    14    1
    21    14    15   ar
    22    15    16   ar
    23    16    17   ar
    24    17    19    1
    25    19    20   ar
    26    20    21   ar
    27    21    22   ar
    28    22    23   ar
    29    23    24   ar
    30    17    18   ar
    31    18    25    1
    32    25    26    1
    33    25    27    1
    34    25    28    1
    35    32    33    1
    36    33    30    1
    37     6     1   ar
    38    13     9   ar
    39    18    14   ar
    40    10     4    1
    41    24    19   ar
@<TRIPOS>MOLECULE
*****
 36 41 0 0 0
SMALL
GASTEIGER

@<TRIPOS>ATOM
      1 C           1.7480    0.9982   23.4485 C.ar    1  UNL1       -0.0065
      2 C           0.5728    1.5816   24.1754 C.ar    1  UNL1       -0.0029
      3 C           0.4773    1.4586   25.6672 C.ar    1  UNL1        0.0010
      4 C           1.5570    0.7521   26.4322 C.ar    1  UNL1        0.0167
      5 C           2.7322    0.1686   25.7053 C.ar    1  UNL1       -0.0206
      6 C           2.8277    0.2917   24.2135 C.ar    1  UNL1       -0.0071
      7 C           3.8118   -0.5378   26.4703 C.3     1  UNL1        0.0312
      8 C           3.7163   -0.6609   27.9621 C.3     1  UNL1        0.0360
      9 C           2.5411   -0.0774   28.6891 C.ar    1  UNL1        0.0392
     10 C           1.4614    0.6291   27.9241 C.ar    1  UNL1        0.1187
     11 N           0.4300    1.1003   28.9061 N.ar    1  UNL1       -0.0772
     12 O           0.8722    0.6849   30.2779 O.2     1  UNL1       -0.3505
     13 C           2.1769   -0.0429   30.1438 C.ar    1  UNL1        0.2097
     14 C           2.9770   -0.6326   31.2672 C.ar    1  UNL1        0.2173
     15 O           3.0902   -2.0913   31.5980 O.2     1  UNL1       -0.3502
     16 N           3.9877   -2.2275   32.7923 N.ar    1  UNL1       -0.0769
     17 C           4.4290   -0.8529   33.1995 C.ar    1  UNL1        0.1270
     18 C           3.8044    0.1328   32.2570 C.ar    1  UNL1        0.1323
     19 C           5.3358   -0.5221   34.3477 C.ar    1  UNL1        0.0209
     20 C           4.7641   -0.3129   35.7186 C.ar    1  UNL1        0.0016
     21 C           5.6709    0.0179   36.8668 C.ar    1  UNL1        0.0000
     22 C           7.1493    0.1395   36.6441 C.ar    1  UNL1        0.0000
     23 C           7.7209   -0.0697   35.2732 C.ar    1  UNL1        0.0000
     24 C           6.8142   -0.4005   34.1250 C.ar    1  UNL1        0.0016
     25 C           3.9770    1.6222   32.2972 C.3     1  UNL1        0.4231
     26 F           4.1495    3.1117   32.3373 F       1  UNL1       -0.1657
     27 F           5.0086    1.5320   31.2119 F       1  UNL1       -0.1657
     28 F           2.9454    1.7125   33.3824 F       1  UNL1       -0.1657
     29 C           1.8436    1.1212   21.9565 C.3     1  UNL1        0.0992
     30 C           3.1609   -1.6225   19.9942 C.3     1  UNL1        0.0684
     31 C           1.7993   -1.0320   20.2119 C.3     1  UNL1        0.0793
     32 N           2.3892   -0.0153   21.1437 N.3     1  UNL1       -0.2682
     33 C           3.7508   -0.6058   20.9261 C.3     1  UNL1        0.0793
     34 O           3.1925   -4.1512   19.3988 O.co2   1  UNL1       -0.5491
     35 C           3.7066   -2.7590   19.1814 C.2     1  UNL1        0.0527
     36 O           4.7664   -2.5031   18.1511 O.co2   1  UNL1       -0.5491
@<TRIPOS>UNITY_ATOM_ATTR
34 1
charge -1
@<TRIPOS>BOND
     1    34    35   ar
     2    35    36   ar
     3    35    30    1
     4    30    31    1
     5    31    32    1
     6    32    29    1
     7    29     1    1
     8     1     2   ar
     9     2     3   ar
    10     3     4   ar
    11     4     5   ar
    12     5     6   ar
    13     5     7    1
    14     7     8    1
    15     8     9    1
    16     9    10   ar
    17    10    11   ar
    18    11    12   ar
    19    12    13   ar
    20    13    14    1
    21    14    15   ar
    22    15    16   ar
    23    16    17   ar
    24    17    19    1
    25    19    20   ar
    26    20    21   ar
    27    21    22   ar
    28    22    23   ar
    29    23    24   ar
    30    17    18   ar
    31    18    25    1
    32    25    26    1
    33    25    27    1
    34    25    28    1
    35    32    33    1
    36    33    30    1
    37     6     1   ar
    38    13     9   ar
    39    18    14   ar
    40    10     4    1
    41    24    19   ar
@<TRIPOS>MOLECULE
*****
 36 41 0 0 0
SMALL
GASTEIGER

@<TRIPOS>ATOM
      1 C           7.5633   -4.6267   24.3987 C.ar    1  UNL1       -0.0065
      2 C           7.2867   -5.8974   25.1462 C.ar    1  UNL1       -0.0029
      3 C           7.1590   -5.8757   26.6406 C.ar    1  UNL1        0.0010
      4 C           7.3078   -4.5834   27.3874 C.ar    1  UNL1        0.0167
      5 C           7.5844   -3.3127   26.6398 C.ar    1  UNL1       -0.0206
      6 C           7.7122   -3.3344   25.1455 C.ar    1  UNL1       -0.0071
      7 C           7.7333   -2.0204   27.3866 C.3     1  UNL1        0.0312
      8 C           7.6055   -1.9987   28.8810 C.3     1  UNL1        0.0360
      9 C           7.3289   -3.2694   29.6286 C.ar    1  UNL1        0.0392
     10 C           7.1801   -4.5617   28.8818 C.ar    1  UNL1        0.1187
     11 N           6.9121   -5.6469   29.8821 N.ar    1  UNL1       -0.0772
     12 O           6.8953   -5.0252   31.2471 O.2     1  UNL1       -0.3505
     13 C           7.1529   -3.5559   31.0905 C.ar    1  UNL1        0.2097
     14 C           7.2223   -2.5496   32.2007 C.ar    1  UNL1        0.2173
     15 O           8.4583   -2.1459   32.9487 O.2     1  UNL1       -0.3502
     16 N           8.0678   -1.1171   33.9682 N.ar    1  UNL1       -0.0769
     17 C           6.5905   -0.8851   33.8501 C.ar    1  UNL1        0.1270
     18 C           6.0680   -1.7704   32.7578 C.ar    1  UNL1        0.1323
     19 C           5.7784    0.0655   34.6789 C.ar    1  UNL1        0.0209
     20 C           5.6463    1.5001   34.2615 C.ar    1  UNL1        0.0016
     21 C           4.8342    2.4506   35.0903 C.ar    1  UNL1        0.0000
     22 C           4.1542    1.9665   36.3366 C.ar    1  UNL1        0.0000
     23 C           4.2862    0.5319   36.7540 C.ar    1  UNL1        0.0000
     24 C           5.0984   -0.4187   35.9252 C.ar    1  UNL1        0.0016
     25 C           4.6417   -1.8605   32.3025 C.3     1  UNL1        0.4231
     26 F           3.2153   -1.9507   31.8471 F       1  UNL1       -0.1657
     27 F           4.9465   -0.9327   31.1639 F       1  UNL1       -0.1657
     28 F           4.3369   -2.7883   33.4410 F       1  UNL1       -0.1657
     29 C           7.6911   -4.6484   22.9042 C.3     1  UNL1        0.0992
     30 C           4.9066   -3.6121   20.8337 C.3     1  UNL1        0.0684
     31 C           5.0897   -3.9140   22.2916 C.3     1  UNL1        0.0793
     32 N           6.5377   -4.2191   22.0466 N.3     1  UNL1       -0.2682
     33 C           6.3547   -3.9172   20.5887 C.3     1  UNL1        0.0793
     34 O           3.1925   -1.7982   20.1114 O.co2   1  UNL1       -0.5491
     35 C           3.7533   -3.1828   19.9760 C.2     1  UNL1        0.0527
     36 O           3.1608   -4.1382   18.9829 O.co2   1  UNL1       -0.5491
@<TRIPOS>UNITY_ATOM_ATTR
34 1
charge -1
@<TRIPOS>BOND
     1    34    35   ar
     2    35    36   ar
     3    35    30    1
     4    30    31    1
     5    31    32    1
     6    32    29    1
     7    29     1    1
     8     1     2   ar
     9     2     3   ar
    10     3     4   ar
    11     4     5   ar
    12     5     6   ar
    13     5     7    1
    14     7     8    1
    15     8     9    1
    16     9    10   ar
    17    10    11   ar
    18    11    12   ar
    19    12    13   ar
    20    13    14    1
    21    14    15   ar
    22    15    16   ar
    23    16    17   ar
    24    17    19    1
    25    19    20   ar
    26    20    21   ar
    27    21    22   ar
    28    22    23   ar
    29    23    24   ar
    30    17    18   ar
    31    18    25    1
    32    25    26    1
    33    25    27    1
    34    25    28    1
    35    32    33    1
    36    33    30    1
    37     6     1   ar
    38    13     9   ar
    39    18    14   ar
    40    10     4    1
    41    24    19   ar
