@<TRIPOS>MOLECULE
*****
 27 30 0 0 0
SMALL
GASTEIGER

@<TRIPOS>ATOM
      1 C         -10.6420  -19.2531   22.8728 C.2     1  UNL1       -0.0088
      2 C         -10.0633  -19.4423   21.5020 C.2     1  UNL1       -0.0032
      3 C          -8.5830  -19.3240   21.2900 C.ar    1  UNL1       -0.0003
      4 C          -7.6753  -19.0781   22.4586 C.ar    1  UNL1       -0.0000
      5 C          -6.1950  -18.9599   22.2464 C.ar    1  UNL1       -0.0000
      6 C          -5.6227  -19.0875   20.8659 C.ar    1  UNL1       -0.0000
      7 C          -6.5304  -19.3334   19.6973 C.ar    1  UNL1       -0.0000
      8 C          -8.0106  -19.4516   19.9094 C.ar    1  UNL1       -0.0000
      9 C          -4.1423  -18.9692   20.6539 C.ar    1  UNL1        0.0000
     10 C          -3.1992  -19.2191   21.7932 C.ar    1  UNL1        0.0000
     11 C          -1.7190  -19.1008   21.5811 C.ar    1  UNL1        0.0000
     12 C          -1.1820  -18.7327   20.2298 C.ar    1  UNL1        0.0000
     13 C          -2.1251  -18.4829   19.0905 C.ar    1  UNL1        0.0000
     14 C          -3.6053  -18.6011   19.3026 C.ar    1  UNL1        0.0000
     15 C         -12.1222  -19.3714   23.0849 C.3     1  UNL1        0.0992
     16 C         -13.6596  -18.4408   24.9612 C.3     1  UNL1        0.0902
     17 N         -12.8861  -18.2326   23.6929 N.3     1  UNL1       -0.2639
     18 C         -12.8766  -16.8857   23.0327 C.3     1  UNL1        0.1027
     19 C         -11.6599  -16.4250   22.2861 C.ar    1  UNL1        0.0344
     20 C         -11.5772  -16.1625   20.8116 C.ar    1  UNL1        0.1766
     21 O         -10.1785  -15.7212   20.4971 O.2     1  UNL1       -0.4507
     22 C          -9.3968  -15.7110   21.7773 C.ar    1  UNL1        0.1452
     23 C          -7.9696  -15.3618   22.0791 C.ar    1  UNL1        0.0375
     24 C          -7.4580  -15.4476   23.4865 C.ar    1  UNL1        0.0031
     25 C          -8.3735  -15.8826   24.5921 C.ar    1  UNL1        0.0002
     26 C          -9.8008  -16.2318   24.2904 C.ar    1  UNL1        0.0029
     27 C         -10.3124  -16.1460   22.8830 C.ar    1  UNL1        0.0349
@<TRIPOS>BOND
     1    16    17    1
     2    17    15    1
     3    15     1    1
     4     1     2    2
     5     2     3    1
     6     3     4   ar
     7     4     5   ar
     8     5     6   ar
     9     6     9    1
    10     9    10   ar
    11    10    11   ar
    12    11    12   ar
    13    12    13   ar
    14    13    14   ar
    15     6     7   ar
    16     7     8   ar
    17    17    18    1
    18    18    19    1
    19    19    20   ar
    20    20    21   ar
    21    21    22   ar
    22    22    23   ar
    23    23    24   ar
    24    24    25   ar
    25    25    26   ar
    26    26    27   ar
    27     8     3   ar
    28    27    19   ar
    29    14     9   ar
    30    27    22   ar
@<TRIPOS>MOLECULE
*****
 27 30 0 0 0
SMALL
GASTEIGER

@<TRIPOS>ATOM
      1 C          -4.1876  -18.3517   19.6621 C.2     1  UNL1       -0.0088
      2 C          -4.9091  -19.3830   20.4781 C.2     1  UNL1       -0.0032
      3 C          -6.3269  -19.1439   20.9053 C.ar    1  UNL1       -0.0003
      4 C          -7.4579  -19.5137   19.9919 C.ar    1  UNL1       -0.0000
      5 C          -8.8758  -19.2746   20.4191 C.ar    1  UNL1       -0.0000
      6 C          -9.1626  -18.6658   21.7596 C.ar    1  UNL1       -0.0000
      7 C          -8.0317  -18.2960   22.6730 C.ar    1  UNL1       -0.0000
      8 C          -6.6139  -18.5351   22.2458 C.ar    1  UNL1       -0.0000
      9 C         -10.5806  -18.4267   22.1868 C.ar    1  UNL1        0.0000
     10 C         -11.6059  -18.0002   21.1784 C.ar    1  UNL1        0.0000
     11 C         -13.0237  -17.7611   21.6056 C.ar    1  UNL1        0.0000
     12 C         -13.4163  -17.9486   23.0411 C.ar    1  UNL1        0.0000
     13 C         -12.3910  -18.3752   24.0495 C.ar    1  UNL1        0.0000
     14 C         -10.9732  -18.6142   23.6223 C.ar    1  UNL1        0.0000
     15 C          -2.7698  -18.5907   19.2349 C.3     1  UNL1        0.0992
     16 C          -0.2411  -18.0197   19.4086 C.3     1  UNL1        0.0902
     17 N          -1.6559  -17.8016   19.8568 N.3     1  UNL1       -0.2639
     18 C          -1.9569  -16.7943   20.9269 C.3     1  UNL1        0.1027
     19 C          -2.5313  -17.2421   22.2382 C.ar    1  UNL1        0.0344
     20 C          -2.1275  -18.4659   23.0057 C.ar    1  UNL1        0.1766
     21 O          -2.9571  -18.5248   24.2540 O.2     1  UNL1       -0.4507
     22 C          -3.8735  -17.3373   24.2580 C.ar    1  UNL1        0.1452
     23 C          -4.9136  -16.8755   25.2352 C.ar    1  UNL1        0.0375
     24 C          -5.6906  -15.6209   24.9664 C.ar    1  UNL1        0.0031
     25 C          -5.4275  -14.8281   23.7206 C.ar    1  UNL1        0.0002
     26 C          -4.3873  -15.2899   22.7434 C.ar    1  UNL1        0.0029
     27 C          -3.6104  -16.5445   23.0122 C.ar    1  UNL1        0.0349
@<TRIPOS>BOND
     1    16    17    1
     2    17    15    1
     3    15     1    1
     4     1     2    2
     5     2     3    1
     6     3     4   ar
     7     4     5   ar
     8     5     6   ar
     9     6     9    1
    10     9    10   ar
    11    10    11   ar
    12    11    12   ar
    13    12    13   ar
    14    13    14   ar
    15     6     7   ar
    16     7     8   ar
    17    17    18    1
    18    18    19    1
    19    19    20   ar
    20    20    21   ar
    21    21    22   ar
    22    22    23   ar
    23    23    24   ar
    24    24    25   ar
    25    25    26   ar
    26    26    27   ar
    27     8     3   ar
    28    27    19   ar
    29    14     9   ar
    30    27    22   ar
@<TRIPOS>MOLECULE
*****
 27 30 0 0 0
SMALL
GASTEIGER

@<TRIPOS>ATOM
      1 C           3.4168   -0.1526   18.5319 C.2     1  UNL1       -0.0088
      2 C           2.7623   -0.9445   19.6248 C.2     1  UNL1       -0.0032
      3 C           2.0865   -0.2372   20.7619 C.ar    1  UNL1       -0.0003
      4 C           2.6261   -0.3711   22.1551 C.ar    1  UNL1       -0.0000
      5 C           1.9502    0.3363   23.2922 C.ar    1  UNL1       -0.0000
      6 C           0.7350    1.1774   23.0361 C.ar    1  UNL1       -0.0000
      7 C           0.1955    1.3112   21.6429 C.ar    1  UNL1       -0.0000
      8 C           0.8713    0.6039   20.5058 C.ar    1  UNL1       -0.0000
      9 C           0.0592    1.8847   24.1733 C.ar    1  UNL1        0.0000
     10 C           0.1099    1.3027   25.5548 C.ar    1  UNL1        0.0000
     11 C          -0.5659    2.0100   26.6919 C.ar    1  UNL1        0.0000
     12 C          -1.2924    3.2993   26.4475 C.ar    1  UNL1        0.0000
     13 C          -1.3431    3.8814   25.0659 C.ar    1  UNL1        0.0000
     14 C          -0.6673    3.1741   23.9289 C.ar    1  UNL1        0.0000
     15 C           4.0926   -0.8598   17.3947 C.3     1  UNL1        0.0992
     16 C           6.5351   -0.0236   17.1034 C.3     1  UNL1        0.0902
     17 N           5.5691   -1.1193   17.4442 N.3     1  UNL1       -0.2639
     18 C           6.0797   -2.4748   17.8346 C.3     1  UNL1        0.1027
     19 C           5.4764   -3.1954   19.0036 C.ar    1  UNL1        0.0344
     20 C           4.6894   -4.4709   18.9425 C.ar    1  UNL1        0.1766
     21 O           4.2807   -4.8308   20.3401 O.2     1  UNL1       -0.4507
     22 C           4.8152   -3.7778   21.2651 C.ar    1  UNL1        0.1452
     23 C           4.7244   -3.6087   22.7527 C.ar    1  UNL1        0.0375
     24 C           5.3726   -2.4289   23.4143 C.ar    1  UNL1        0.0031
     25 C           6.1116   -1.4181   22.5883 C.ar    1  UNL1        0.0002
     26 C           6.2023   -1.5872   21.1007 C.ar    1  UNL1        0.0029
     27 C           5.5541   -2.7670   20.4391 C.ar    1  UNL1        0.0349
@<TRIPOS>BOND
     1    16    17    1
     2    17    15    1
     3    15     1    1
     4     1     2    2
     5     2     3    1
     6     3     4   ar
     7     4     5   ar
     8     5     6   ar
     9     6     9    1
    10     9    10   ar
    11    10    11   ar
    12    11    12   ar
    13    12    13   ar
    14    13    14   ar
    15     6     7   ar
    16     7     8   ar
    17    17    18    1
    18    18    19    1
    19    19    20   ar
    20    20    21   ar
    21    21    22   ar
    22    22    23   ar
    23    23    24   ar
    24    24    25   ar
    25    25    26   ar
    26    26    27   ar
    27     8     3   ar
    28    27    19   ar
    29    14     9   ar
    30    27    22   ar
@<TRIPOS>MOLECULE
*****
 27 30 0 0 0
SMALL
GASTEIGER

@<TRIPOS>ATOM
      1 C           3.3683   -0.5217   22.3306 C.2     1  UNL1       -0.0088
      2 C           4.8538   -0.6999   22.2235 C.2     1  UNL1       -0.0032
      3 C           5.5088   -1.9109   22.8189 C.ar    1  UNL1       -0.0003
      4 C           5.5752   -2.0713   24.3088 C.ar    1  UNL1       -0.0000
      5 C           6.2302   -3.2824   24.9042 C.ar    1  UNL1       -0.0000
      6 C           6.8186   -4.3329   24.0098 C.ar    1  UNL1       -0.0000
      7 C           6.7522   -4.1724   22.5198 C.ar    1  UNL1       -0.0000
      8 C           6.0972   -2.9614   21.9245 C.ar    1  UNL1       -0.0000
      9 C           7.4736   -5.5439   24.6052 C.ar    1  UNL1        0.0000
     10 C           8.3776   -6.3969   23.7655 C.ar    1  UNL1        0.0000
     11 C           9.0324   -7.6079   24.3610 C.ar    1  UNL1        0.0000
     12 C           8.7834   -7.9659   25.7962 C.ar    1  UNL1        0.0000
     13 C           7.8794   -7.1129   26.6359 C.ar    1  UNL1        0.0000
     14 C           7.2245   -5.9019   26.0404 C.ar    1  UNL1        0.0000
     15 C           2.7133    0.6893   21.7351 C.3     1  UNL1        0.0992
     16 C           0.4139    0.1430   20.6561 C.3     1  UNL1        0.0902
     17 N           1.8503    0.5521   20.5160 N.3     1  UNL1       -0.2639
     18 C           2.4235    0.8239   19.1567 C.3     1  UNL1        0.1027
     19 C           3.6335    0.0709   18.6888 C.ar    1  UNL1        0.0344
     20 C           4.8415    0.6662   18.0283 C.ar    1  UNL1        0.1766
     21 O           5.8025   -0.4464   17.7305 O.2     1  UNL1       -0.4507
     22 C           5.1883   -1.7293   18.2068 C.ar    1  UNL1        0.1452
     23 C           5.6765   -3.1473   18.1778 C.ar    1  UNL1        0.0375
     24 C           4.8242   -4.2456   18.7411 C.ar    1  UNL1        0.0031
     25 C           3.4837   -3.9259   19.3333 C.ar    1  UNL1        0.0002
     26 C           2.9955   -2.5079   19.3624 C.ar    1  UNL1        0.0029
     27 C           3.8478   -1.4096   18.7991 C.ar    1  UNL1        0.0349
@<TRIPOS>BOND
     1    16    17    1
     2    17    15    1
     3    15     1    1
     4     1     2    2
     5     2     3    1
     6     3     4   ar
     7     4     5   ar
     8     5     6   ar
     9     6     9    1
    10     9    10   ar
    11    10    11   ar
    12    11    12   ar
    13    12    13   ar
    14    13    14   ar
    15     6     7   ar
    16     7     8   ar
    17    17    18    1
    18    18    19    1
    19    19    20   ar
    20    20    21   ar
    21    21    22   ar
    22    22    23   ar
    23    23    24   ar
    24    24    25   ar
    25    25    26   ar
    26    26    27   ar
    27     8     3   ar
    28    27    19   ar
    29    14     9   ar
    30    27    22   ar
@<TRIPOS>MOLECULE
*****
 27 30 0 0 0
SMALL
GASTEIGER

@<TRIPOS>ATOM
      1 C           3.1441   -2.0906   20.0898 C.2     1  UNL1       -0.0088
      2 C           3.7176   -1.2297   21.1761 C.2     1  UNL1       -0.0032
      3 C           2.8040   -0.4864   22.1049 C.ar    1  UNL1       -0.0003
      4 C           3.0455   -0.5255   23.5849 C.ar    1  UNL1       -0.0000
      5 C           2.1318    0.2179   24.5137 C.ar    1  UNL1       -0.0000
      6 C           0.9769    1.0003   23.9626 C.ar    1  UNL1       -0.0000
      7 C           0.7354    1.0394   22.4827 C.ar    1  UNL1       -0.0000
      8 C           1.6490    0.2961   21.5539 C.ar    1  UNL1       -0.0000
      9 C           0.0632    1.7437   24.8915 C.ar    1  UNL1        0.0000
     10 C          -0.0645    1.3121   26.3224 C.ar    1  UNL1        0.0000
     11 C          -0.9781    2.0555   27.2512 C.ar    1  UNL1        0.0000
     12 C          -1.7639    3.2304   26.7492 C.ar    1  UNL1        0.0000
     13 C          -1.6362    3.6620   25.3183 C.ar    1  UNL1        0.0000
     14 C          -0.7226    2.9186   24.3895 C.ar    1  UNL1        0.0000
     15 C           4.0575   -2.8339   19.1609 C.3     1  UNL1        0.0992
     16 C           6.4132   -2.3889   18.1596 C.3     1  UNL1        0.0902
     17 N           4.9471   -2.0776   18.2193 N.3     1  UNL1       -0.2639
     18 C           4.3705   -1.0100   17.3372 C.3     1  UNL1        0.1027
     19 C           4.3028    0.4078   17.8221 C.ar    1  UNL1        0.0344
     20 C           5.4726    1.3188   18.0490 C.ar    1  UNL1        0.1766
     21 O           4.9461    2.6376   18.5323 O.2     1  UNL1       -0.4507
     22 C           3.4509    2.5416   18.6041 C.ar    1  UNL1        0.1452
     23 C           2.4001    3.5311   19.0125 C.ar    1  UNL1        0.0375
     24 C           0.9517    3.1424   18.9819 C.ar    1  UNL1        0.0031
     25 C           0.5541    1.7643   18.5430 C.ar    1  UNL1        0.0002
     26 C           1.6049    0.7748   18.1346 C.ar    1  UNL1        0.0029
     27 C           3.0533    1.1635   18.1652 C.ar    1  UNL1        0.0349
@<TRIPOS>BOND
     1    16    17    1
     2    17    15    1
     3    15     1    1
     4     1     2    2
     5     2     3    1
     6     3     4   ar
     7     4     5   ar
     8     5     6   ar
     9     6     9    1
    10     9    10   ar
    11    10    11   ar
    12    11    12   ar
    13    12    13   ar
    14    13    14   ar
    15     6     7   ar
    16     7     8   ar
    17    17    18    1
    18    18    19    1
    19    19    20   ar
    20    20    21   ar
    21    21    22   ar
    22    22    23   ar
    23    23    24   ar
    24    24    25   ar
    25    25    26   ar
    26    26    27   ar
    27     8     3   ar
    28    27    19   ar
    29    14     9   ar
    30    27    22   ar
@<TRIPOS>MOLECULE
*****
 27 30 0 0 0
SMALL
GASTEIGER

@<TRIPOS>ATOM
      1 C           4.5123   -2.6955   23.1451 C.2     1  UNL1       -0.0088
      2 C           4.6832   -1.4933   24.0257 C.2     1  UNL1       -0.0032
      3 C           3.5078   -0.6118   24.3279 C.ar    1  UNL1       -0.0003
      4 C           2.6112   -0.1504   23.2175 C.ar    1  UNL1       -0.0000
      5 C           1.4358    0.7312   23.5199 C.ar    1  UNL1       -0.0000
      6 C           1.1571    1.1512   24.9326 C.ar    1  UNL1       -0.0000
      7 C           2.0537    0.6897   26.0430 C.ar    1  UNL1       -0.0000
      8 C           3.2290   -0.1918   25.7407 C.ar    1  UNL1       -0.0000
      9 C          -0.0184    2.0327   25.2349 C.ar    1  UNL1        0.0000
     10 C          -0.5863    2.0759   26.6226 C.ar    1  UNL1        0.0000
     11 C          -1.7616    2.9574   26.9248 C.ar    1  UNL1        0.0000
     12 C          -2.3692    3.7957   25.8394 C.ar    1  UNL1        0.0000
     13 C          -1.8013    3.7525   24.4517 C.ar    1  UNL1        0.0000
     14 C          -0.6260    2.8710   24.1495 C.ar    1  UNL1        0.0000
     15 C           5.6876   -3.5770   22.8428 C.3     1  UNL1        0.0992
     16 C           7.4145   -4.2398   21.0184 C.3     1  UNL1        0.0902
     17 N           5.9997   -3.9507   21.4240 N.3     1  UNL1       -0.2639
     18 C           4.8968   -4.0352   20.4107 C.3     1  UNL1        0.1027
     19 C           4.7832   -2.9937   19.3371 C.ar    1  UNL1        0.0344
     20 C           5.7086   -2.8278   18.1683 C.ar    1  UNL1        0.1766
     21 O           5.2215   -1.6669   17.3528 O.2     1  UNL1       -0.4507
     22 C           3.9952   -1.1153   18.0176 C.ar    1  UNL1        0.1452
     23 C           3.0902    0.0276   17.6646 C.ar    1  UNL1        0.0375
     24 C           1.9143    0.3505   18.5381 C.ar    1  UNL1        0.0031
     25 C           1.6434   -0.4695   19.7645 C.ar    1  UNL1        0.0002
     26 C           2.5484   -1.6125   20.1174 C.ar    1  UNL1        0.0029
     27 C           3.7243   -1.9354   19.2440 C.ar    1  UNL1        0.0349
@<TRIPOS>BOND
     1    16    17    1
     2    17    15    1
     3    15     1    1
     4     1     2    2
     5     2     3    1
     6     3     4   ar
     7     4     5   ar
     8     5     6   ar
     9     6     9    1
    10     9    10   ar
    11    10    11   ar
    12    11    12   ar
    13    12    13   ar
    14    13    14   ar
    15     6     7   ar
    16     7     8   ar
    17    17    18    1
    18    18    19    1
    19    19    20   ar
    20    20    21   ar
    21    21    22   ar
    22    22    23   ar
    23    23    24   ar
    24    24    25   ar
    25    25    26   ar
    26    26    27   ar
    27     8     3   ar
    28    27    19   ar
    29    14     9   ar
    30    27    22   ar
@<TRIPOS>MOLECULE
*****
 27 30 0 0 0
SMALL
GASTEIGER

@<TRIPOS>ATOM
      1 C          -0.9122    3.3088   20.4202 C.2     1  UNL1       -0.0088
      2 C          -0.4780    2.4220   21.5494 C.2     1  UNL1       -0.0032
      3 C           0.4992    1.3120   21.2982 C.ar    1  UNL1       -0.0003
      4 C           1.5496    0.9918   22.3200 C.ar    1  UNL1       -0.0000
      5 C           2.5267   -0.1182   22.0687 C.ar    1  UNL1       -0.0000
      6 C           2.4534   -0.9079   20.7956 C.ar    1  UNL1       -0.0000
      7 C           1.4030   -0.5878   19.7737 C.ar    1  UNL1       -0.0000
      8 C           0.4259    0.5222   20.0251 C.ar    1  UNL1       -0.0000
      9 C           3.4306   -2.0180   20.5443 C.ar    1  UNL1        0.0000
     10 C           4.3045   -2.5143   21.6579 C.ar    1  UNL1        0.0000
     11 C           5.2816   -3.6242   21.4066 C.ar    1  UNL1        0.0000
     12 C           5.3848   -4.2379   20.0418 C.ar    1  UNL1        0.0000
     13 C           4.5109   -3.7417   18.9282 C.ar    1  UNL1        0.0000
     14 C           3.5338   -2.6317   19.1795 C.ar    1  UNL1        0.0000
     15 C          -1.8893    4.4188   20.6714 C.3     1  UNL1        0.0992
     16 C          -4.0694    5.0048   19.3853 C.3     1  UNL1        0.0902
     17 N          -3.3531    4.1989   20.4281 N.3     1  UNL1       -0.2639
     18 C          -4.1005    3.1730   21.2276 C.3     1  UNL1        0.1027
     19 C          -4.7322    3.5544   22.5335 C.ar    1  UNL1        0.0344
     20 C          -6.1652    3.9477   22.7381 C.ar    1  UNL1        0.1766
     21 O          -6.3605    4.2458   24.1952 O.2     1  UNL1       -0.4507
     22 C          -5.0482    4.0367   24.8911 C.ar    1  UNL1        0.1452
     23 C          -4.6396    4.1803   26.3272 C.ar    1  UNL1        0.0375
     24 C          -3.2247    3.8965   26.7362 C.ar    1  UNL1        0.0031
     25 C          -2.2184    3.4691   25.7093 C.ar    1  UNL1        0.0002
     26 C          -2.6270    3.3256   24.2732 C.ar    1  UNL1        0.0029
     27 C          -4.0419    3.6094   23.8641 C.ar    1  UNL1        0.0349
@<TRIPOS>BOND
     1    16    17    1
     2    17    15    1
     3    15     1    1
     4     1     2    2
     5     2     3    1
     6     3     4   ar
     7     4     5   ar
     8     5     6   ar
     9     6     9    1
    10     9    10   ar
    11    10    11   ar
    12    11    12   ar
    13    12    13   ar
    14    13    14   ar
    15     6     7   ar
    16     7     8   ar
    17    17    18    1
    18    18    19    1
    19    19    20   ar
    20    20    21   ar
    21    21    22   ar
    22    22    23   ar
    23    23    24   ar
    24    24    25   ar
    25    25    26   ar
    26    26    27   ar
    27     8     3   ar
    28    27    19   ar
    29    14     9   ar
    30    27    22   ar
@<TRIPOS>MOLECULE
*****
 27 30 0 0 0
SMALL
GASTEIGER

@<TRIPOS>ATOM
      1 C           8.0891   -0.2605   19.2808 C.2     1  UNL1       -0.0088
      2 C           8.5236   -1.6934   19.1918 C.2     1  UNL1       -0.0032
      3 C           8.3319   -2.6094   20.3640 C.ar    1  UNL1       -0.0003
      4 C           7.1200   -2.4674   21.2365 C.ar    1  UNL1       -0.0000
      5 C           6.9284   -3.3836   22.4088 C.ar    1  UNL1       -0.0000
      6 C           7.9486   -4.4414   22.7085 C.ar    1  UNL1       -0.0000
      7 C           9.1605   -4.5834   21.8360 C.ar    1  UNL1       -0.0000
      8 C           9.3521   -3.6674   20.6638 C.ar    1  UNL1       -0.0000
      9 C           7.7569   -5.3575   23.8808 C.ar    1  UNL1        0.0000
     10 C           8.2945   -6.7571   23.8347 C.ar    1  UNL1        0.0000
     11 C           8.1027   -7.6731   25.0069 C.ar    1  UNL1        0.0000
     12 C           7.3735   -7.1895   26.2253 C.ar    1  UNL1        0.0000
     13 C           6.8360   -5.7899   26.2714 C.ar    1  UNL1        0.0000
     14 C           7.0277   -4.8739   25.0991 C.ar    1  UNL1        0.0000
     15 C           8.2808    0.6556   18.1086 C.3     1  UNL1        0.0992
     16 C           6.9374    2.6536   17.1322 C.3     1  UNL1        0.0902
     17 N           7.0891    1.1792   17.3632 N.3     1  UNL1       -0.2639
     18 C           6.0490    0.2285   16.8488 C.3     1  UNL1        0.1027
     19 C           4.9241   -0.2068   17.7405 C.ar    1  UNL1        0.0344
     20 C           3.8332    0.6722   18.2766 C.ar    1  UNL1        0.1766
     21 O           2.9276   -0.1753   19.1201 O.2     1  UNL1       -0.4507
     22 C           3.4588   -1.5781   19.1054 C.ar    1  UNL1        0.1452
     23 C           2.9783   -2.8402   19.7582 C.ar    1  UNL1        0.0375
     24 C           3.7318   -4.1217   19.5584 C.ar    1  UNL1        0.0031
     25 C           4.9657   -4.1411   18.7057 C.ar    1  UNL1        0.0002
     26 C           5.4462   -2.8790   18.0529 C.ar    1  UNL1        0.0029
     27 C           4.6927   -1.5975   18.2527 C.ar    1  UNL1        0.0349
@<TRIPOS>BOND
     1    16    17    1
     2    17    15    1
     3    15     1    1
     4     1     2    2
     5     2     3    1
     6     3     4   ar
     7     4     5   ar
     8     5     6   ar
     9     6     9    1
    10     9    10   ar
    11    10    11   ar
    12    11    12   ar
    13    12    13   ar
    14    13    14   ar
    15     6     7   ar
    16     7     8   ar
    17    17    18    1
    18    18    19    1
    19    19    20   ar
    20    20    21   ar
    21    21    22   ar
    22    22    23   ar
    23    23    24   ar
    24    24    25   ar
    25    25    26   ar
    26    26    27   ar
    27     8     3   ar
    28    27    19   ar
    29    14     9   ar
    30    27    22   ar
@<TRIPOS>MOLECULE
*****
 27 30 0 0 0
SMALL
GASTEIGER

@<TRIPOS>ATOM
      1 C           1.4976    2.4897   25.4353 C.2     1  UNL1       -0.0088
      2 C           0.9097    2.0063   24.1428 C.2     1  UNL1       -0.0032
      3 C           1.6177    0.9520   23.3446 C.ar    1  UNL1       -0.0003
      4 C           2.6063    0.0430   24.0129 C.ar    1  UNL1       -0.0000
      5 C           3.3143   -1.0113   23.2146 C.ar    1  UNL1       -0.0000
      6 C           3.0338   -1.1566   21.7483 C.ar    1  UNL1       -0.0000
      7 C           2.0453   -0.2475   21.0801 C.ar    1  UNL1       -0.0000
      8 C           1.3373    0.8067   21.8783 C.ar    1  UNL1       -0.0000
      9 C           3.7420   -2.2109   20.9501 C.ar    1  UNL1        0.0000
     10 C           3.1710   -2.6707   19.6414 C.ar    1  UNL1        0.0000
     11 C           3.8791   -3.7250   18.8433 C.ar    1  UNL1        0.0000
     12 C           5.1581   -4.3195   19.3538 C.ar    1  UNL1        0.0000
     13 C           5.7291   -3.8597   20.6625 C.ar    1  UNL1        0.0000
     14 C           5.0210   -2.8054   21.4606 C.ar    1  UNL1        0.0000
     15 C           0.7896    3.5440   26.2335 C.3     1  UNL1        0.0992
     16 C          -0.9675    1.9969   27.3600 C.3     1  UNL1        0.0902
     17 N          -0.6096    3.3045   26.7182 N.3     1  UNL1       -0.2639
     18 C          -1.6509    4.3728   26.5612 C.3     1  UNL1        0.1027
     19 C          -2.9572    4.0548   25.8961 C.ar    1  UNL1        0.0344
     20 C          -4.2872    3.9317   26.5787 C.ar    1  UNL1        0.1766
     21 O          -5.3148    3.6049   25.5361 O.2     1  UNL1       -0.4507
     22 C          -4.6200    3.5261   24.2090 C.ar    1  UNL1        0.1452
     23 C          -5.1259    3.2370   22.8269 C.ar    1  UNL1        0.0375
     24 C          -4.1746    3.2260   21.6672 C.ar    1  UNL1        0.0031
     25 C          -2.7175    3.5041   21.8897 C.ar    1  UNL1        0.0002
     26 C          -2.2116    3.7931   23.2718 C.ar    1  UNL1        0.0029
     27 C          -3.1629    3.8041   24.4315 C.ar    1  UNL1        0.0349
@<TRIPOS>BOND
     1    16    17    1
     2    17    15    1
     3    15     1    1
     4     1     2    2
     5     2     3    1
     6     3     4   ar
     7     4     5   ar
     8     5     6   ar
     9     6     9    1
    10     9    10   ar
    11    10    11   ar
    12    11    12   ar
    13    12    13   ar
    14    13    14   ar
    15     6     7   ar
    16     7     8   ar
    17    17    18    1
    18    18    19    1
    19    19    20   ar
    20    20    21   ar
    21    21    22   ar
    22    22    23   ar
    23    23    24   ar
    24    24    25   ar
    25    25    26   ar
    26    26    27   ar
    27     8     3   ar
    28    27    19   ar
    29    14     9   ar
    30    27    22   ar
