@<TRIPOS>MOLECULE
*****
 31 32 0 0 0
SMALL
GASTEIGER

@<TRIPOS>ATOM
      1 C          -5.6467  -18.1602   22.5300 C.2     1  UNL1        0.0707
      2 C          -4.2741  -17.7929   23.0105 C.2     1  UNL1        0.0283
      3 C          -3.0741  -18.5196   22.4793 C.3     1  UNL1        0.0470
      4 N          -4.1013  -16.6990   24.0222 N.pl3   1  UNL1       -0.3192
      5 C          -5.3012  -15.9723   24.5534 C.2     1  UNL1        0.0283
      6 C          -5.1284  -14.8784   25.5650 C.3     1  UNL1        0.0470
      7 C          -6.6738  -16.3396   24.0729 C.2     1  UNL1        0.0707
      8 C          -6.8466  -17.4335   23.0612 C.3     1  UNL1        0.0814
      9 H          -3.2004  -16.4579   24.3375 H       1  UNL1        0.1516
     10 C          -8.2194  -17.8008   22.5808 C.ar    1  UNL1       -0.0077
     11 C          -8.8282  -19.1119   22.9810 C.ar    1  UNL1       -0.0032
     12 C         -10.2009  -19.4792   22.5006 C.ar    1  UNL1        0.0060
     13 C         -10.9648  -18.5353   21.6199 C.ar    1  UNL1        0.0752
     14 C         -10.3559  -17.2241   21.2197 C.ar    1  UNL1        0.2898
     15 C          -8.9832  -16.8569   21.7001 C.ar    1  UNL1        0.0716
     16 N         -11.1198  -16.2803   20.3390 N.pl3   1  UNL1        0.0809
     17 O         -12.6061  -16.4239   20.1967 O.2     1  UNL1        0.0415
     18 O         -10.3973  -15.1928   19.6006 O.co2   1  UNL1       -0.5760
     19 C          -5.8195  -19.2541   21.5184 C.2     1  UNL1        0.3388
     20 O          -6.2287  -20.6275   21.9613 O.2     1  UNL1       -0.2452
     21 O          -5.5832  -18.9746   20.0637 O.3     1  UNL1       -0.4429
     22 C          -4.2567  -19.2996   19.4434 C.3     1  UNL1        0.2407
     23 C          -3.3240  -18.1943   19.0451 C.3     1  UNL1        0.1895
     24 C          -0.7937  -17.9476   19.5805 C.3     1  UNL1        0.1743
     25 O          -1.8919  -18.5014   18.7218 O.3     1  UNL1       -0.3471
     26 C          -7.8738  -15.6129   24.6041 C.2     1  UNL1        0.3386
     27 O          -8.3169  -14.3299   23.9659 O.2     1  UNL1       -0.2452
     28 O          -8.6306  -16.1694   25.7736 O.3     1  UNL1       -0.4494
     29 C          -8.1879  -15.8548   27.1718 C.3     1  UNL1        0.1694
     30 C          -8.7862  -14.6903   27.9038 C.3     1  UNL1        0.0473
     31 C          -7.1467  -16.7047   27.8379 C.3     1  UNL1        0.0473
@<TRIPOS>UNITY_ATOM_ATTR
16 1
charge 1
18 1
charge -1
@<TRIPOS>BOND
     1    24    25    1
     2    25    23    1
     3    23    22    1
     4    22    21    1
     5    21    19    1
     6    19    20    2
     7    19     1    1
     8     1     2    2
     9     2     3    1
    10     2     4    1
    11     4     5    1
    12     5     6    1
    13     5     7    2
    14     7    26    1
    15    26    27    2
    16    26    28    1
    17    28    29    1
    18    29    30    1
    19    29    31    1
    20     7     8    1
    21     8    10    1
    22    10    11   ar
    23    11    12   ar
    24    12    13   ar
    25    13    14   ar
    26    14    16    1
    27    16    17    2
    28    16    18    1
    29    14    15   ar
    30     8     1    1
    31    15    10   ar
    32     4     9    1
@<TRIPOS>MOLECULE
*****
 31 32 0 0 0
SMALL
GASTEIGER

@<TRIPOS>ATOM
      1 C          -6.0760  -18.5792   22.0679 C.2     1  UNL1        0.0707
      2 C          -4.6248  -18.3084   22.3333 C.2     1  UNL1        0.0283
      3 C          -3.5716  -19.1350   21.6566 C.3     1  UNL1        0.0470
      4 N          -4.2266  -17.2111   23.2753 N.pl3   1  UNL1       -0.3192
      5 C          -5.2796  -16.3846   23.9519 C.2     1  UNL1        0.0283
      6 C          -4.8814  -15.2873   24.8939 C.3     1  UNL1        0.0470
      7 C          -6.7309  -16.6553   23.6865 C.2     1  UNL1        0.0707
      8 C          -7.1291  -17.7526   22.7445 C.3     1  UNL1        0.0814
      9 H          -3.2740  -17.0334   23.4495 H       1  UNL1        0.1516
     10 C          -8.5805  -18.0234   22.4791 C.ar    1  UNL1       -0.0077
     11 C          -9.2549  -19.1970   23.1255 C.ar    1  UNL1       -0.0032
     12 C         -10.7061  -19.4678   22.8602 C.ar    1  UNL1        0.0060
     13 C         -11.4831  -18.5649   21.9484 C.ar    1  UNL1        0.0752
     14 C         -10.8087  -17.3913   21.3020 C.ar    1  UNL1        0.2898
     15 C          -9.3573  -17.1205   21.5674 C.ar    1  UNL1        0.0716
     16 N         -11.5855  -16.4884   20.3903 N.pl3   1  UNL1        0.0809
     17 O         -10.8640  -15.6074   19.4139 O.2     1  UNL1        0.0415
     18 O         -13.0840  -16.4665   20.4549 O.co2   1  UNL1       -0.5760
     19 C          -6.4742  -19.6765   21.1259 C.2     1  UNL1        0.3388
     20 O          -6.5824  -21.0880   21.6216 O.2     1  UNL1       -0.2452
     21 O          -6.7643  -19.3622   19.6882 O.3     1  UNL1       -0.4429
     22 C          -8.1829  -19.3090   19.2035 C.3     1  UNL1        0.2407
     23 C          -8.9680  -20.5768   19.0412 C.3     1  UNL1        0.1895
     24 C          -9.3064  -21.4346   16.6123 C.3     1  UNL1        0.1743
     25 O          -8.6218  -21.5380   17.9429 O.3     1  UNL1       -0.3471
     26 C          -7.7841  -15.8288   24.3631 C.2     1  UNL1        0.3386
     27 O          -8.1700  -14.4950   23.7958 O.2     1  UNL1       -0.2452
     28 O          -8.4512  -16.3361   25.6071 O.3     1  UNL1       -0.4494
     29 C          -7.9696  -15.8845   26.9540 C.3     1  UNL1        0.1694
     30 C          -6.7364  -16.4935   27.5525 C.3     1  UNL1        0.0473
     31 C          -8.7213  -14.8238   27.7024 C.3     1  UNL1        0.0473
@<TRIPOS>UNITY_ATOM_ATTR
16 1
charge 1
18 1
charge -1
@<TRIPOS>BOND
     1    24    25    1
     2    25    23    1
     3    23    22    1
     4    22    21    1
     5    21    19    1
     6    19    20    2
     7    19     1    1
     8     1     2    2
     9     2     3    1
    10     2     4    1
    11     4     5    1
    12     5     6    1
    13     5     7    2
    14     7    26    1
    15    26    27    2
    16    26    28    1
    17    28    29    1
    18    29    30    1
    19    29    31    1
    20     7     8    1
    21     8    10    1
    22    10    11   ar
    23    11    12   ar
    24    12    13   ar
    25    13    14   ar
    26    14    16    1
    27    16    17    2
    28    16    18    1
    29    14    15   ar
    30     8     1    1
    31    15    10   ar
    32     4     9    1
@<TRIPOS>MOLECULE
*****
 31 32 0 0 0
SMALL
GASTEIGER

@<TRIPOS>ATOM
      1 C          -6.4580  -18.9169   21.4820 C.2     1  UNL1        0.0707
      2 C          -6.4063  -19.9538   20.3994 C.2     1  UNL1        0.0283
      3 C          -5.1448  -20.7305   20.1644 C.3     1  UNL1        0.0470
      4 N          -7.6161  -20.2139   19.5516 N.pl3   1  UNL1       -0.3192
      5 C          -8.8777  -19.4372   19.7865 C.2     1  UNL1        0.0283
      6 C         -10.0875  -19.6973   18.9387 C.3     1  UNL1        0.0470
      7 C          -8.9294  -18.4003   20.8691 C.2     1  UNL1        0.0707
      8 C          -7.7196  -18.1402   21.7169 C.3     1  UNL1        0.0814
      9 H          -7.5822  -20.8945   18.8410 H       1  UNL1        0.1516
     10 C          -7.7713  -17.1032   22.7996 C.ar    1  UNL1       -0.0077
     11 C          -7.3902  -15.6842   22.4978 C.ar    1  UNL1       -0.0032
     12 C          -7.4419  -14.6473   23.5804 C.ar    1  UNL1        0.0060
     13 C          -7.8748  -15.0294   24.9649 C.ar    1  UNL1        0.0752
     14 C          -8.2560  -16.4484   25.2667 C.ar    1  UNL1        0.2898
     15 C          -8.2042  -17.4853   24.1840 C.ar    1  UNL1        0.0716
     16 N          -8.6889  -16.8305   26.6510 N.pl3   1  UNL1        0.0809
     17 O          -8.4590  -15.8886   27.7956 O.2     1  UNL1        0.0415
     18 O          -9.3517  -18.1545   26.8909 O.co2   1  UNL1       -0.5760
     19 C          -5.2482  -18.6567   22.3297 C.2     1  UNL1        0.3388
     20 O          -4.6058  -19.7820   23.0853 O.2     1  UNL1       -0.2452
     21 O          -4.6808  -17.2713   22.4219 O.3     1  UNL1       -0.4429
     22 C          -3.2538  -17.0714   22.8386 C.3     1  UNL1        0.2407
     23 C          -2.2542  -16.5345   21.8575 C.3     1  UNL1        0.1895
     24 C          -2.4213  -18.0689   19.7676 C.3     1  UNL1        0.1743
     25 O          -2.4836  -16.7032   20.3848 O.3     1  UNL1       -0.3471
     26 C         -10.1909  -17.6235   21.1041 C.2     1  UNL1        0.3386
     27 O         -10.2586  -16.1723   20.7310 O.2     1  UNL1       -0.2452
     28 O         -11.3848  -18.2981   21.7121 O.3     1  UNL1       -0.4494
     29 C         -11.2587  -18.9992   23.0321 C.3     1  UNL1        0.1694
     30 C         -10.4910  -20.2842   23.1285 C.3     1  UNL1        0.0473
     31 C         -11.9004  -18.4153   24.2558 C.3     1  UNL1        0.0473
@<TRIPOS>UNITY_ATOM_ATTR
16 1
charge 1
18 1
charge -1
@<TRIPOS>BOND
     1    24    25    1
     2    25    23    1
     3    23    22    1
     4    22    21    1
     5    21    19    1
     6    19    20    2
     7    19     1    1
     8     1     2    2
     9     2     3    1
    10     2     4    1
    11     4     5    1
    12     5     6    1
    13     5     7    2
    14     7    26    1
    15    26    27    2
    16    26    28    1
    17    28    29    1
    18    29    30    1
    19    29    31    1
    20     7     8    1
    21     8    10    1
    22    10    11   ar
    23    11    12   ar
    24    12    13   ar
    25    13    14   ar
    26    14    16    1
    27    16    17    2
    28    16    18    1
    29    14    15   ar
    30     8     1    1
    31    15    10   ar
    32     4     9    1
@<TRIPOS>MOLECULE
*****
 31 32 0 0 0
SMALL
GASTEIGER

@<TRIPOS>ATOM
      1 C          -6.9789  -16.7199   23.4574 C.2     1  UNL1        0.0707
      2 C          -5.5195  -16.6063   23.7845 C.2     1  UNL1        0.0283
      3 C          -5.0514  -15.5884   24.7819 C.3     1  UNL1        0.0470
      4 N          -4.5280  -17.5106   23.1141 N.pl3   1  UNL1       -0.3192
      5 C          -4.9960  -18.5284   22.1167 C.2     1  UNL1        0.0283
      6 C          -4.0045  -19.4327   21.4464 C.3     1  UNL1        0.0470
      7 C          -6.4555  -18.6421   21.7897 C.2     1  UNL1        0.0707
      8 C          -7.4469  -17.7378   22.4600 C.3     1  UNL1        0.0814
      9 H          -3.5701  -17.4360   23.3288 H       1  UNL1        0.1516
     10 C          -8.9065  -17.8515   22.1329 C.ar    1  UNL1       -0.0077
     11 C          -9.7245  -18.9589   22.7283 C.ar    1  UNL1       -0.0032
     12 C         -11.1839  -19.0726   22.4013 C.ar    1  UNL1        0.0060
     13 C         -11.8254  -18.0789   21.4787 C.ar    1  UNL1        0.0752
     14 C         -11.0074  -16.9715   20.8832 C.ar    1  UNL1        0.2898
     15 C          -9.5479  -16.8578   21.2104 C.ar    1  UNL1        0.0716
     16 N         -11.6489  -15.9778   19.9607 N.pl3   1  UNL1        0.0809
     17 O         -10.7972  -15.1231   19.0697 O.2     1  UNL1        0.0415
     18 O         -13.1421  -15.8389   19.9292 O.co2   1  UNL1       -0.5760
     19 C          -7.9704  -15.8157   24.1277 C.2     1  UNL1        0.3388
     20 O          -7.7619  -14.3304   24.1108 O.2     1  UNL1       -0.2452
     21 O          -9.1704  -16.3968   24.8149 O.3     1  UNL1       -0.4429
     22 C          -8.9913  -17.3313   25.9744 C.3     1  UNL1        0.2407
     23 C          -8.4767  -16.8116   27.2841 C.3     1  UNL1        0.1895
     24 C          -6.9267  -14.7573   27.6408 C.3     1  UNL1        0.1743
     25 O          -8.3022  -15.3360   27.4889 O.3     1  UNL1       -0.3471
     26 C          -6.9235  -19.6600   20.7922 C.2     1  UNL1        0.3386
     27 O          -6.7234  -21.1218   21.0622 O.2     1  UNL1       -0.2452
     28 O          -7.5917  -19.2160   19.5248 O.3     1  UNL1       -0.4494
     29 C          -8.6480  -20.0738   18.8936 C.3     1  UNL1        0.1694
     30 C         -10.0921  -19.6804   18.9931 C.3     1  UNL1        0.0473
     31 C          -8.2602  -21.3250   18.1627 C.3     1  UNL1        0.0473
@<TRIPOS>UNITY_ATOM_ATTR
16 1
charge 1
18 1
charge -1
@<TRIPOS>BOND
     1    24    25    1
     2    25    23    1
     3    23    22    1
     4    22    21    1
     5    21    19    1
     6    19    20    2
     7    19     1    1
     8     1     2    2
     9     2     3    1
    10     2     4    1
    11     4     5    1
    12     5     6    1
    13     5     7    2
    14     7    26    1
    15    26    27    2
    16    26    28    1
    17    28    29    1
    18    29    30    1
    19    29    31    1
    20     7     8    1
    21     8    10    1
    22    10    11   ar
    23    11    12   ar
    24    12    13   ar
    25    13    14   ar
    26    14    16    1
    27    16    17    2
    28    16    18    1
    29    14    15   ar
    30     8     1    1
    31    15    10   ar
    32     4     9    1
@<TRIPOS>MOLECULE
*****
 31 32 0 0 0
SMALL
GASTEIGER

@<TRIPOS>ATOM
      1 C          -9.0768  -17.8627   21.3182 C.2     1  UNL1        0.0707
      2 C          -9.4558  -18.8150   20.2231 C.2     1  UNL1        0.0283
      3 C         -10.8244  -18.7496   19.6125 C.3     1  UNL1        0.0470
      4 N          -8.4662  -19.8328   19.7384 N.pl3   1  UNL1       -0.3192
      5 C          -7.0977  -19.8982   20.3489 C.2     1  UNL1        0.0283
      6 C          -6.1081  -20.9160   19.8642 C.3     1  UNL1        0.0470
      7 C          -6.7187  -18.9459   21.4440 C.2     1  UNL1        0.0707
      8 C          -7.7082  -17.9281   21.9287 C.3     1  UNL1        0.0814
      9 H          -8.7150  -20.4579   19.0196 H       1  UNL1        0.1516
     10 C          -7.3292  -16.9757   23.0238 C.ar    1  UNL1       -0.0077
     11 C          -6.2367  -15.9725   22.8005 C.ar    1  UNL1       -0.0032
     12 C          -5.8576  -15.0201   23.8956 C.ar    1  UNL1        0.0060
     13 C          -6.5711  -15.0710   25.2141 C.ar    1  UNL1        0.0752
     14 C          -7.6636  -16.0742   25.4375 C.ar    1  UNL1        0.2898
     15 C          -8.0426  -17.0266   24.3423 C.ar    1  UNL1        0.0716
     16 N          -8.3770  -16.1251   26.7559 N.pl3   1  UNL1        0.0809
     17 O          -8.9745  -17.4145   27.2361 O.2     1  UNL1        0.0415
     18 O          -8.4930  -14.8867   27.5942 O.co2   1  UNL1       -0.5760
     19 C         -10.0664  -16.8449   21.8028 C.2     1  UNL1        0.3388
     20 O         -10.2061  -15.5343   21.0867 O.2     1  UNL1       -0.2452
     21 O         -10.9162  -17.1376   23.0036 O.3     1  UNL1       -0.4429
     22 C         -11.3061  -18.5511   23.3200 C.3     1  UNL1        0.2407
     23 C         -11.1490  -19.0780   24.7157 C.3     1  UNL1        0.1895
     24 C          -9.1953  -20.6137   23.9576 C.3     1  UNL1        0.1743
     25 O          -9.9935  -19.9727   25.0539 O.3     1  UNL1       -0.3471
     26 C          -5.3501  -19.0113   22.0545 C.2     1  UNL1        0.3386
     27 O          -5.0644  -19.9933   23.1518 O.2     1  UNL1       -0.2452
     28 O          -4.2671  -18.0946   21.5678 O.3     1  UNL1       -0.4494
     29 C          -3.1637  -18.6295   20.7039 C.3     1  UNL1        0.1694
     30 C          -3.1060  -18.2655   19.2499 C.3     1  UNL1        0.0473
     31 C          -2.1180  -19.5286   21.2941 C.3     1  UNL1        0.0473
@<TRIPOS>UNITY_ATOM_ATTR
16 1
charge 1
18 1
charge -1
@<TRIPOS>BOND
     1    24    25    1
     2    25    23    1
     3    23    22    1
     4    22    21    1
     5    21    19    1
     6    19    20    2
     7    19     1    1
     8     1     2    2
     9     2     3    1
    10     2     4    1
    11     4     5    1
    12     5     6    1
    13     5     7    2
    14     7    26    1
    15    26    27    2
    16    26    28    1
    17    28    29    1
    18    29    30    1
    19    29    31    1
    20     7     8    1
    21     8    10    1
    22    10    11   ar
    23    11    12   ar
    24    12    13   ar
    25    13    14   ar
    26    14    16    1
    27    16    17    2
    28    16    18    1
    29    14    15   ar
    30     8     1    1
    31    15    10   ar
    32     4     9    1
@<TRIPOS>MOLECULE
*****
 31 32 0 0 0
SMALL
GASTEIGER

@<TRIPOS>ATOM
      1 C          -8.3278  -18.1725   21.4428 C.2     1  UNL1        0.0707
      2 C          -8.5535  -19.1525   20.3299 C.2     1  UNL1        0.0283
      3 C          -9.9128  -19.2821   19.7089 C.3     1  UNL1        0.0470
      4 N          -7.4201  -20.0029   19.8380 N.pl3   1  UNL1       -0.3192
      5 C          -6.0608  -19.8734   20.4589 C.2     1  UNL1        0.0283
      6 C          -4.9274  -20.7238   19.9670 C.3     1  UNL1        0.0470
      7 C          -5.8351  -18.8933   21.5718 C.2     1  UNL1        0.0707
      8 C          -6.9685  -18.0429   22.0637 C.3     1  UNL1        0.0814
      9 H          -7.5683  -20.6461   19.1075 H       1  UNL1        0.1516
     10 C          -6.7427  -17.0629   23.1767 C.ar    1  UNL1       -0.0077
     11 C          -5.6277  -16.0640   23.0817 C.ar    1  UNL1       -0.0032
     12 C          -5.4018  -15.0840   24.1946 C.ar    1  UNL1        0.0060
     13 C          -6.2910  -15.1028   25.4025 C.ar    1  UNL1        0.0752
     14 C          -7.4060  -16.1016   25.4975 C.ar    1  UNL1        0.2898
     15 C          -7.6319  -17.0817   24.3846 C.ar    1  UNL1        0.0716
     16 N          -8.2952  -16.1205   26.7054 N.pl3   1  UNL1        0.0809
     17 O          -8.9933  -17.3871   27.1031 O.2     1  UNL1        0.0415
     18 O          -8.4862  -14.8726   27.5155 O.co2   1  UNL1       -0.5760
     19 C          -9.4612  -17.3220   21.9347 C.2     1  UNL1        0.3388
     20 O          -9.4970  -15.8583   21.6089 O.2     1  UNL1       -0.2452
     21 O         -10.5590  -17.9353   22.7525 O.3     1  UNL1       -0.4429
     22 C         -11.9589  -17.4075   22.6448 C.3     1  UNL1        0.2407
     23 C         -12.7087  -17.5288   21.3513 C.3     1  UNL1        0.1895
     24 C         -11.8555  -15.9325   19.4874 C.3     1  UNL1        0.1743
     25 O         -12.9073  -16.3215   20.4835 O.3     1  UNL1       -0.3471
     26 C          -4.4758  -18.7637   22.1928 C.2     1  UNL1        0.3386
     27 O          -4.0872  -19.6500   23.3389 O.2     1  UNL1       -0.2452
     28 O          -3.5051  -17.7478   21.6677 O.3     1  UNL1       -0.4494
     29 C          -2.5835  -18.1042   20.5392 C.3     1  UNL1        0.1694
     30 C          -1.3985  -18.9892   20.7896 C.3     1  UNL1        0.0473
     31 C          -2.8469  -17.5757   19.1603 C.3     1  UNL1        0.0473
@<TRIPOS>UNITY_ATOM_ATTR
16 1
charge 1
18 1
charge -1
@<TRIPOS>BOND
     1    24    25    1
     2    25    23    1
     3    23    22    1
     4    22    21    1
     5    21    19    1
     6    19    20    2
     7    19     1    1
     8     1     2    2
     9     2     3    1
    10     2     4    1
    11     4     5    1
    12     5     6    1
    13     5     7    2
    14     7    26    1
    15    26    27    2
    16    26    28    1
    17    28    29    1
    18    29    30    1
    19    29    31    1
    20     7     8    1
    21     8    10    1
    22    10    11   ar
    23    11    12   ar
    24    12    13   ar
    25    13    14   ar
    26    14    16    1
    27    16    17    2
    28    16    18    1
    29    14    15   ar
    30     8     1    1
    31    15    10   ar
    32     4     9    1
@<TRIPOS>MOLECULE
*****
 31 32 0 0 0
SMALL
GASTEIGER

@<TRIPOS>ATOM
      1 C          -7.4665  -16.7266   24.3407 C.2     1  UNL1        0.0707
      2 C          -6.2918  -15.9371   24.8374 C.2     1  UNL1        0.0283
      3 C          -6.4861  -14.8835   25.8872 C.3     1  UNL1        0.0470
      4 N          -4.9227  -16.2013   24.2843 N.pl3   1  UNL1       -0.3192
      5 C          -4.7283  -17.2549   23.2346 C.2     1  UNL1        0.0283
      6 C          -3.3592  -17.5190   22.6815 C.3     1  UNL1        0.0470
      7 C          -5.9030  -18.0443   22.7378 C.2     1  UNL1        0.0707
      8 C          -7.2721  -17.7802   23.2909 C.3     1  UNL1        0.0814
      9 H          -4.1517  -15.6831   24.6104 H       1  UNL1        0.1516
     10 C          -8.4468  -18.5697   22.7941 C.ar    1  UNL1       -0.0077
     11 C          -9.0525  -19.6365   23.6572 C.ar    1  UNL1       -0.0032
     12 C         -10.2272  -20.4260   23.1605 C.ar    1  UNL1        0.0060
     13 C         -10.7962  -20.1487   21.8005 C.ar    1  UNL1        0.0752
     14 C         -10.1906  -19.0818   20.9374 C.ar    1  UNL1        0.2898
     15 C          -9.0158  -18.2923   21.4342 C.ar    1  UNL1        0.0716
     16 N         -10.7595  -18.8045   19.5775 N.pl3   1  UNL1        0.0809
     17 O         -10.4655  -19.7341   18.4376 O.2     1  UNL1        0.0415
     18 O         -11.6225  -17.5975   19.3575 O.co2   1  UNL1       -0.5760
     19 C          -8.8355  -16.4624   24.8937 C.2     1  UNL1        0.3388
     20 O          -9.3089  -17.2023   26.1096 O.2     1  UNL1       -0.2452
     21 O          -9.7313  -15.4583   24.2309 O.3     1  UNL1       -0.4429
     22 C         -10.3836  -15.7851   22.9203 C.3     1  UNL1        0.2407
     23 C         -11.7949  -16.2927   22.8909 C.3     1  UNL1        0.1895
     24 C         -13.5846  -17.9754   23.7366 C.3     1  UNL1        0.1743
     25 O         -12.1477  -17.5686   23.5963 O.3     1  UNL1       -0.3471
     26 C          -5.7087  -19.0980   21.6880 C.2     1  UNL1        0.3386
     27 O          -5.8800  -20.5464   22.0383 O.2     1  UNL1       -0.2452
     28 O          -5.3430  -18.7032   20.2878 O.3     1  UNL1       -0.4494
     29 C          -4.0394  -19.1530   19.6979 C.3     1  UNL1        0.1694
     30 C          -3.6687  -20.6063   19.7182 C.3     1  UNL1        0.0473
     31 C          -3.1062  -18.1495   19.0878 C.3     1  UNL1        0.0473
@<TRIPOS>UNITY_ATOM_ATTR
16 1
charge 1
18 1
charge -1
@<TRIPOS>BOND
     1    24    25    1
     2    25    23    1
     3    23    22    1
     4    22    21    1
     5    21    19    1
     6    19    20    2
     7    19     1    1
     8     1     2    2
     9     2     3    1
    10     2     4    1
    11     4     5    1
    12     5     6    1
    13     5     7    2
    14     7    26    1
    15    26    27    2
    16    26    28    1
    17    28    29    1
    18    29    30    1
    19    29    31    1
    20     7     8    1
    21     8    10    1
    22    10    11   ar
    23    11    12   ar
    24    12    13   ar
    25    13    14   ar
    26    14    16    1
    27    16    17    2
    28    16    18    1
    29    14    15   ar
    30     8     1    1
    31    15    10   ar
    32     4     9    1
@<TRIPOS>MOLECULE
*****
 31 32 0 0 0
SMALL
GASTEIGER

@<TRIPOS>ATOM
      1 C          -6.9060  -16.4673   23.9574 C.2     1  UNL1        0.0707
      2 C          -5.5637  -16.1259   24.5330 C.2     1  UNL1        0.0283
      3 C          -5.4493  -15.0753   25.5977 C.3     1  UNL1        0.0470
      4 N          -4.3356  -16.8349   24.0440 N.pl3   1  UNL1       -0.3192
      5 C          -4.4499  -17.8854   22.9795 C.2     1  UNL1        0.0283
      6 C          -3.2218  -18.5945   22.4905 C.3     1  UNL1        0.0470
      7 C          -5.7923  -18.2268   22.4039 C.2     1  UNL1        0.0707
      8 C          -7.0204  -17.5178   22.8928 C.3     1  UNL1        0.0814
      9 H          -3.4545  -16.6108   24.4219 H       1  UNL1        0.1516
     10 C          -8.3628  -17.8593   22.3172 C.ar    1  UNL1       -0.0077
     11 C          -8.9628  -19.2117   22.5643 C.ar    1  UNL1       -0.0032
     12 C         -10.3051  -19.5532   21.9886 C.ar    1  UNL1        0.0060
     13 C         -11.0476  -18.5422   21.1659 C.ar    1  UNL1        0.0752
     14 C         -10.4477  -17.1898   20.9188 C.ar    1  UNL1        0.2898
     15 C          -9.1052  -16.8483   21.4945 C.ar    1  UNL1        0.0716
     16 N         -11.1901  -16.1789   20.0961 N.pl3   1  UNL1        0.0809
     17 O         -12.6847  -16.2499   19.9902 O.2     1  UNL1        0.0415
     18 O         -10.4379  -15.0971   19.3794 O.co2   1  UNL1       -0.5760
     19 C          -8.1341  -15.7582   24.4464 C.2     1  UNL1        0.3388
     20 O          -8.2710  -14.2768   24.2552 O.2     1  UNL1       -0.2452
     21 O          -9.2253  -16.5306   25.1265 O.3     1  UNL1       -0.4429
     22 C          -8.9587  -17.2097   26.4371 C.3     1  UNL1        0.2407
     23 C          -8.2894  -16.4576   27.5491 C.3     1  UNL1        0.1895
     24 C          -7.3183  -14.1414   28.2143 C.3     1  UNL1        0.1743
     25 O          -8.4299  -14.9667   27.6369 O.3     1  UNL1       -0.3471
     26 C          -5.9067  -19.2774   21.3392 C.2     1  UNL1        0.3386
     27 O          -6.3779  -20.6565   21.6940 O.2     1  UNL1       -0.2452
     28 O          -5.5498  -18.9487   19.9199 O.3     1  UNL1       -0.4494
     29 C          -4.1474  -19.1590   19.4312 C.3     1  UNL1        0.1694
     30 C          -3.5454  -20.5328   19.4478 C.3     1  UNL1        0.0473
     31 C          -3.3468  -17.9954   18.9258 C.3     1  UNL1        0.0473
@<TRIPOS>UNITY_ATOM_ATTR
16 1
charge 1
18 1
charge -1
@<TRIPOS>BOND
     1    24    25    1
     2    25    23    1
     3    23    22    1
     4    22    21    1
     5    21    19    1
     6    19    20    2
     7    19     1    1
     8     1     2    2
     9     2     3    1
    10     2     4    1
    11     4     5    1
    12     5     6    1
    13     5     7    2
    14     7    26    1
    15    26    27    2
    16    26    28    1
    17    28    29    1
    18    29    30    1
    19    29    31    1
    20     7     8    1
    21     8    10    1
    22    10    11   ar
    23    11    12   ar
    24    12    13   ar
    25    13    14   ar
    26    14    16    1
    27    16    17    2
    28    16    18    1
    29    14    15   ar
    30     8     1    1
    31    15    10   ar
    32     4     9    1
@<TRIPOS>MOLECULE
*****
 31 32 0 0 0
SMALL
GASTEIGER

@<TRIPOS>ATOM
      1 C          -6.2513  -16.8512   23.4189 C.2     1  UNL1        0.0707
      2 C          -6.9281  -15.7478   24.1769 C.2     1  UNL1        0.0283
      3 C          -6.1263  -14.8540   25.0760 C.3     1  UNL1        0.0470
      4 N          -8.4067  -15.5383   24.0358 N.pl3   1  UNL1       -0.3192
      5 C          -9.2085  -16.4320   23.1368 C.2     1  UNL1        0.0283
      6 C         -10.6870  -16.2225   22.9957 C.3     1  UNL1        0.0470
      7 C          -8.5316  -17.5353   22.3788 C.2     1  UNL1        0.0707
      8 C          -7.0531  -17.7449   22.5198 C.3     1  UNL1        0.0814
      9 H          -8.8509  -14.8141   24.5333 H       1  UNL1        0.1516
     10 C          -6.3763  -18.8483   21.7618 C.ar    1  UNL1       -0.0077
     11 C          -7.1234  -20.1106   21.4480 C.ar    1  UNL1       -0.0032
     12 C          -6.4467  -21.2139   20.6900 C.ar    1  UNL1        0.0060
     13 C          -5.0227  -21.0550   20.2457 C.ar    1  UNL1        0.0752
     14 C          -4.2756  -19.7928   20.5595 C.ar    1  UNL1        0.2898
     15 C          -4.9524  -18.6894   21.3176 C.ar    1  UNL1        0.0716
     16 N          -2.8518  -19.6338   20.1153 N.pl3   1  UNL1        0.0809
     17 O          -1.7335  -20.0949   21.0023 O.2     1  UNL1        0.0415
     18 O          -2.5463  -19.0139   18.7841 O.co2   1  UNL1       -0.5760
     19 C          -4.7727  -17.0607   23.5599 C.2     1  UNL1        0.3388
     20 O          -4.2494  -18.0977   24.5090 O.2     1  UNL1       -0.2452
     21 O          -3.8175  -16.2333   22.7520 O.3     1  UNL1       -0.4429
     22 C          -2.4708  -16.7843   22.3874 C.3     1  UNL1        0.2407
     23 C          -1.5986  -16.0496   21.4129 C.3     1  UNL1        0.1895
     24 C           0.2526  -17.3925   20.1803 C.3     1  UNL1        0.1743
     25 O          -1.1002  -16.7446   20.1806 O.3     1  UNL1       -0.3471
     26 C          -9.3334  -18.4292   21.4797 C.2     1  UNL1        0.3386
     27 O          -9.1824  -18.3258   19.9909 O.2     1  UNL1       -0.2452
     28 O         -10.2862  -19.4263   22.0694 O.3     1  UNL1       -0.4494
     29 C         -10.1919  -19.7851   23.5228 C.3     1  UNL1        0.1694
     30 C          -9.1197  -20.7211   23.9962 C.3     1  UNL1        0.0473
     31 C         -11.1699  -19.2078   24.5028 C.3     1  UNL1        0.0473
@<TRIPOS>UNITY_ATOM_ATTR
16 1
charge 1
18 1
charge -1
@<TRIPOS>BOND
     1    24    25    1
     2    25    23    1
     3    23    22    1
     4    22    21    1
     5    21    19    1
     6    19    20    2
     7    19     1    1
     8     1     2    2
     9     2     3    1
    10     2     4    1
    11     4     5    1
    12     5     6    1
    13     5     7    2
    14     7    26    1
    15    26    27    2
    16    26    28    1
    17    28    29    1
    18    29    30    1
    19    29    31    1
    20     7     8    1
    21     8    10    1
    22    10    11   ar
    23    11    12   ar
    24    12    13   ar
    25    13    14   ar
    26    14    16    1
    27    16    17    2
    28    16    18    1
    29    14    15   ar
    30     8     1    1
    31    15    10   ar
    32     4     9    1
