@<TRIPOS>MOLECULE
*****
 30 33 0 0 0
SMALL
GASTEIGER

@<TRIPOS>ATOM
      1 C         -11.3978  -16.4857   21.7130 C.ar    1  UNL1        0.1737
      2 C         -12.7509  -16.2877   22.3291 C.ar    1  UNL1        0.0401
      3 C         -13.2289  -17.2181   23.4043 C.ar    1  UNL1        0.0046
      4 C         -12.3537  -18.3465   23.8633 C.ar    1  UNL1        0.0217
      5 C         -11.0005  -18.5445   23.2471 C.ar    1  UNL1        0.1426
      6 C         -10.5225  -17.6141   22.1720 C.ar    1  UNL1        0.1895
      7 O          -9.1693  -17.8121   21.5559 O.3     1  UNL1       -0.4686
      8 C          -8.2941  -18.9405   22.0149 C.3     1  UNL1        0.2104
      9 C          -8.7721  -19.8709   23.0900 C.3     1  UNL1        0.1779
     10 C          -7.8968  -20.9993   23.5490 C.3     1  UNL1        0.0300
     11 S         -10.1252  -19.6729   23.7062 S.O2    1  UNL1        0.0138
     12 O         -11.3184  -19.8934   24.5881 O.2     1  UNL1       -0.1685
     13 O          -9.6644  -20.8779   24.4715 O.2     1  UNL1       -0.1685
     14 C          -6.9408  -19.1386   21.3987 C.ar    1  UNL1        0.0191
     15 C          -6.7369  -18.8755   19.9361 C.ar    1  UNL1        0.0023
     16 C          -5.3838  -19.0735   19.3200 C.ar    1  UNL1        0.0367
     17 C          -4.2345  -19.5346   20.1664 C.ar    1  UNL1        0.1385
     18 C          -4.4384  -19.7977   21.6290 C.ar    1  UNL1        0.0367
     19 C          -5.7916  -19.5997   22.2452 C.ar    1  UNL1        0.0023
     20 O          -2.8813  -19.7327   19.5503 O.3     1  UNL1       -0.4754
     21 C          -2.1152  -18.5536   19.0279 C.3     1  UNL1        0.2068
     22 C          -1.0049  -17.9597   19.8430 C.3     1  UNL1        0.0646
     23 C          -1.2710  -16.7729   20.7209 C.3     1  UNL1        0.0759
     24 N          -2.1934  -16.9016   21.8967 N.3     1  UNL1       -0.2726
     25 C          -3.3302  -15.9814   22.2304 C.3     1  UNL1        0.0721
     26 C          -3.9804  -16.4841   23.4852 C.3     1  UNL1        0.0188
     27 C          -3.2456  -17.7150   23.9270 C.3     1  UNL1        0.0188
     28 C          -2.1412  -17.9730   22.9452 C.3     1  UNL1        0.0721
     29 C         -11.5005  -15.6428   19.2576 C.3     1  UNL1        0.2526
     30 O         -10.9198  -15.5553   20.6378 O.3     1  UNL1       -0.4683
@<TRIPOS>BOND
     1    29    30    1
     2    30     1    1
     3     1     2   ar
     4     2     3   ar
     5     3     4   ar
     6     4     5   ar
     7     5     6   ar
     8     6     7    1
     9     7     8    1
    10     8    14    1
    11    14    15   ar
    12    15    16   ar
    13    16    17   ar
    14    17    20    1
    15    20    21    1
    16    21    22    1
    17    22    23    1
    18    23    24    1
    19    24    25    1
    20    25    26    1
    21    26    27    1
    22    27    28    1
    23    17    18   ar
    24    18    19   ar
    25     8     9    1
    26     9    10    1
    27     9    11    1
    28    11    12    2
    29    11    13    2
    30     6     1   ar
    31    19    14   ar
    32    11     5    1
    33    28    24    1
@<TRIPOS>MOLECULE
*****
 30 33 0 0 0
SMALL
GASTEIGER

@<TRIPOS>ATOM
      1 C          -4.8564    3.6768   20.7906 C.ar    1  UNL1        0.1737
      2 C          -5.9097    4.3489   21.6206 C.ar    1  UNL1        0.0401
      3 C          -5.5856    4.8169   23.0083 C.ar    1  UNL1        0.0046
      4 C          -4.2082    4.6130   23.5661 C.ar    1  UNL1        0.0217
      5 C          -3.1549    3.9409   22.7362 C.ar    1  UNL1        0.1426
      6 C          -3.4790    3.4728   21.3484 C.ar    1  UNL1        0.1895
      7 O          -2.4256    2.8008   20.5184 O.3     1  UNL1       -0.4686
      8 C          -1.0482    2.5968   21.0762 C.3     1  UNL1        0.2104
      9 C          -0.7241    3.0649   22.4640 C.3     1  UNL1        0.1779
     10 C           0.6533    2.8609   23.0218 C.3     1  UNL1        0.0300
     11 S          -1.7774    3.7369   23.2940 S.O2    1  UNL1        0.0138
     12 O          -2.4313    4.4206   24.4581 O.2     1  UNL1       -0.1685
     13 O          -0.6271    3.7704   24.2561 O.2     1  UNL1       -0.1685
     14 C           0.0052    1.9247   20.2463 C.ar    1  UNL1        0.0191
     15 C           0.8251    2.7282   19.2808 C.ar    1  UNL1        0.0023
     16 C           1.8784    2.0562   18.4509 C.ar    1  UNL1        0.0367
     17 C           2.1118    0.5807   18.5864 C.ar    1  UNL1        0.1385
     18 C           1.2919   -0.2228   19.5518 C.ar    1  UNL1        0.0367
     19 C           0.2385    0.4492   20.3818 C.ar    1  UNL1        0.0023
     20 O           3.1652   -0.0913   17.7564 O.3     1  UNL1       -0.4754
     21 C           4.5644    0.4490   17.7391 C.3     1  UNL1        0.2068
     22 C           5.5990   -0.1184   18.6651 C.3     1  UNL1        0.0646
     23 C           5.1794   -0.9655   19.8298 C.3     1  UNL1        0.0759
     24 N           4.8289   -2.4087   19.6198 N.3     1  UNL1       -0.2726
     25 C           5.2159   -3.2471   18.4376 C.3     1  UNL1        0.0721
     26 C           4.6560   -4.6236   18.6423 C.3     1  UNL1        0.0188
     27 C           3.9230   -4.6360   19.9510 C.3     1  UNL1        0.0188
     28 C           4.0299   -3.2671   20.5551 C.3     1  UNL1        0.0721
     29 C          -6.5821    3.3228   18.8810 C.3     1  UNL1        0.2526
     30 O          -5.1805    3.2087   19.4029 O.3     1  UNL1       -0.4683
@<TRIPOS>BOND
     1    29    30    1
     2    30     1    1
     3     1     2   ar
     4     2     3   ar
     5     3     4   ar
     6     4     5   ar
     7     5     6   ar
     8     6     7    1
     9     7     8    1
    10     8    14    1
    11    14    15   ar
    12    15    16   ar
    13    16    17   ar
    14    17    20    1
    15    20    21    1
    16    21    22    1
    17    22    23    1
    18    23    24    1
    19    24    25    1
    20    25    26    1
    21    26    27    1
    22    27    28    1
    23    17    18   ar
    24    18    19   ar
    25     8     9    1
    26     9    10    1
    27     9    11    1
    28    11    12    2
    29    11    13    2
    30     6     1   ar
    31    19    14   ar
    32    11     5    1
    33    28    24    1
@<TRIPOS>MOLECULE
*****
 30 33 0 0 0
SMALL
GASTEIGER

@<TRIPOS>ATOM
      1 C           6.1176   -2.2057   26.3683 C.ar    1  UNL1        0.1737
      2 C           6.2345   -2.8932   25.0402 C.ar    1  UNL1        0.0401
      3 C           6.6074   -4.3447   24.9773 C.ar    1  UNL1        0.0046
      4 C           6.8635   -5.1088   26.2424 C.ar    1  UNL1        0.0217
      5 C           6.7466   -4.4214   27.5704 C.ar    1  UNL1        0.1426
      6 C           6.3737   -2.9698   27.6334 C.ar    1  UNL1        0.1895
      7 O           6.2569   -2.2824   28.9615 O.3     1  UNL1       -0.4686
      8 C           6.5129   -3.0465   30.2266 C.3     1  UNL1        0.2104
      9 C           6.8859   -4.4980   30.1637 C.3     1  UNL1        0.1779
     10 C           7.1419   -5.2621   31.4289 C.3     1  UNL1        0.0300
     11 S           7.0027   -5.1855   28.8357 S.O2    1  UNL1        0.0138
     12 O           7.2367   -6.2690   27.8251 O.2     1  UNL1       -0.1685
     13 O           7.3401   -6.3259   29.7498 O.2     1  UNL1       -0.1685
     14 C           6.3961   -2.3590   31.5547 C.ar    1  UNL1        0.0191
     15 C           7.5763   -1.6338   32.1302 C.ar    1  UNL1        0.0023
     16 C           7.4595   -0.9463   33.4583 C.ar    1  UNL1        0.0367
     17 C           6.1626   -0.9842   34.2108 C.ar    1  UNL1        0.1385
     18 C           4.9824   -1.7094   33.6354 C.ar    1  UNL1        0.0367
     19 C           5.0992   -2.3968   32.3073 C.ar    1  UNL1        0.0023
     20 O           6.0457   -0.2967   35.5390 O.3     1  UNL1       -0.4754
     21 C           4.7016   -0.1380   36.1856 C.3     1  UNL1        0.2068
     22 C           4.4893    0.9240   37.2234 C.3     1  UNL1        0.0646
     23 C           3.3280    1.8660   37.1059 C.3     1  UNL1        0.0759
     24 N           2.1972    1.7888   38.0885 N.3     1  UNL1       -0.2726
     25 C           1.8566    0.6088   38.9497 C.3     1  UNL1        0.0721
     26 C           0.6574    0.9686   39.7758 C.3     1  UNL1        0.0188
     27 C           0.2568    2.3710   39.4252 C.3     1  UNL1        0.0188
     28 C           1.2085    2.8779   38.3823 C.3     1  UNL1        0.0721
     29 C           4.8663   -0.1589   25.3711 C.3     1  UNL1        0.2526
     30 O           5.7447   -0.7542   26.4312 O.3     1  UNL1       -0.4683
@<TRIPOS>BOND
     1    29    30    1
     2    30     1    1
     3     1     2   ar
     4     2     3   ar
     5     3     4   ar
     6     4     5   ar
     7     5     6   ar
     8     6     7    1
     9     7     8    1
    10     8    14    1
    11    14    15   ar
    12    15    16   ar
    13    16    17   ar
    14    17    20    1
    15    20    21    1
    16    21    22    1
    17    22    23    1
    18    23    24    1
    19    24    25    1
    20    25    26    1
    21    26    27    1
    22    27    28    1
    23    17    18   ar
    24    18    19   ar
    25     8     9    1
    26     9    10    1
    27     9    11    1
    28    11    12    2
    29    11    13    2
    30     6     1   ar
    31    19    14   ar
    32    11     5    1
    33    28    24    1
@<TRIPOS>MOLECULE
*****
 30 33 0 0 0
SMALL
GASTEIGER

@<TRIPOS>ATOM
      1 C           7.1340   -6.1539   26.8712 C.ar    1  UNL1        0.1737
      2 C           7.8974   -7.3482   27.3617 C.ar    1  UNL1        0.0401
      3 C           8.8138   -8.0865   26.4315 C.ar    1  UNL1        0.0046
      4 C           8.9667   -7.6304   25.0107 C.ar    1  UNL1        0.0217
      5 C           8.2033   -6.4360   24.5202 C.ar    1  UNL1        0.1426
      6 C           7.2870   -5.6978   25.4504 C.ar    1  UNL1        0.1895
      7 O           6.5236   -4.5033   24.9598 O.3     1  UNL1       -0.4686
      8 C           6.6765   -4.0472   23.5391 C.3     1  UNL1        0.2104
      9 C           7.5928   -4.7855   22.6089 C.3     1  UNL1        0.1779
     10 C           7.7458   -4.3293   21.1881 C.3     1  UNL1        0.0300
     11 S           8.3562   -5.9798   23.0994 S.O2    1  UNL1        0.0138
     12 O           9.2848   -7.1580   23.0961 O.2     1  UNL1       -0.1685
     13 O           8.8316   -5.9329   21.6775 O.2     1  UNL1       -0.1685
     14 C           5.9131   -2.8528   23.0485 C.ar    1  UNL1        0.0191
     15 C           6.6436   -1.5963   22.6777 C.ar    1  UNL1        0.0023
     16 C           5.8803   -0.4019   22.1871 C.ar    1  UNL1        0.0367
     17 C           4.3864   -0.4640   22.0674 C.ar    1  UNL1        0.1385
     18 C           3.6559   -1.7205   22.4382 C.ar    1  UNL1        0.0367
     19 C           4.4192   -2.9149   22.9288 C.ar    1  UNL1        0.0023
     20 O           3.6230    0.7304   21.5768 O.3     1  UNL1       -0.4754
     21 C           2.2067    0.5745   21.1079 C.3     1  UNL1        0.2068
     22 C           1.9050   -0.2568   19.8964 C.3     1  UNL1        0.0646
     23 C           2.8916   -0.3245   18.7685 C.3     1  UNL1        0.0759
     24 N           3.8500   -1.4748   18.6785 N.3     1  UNL1       -0.2726
     25 C           5.2707   -1.4035   18.2023 C.3     1  UNL1        0.0721
     26 C           5.8548   -2.7830   18.2783 C.3     1  UNL1        0.0188
     27 C           4.7952   -3.7069   18.8015 C.3     1  UNL1        0.0188
     28 C           3.5561   -2.8983   19.0489 C.3     1  UNL1        0.0721
     29 C           6.7802   -4.4318   28.7841 C.3     1  UNL1        0.2526
     30 O           6.2177   -5.4156   27.8014 O.3     1  UNL1       -0.4683
@<TRIPOS>BOND
     1    29    30    1
     2    30     1    1
     3     1     2   ar
     4     2     3   ar
     5     3     4   ar
     6     4     5   ar
     7     5     6   ar
     8     6     7    1
     9     7     8    1
    10     8    14    1
    11    14    15   ar
    12    15    16   ar
    13    16    17   ar
    14    17    20    1
    15    20    21    1
    16    21    22    1
    17    22    23    1
    18    23    24    1
    19    24    25    1
    20    25    26    1
    21    26    27    1
    22    27    28    1
    23    17    18   ar
    24    18    19   ar
    25     8     9    1
    26     9    10    1
    27     9    11    1
    28    11    12    2
    29    11    13    2
    30     6     1   ar
    31    19    14   ar
    32    11     5    1
    33    28    24    1
@<TRIPOS>MOLECULE
*****
 30 33 0 0 0
SMALL
GASTEIGER

@<TRIPOS>ATOM
      1 C           4.1179   -1.9068   22.8610 C.ar    1  UNL1        0.1737
      2 C           4.8839   -3.1074   23.3320 C.ar    1  UNL1        0.0401
      3 C           5.6099   -3.9695   22.3423 C.ar    1  UNL1        0.0046
      4 C           5.5699   -3.6311   20.8815 C.ar    1  UNL1        0.0217
      5 C           4.8040   -2.4305   20.4105 C.ar    1  UNL1        0.1426
      6 C           4.0780   -1.5684   21.4003 C.ar    1  UNL1        0.1895
      7 O           3.3119   -0.3678   20.9292 O.3     1  UNL1       -0.4686
      8 C           3.2720   -0.0294   19.4685 C.3     1  UNL1        0.2104
      9 C           3.9980   -0.8915   18.4787 C.3     1  UNL1        0.1779
     10 C           3.9580   -0.5530   17.0179 C.3     1  UNL1        0.0300
     11 S           4.7640   -2.0921   18.9497 S.O2    1  UNL1        0.0138
     12 O           5.6193   -3.3237   18.9084 O.2     1  UNL1       -0.1685
     13 O           5.0210   -2.1814   17.4746 O.2     1  UNL1       -0.1685
     14 C           2.5060    1.1713   18.9974 C.ar    1  UNL1        0.0191
     15 C           3.1961    2.4964   18.8642 C.ar    1  UNL1        0.0023
     16 C           2.4302    3.6969   18.3932 C.ar    1  UNL1        0.0367
     17 C           0.9741    3.5724   18.0554 C.ar    1  UNL1        0.1385
     18 C           0.2839    2.2473   18.1885 C.ar    1  UNL1        0.0367
     19 C           1.0498    1.0467   18.6596 C.ar    1  UNL1        0.0023
     20 O           0.2081    4.7730   17.5843 O.3     1  UNL1       -0.4754
     21 C          -0.7734    4.6418   16.4576 C.3     1  UNL1        0.2068
     22 C          -2.2064    5.0353   16.6616 C.3     1  UNL1        0.0646
     23 C          -3.2624    3.9786   16.7969 C.3     1  UNL1        0.0759
     24 N          -3.9594    3.7787   18.1100 N.3     1  UNL1       -0.2726
     25 C          -5.4352    3.5941   18.3057 C.3     1  UNL1        0.0721
     26 C          -5.6910    3.4295   19.7745 C.3     1  UNL1        0.0188
     27 C          -4.3733    3.5124   20.4867 C.3     1  UNL1        0.0188
     28 C          -3.3032    3.7282   19.4579 C.3     1  UNL1        0.0721
     29 C           3.7854   -1.0698   25.2980 C.3     1  UNL1        0.2526
     30 O           3.3919   -1.0447   23.8508 O.3     1  UNL1       -0.4683
@<TRIPOS>BOND
     1    29    30    1
     2    30     1    1
     3     1     2   ar
     4     2     3   ar
     5     3     4   ar
     6     4     5   ar
     7     5     6   ar
     8     6     7    1
     9     7     8    1
    10     8    14    1
    11    14    15   ar
    12    15    16   ar
    13    16    17   ar
    14    17    20    1
    15    20    21    1
    16    21    22    1
    17    22    23    1
    18    23    24    1
    19    24    25    1
    20    25    26    1
    21    26    27    1
    22    27    28    1
    23    17    18   ar
    24    18    19   ar
    25     8     9    1
    26     9    10    1
    27     9    11    1
    28    11    12    2
    29    11    13    2
    30     6     1   ar
    31    19    14   ar
    32    11     5    1
    33    28    24    1
@<TRIPOS>MOLECULE
*****
 30 33 0 0 0
SMALL
GASTEIGER

@<TRIPOS>ATOM
      1 C          -4.9318    3.6330   20.7314 C.ar    1  UNL1        0.1737
      2 C          -6.0291    4.2343   21.5587 C.ar    1  UNL1        0.0401
      3 C          -5.7525    4.6740   22.9659 C.ar    1  UNL1        0.0046
      4 C          -4.3786    4.5123   23.5458 C.ar    1  UNL1        0.0217
      5 C          -3.2814    3.9110   22.7186 C.ar    1  UNL1        0.1426
      6 C          -3.5580    3.4714   21.3114 C.ar    1  UNL1        0.1895
      7 O          -2.4607    2.8700   20.4841 O.3     1  UNL1       -0.4686
      8 C          -1.0868    2.7084   21.0640 C.3     1  UNL1        0.2104
      9 C          -0.8102    3.1480   22.4712 C.3     1  UNL1        0.1779
     10 C           0.5637    2.9863   23.0511 C.3     1  UNL1        0.0300
     11 S          -1.9075    3.7493   23.2985 S.O2    1  UNL1        0.0138
     12 O          -2.6127    4.3692   24.4683 O.2     1  UNL1       -0.1685
     13 O          -0.7785    3.8029   24.2847 O.2     1  UNL1       -0.1685
     14 C           0.0105    2.1070   20.2367 C.ar    1  UNL1        0.0191
     15 C           0.2114    0.6206   20.2237 C.ar    1  UNL1        0.0023
     16 C           1.3086    0.0193   19.3964 C.ar    1  UNL1        0.0367
     17 C           2.2050    0.9043   18.5822 C.ar    1  UNL1        0.1385
     18 C           2.0042    2.3908   18.5953 C.ar    1  UNL1        0.0367
     19 C           0.9070    2.9921   19.4225 C.ar    1  UNL1        0.0023
     20 O           3.3024    0.3030   17.7550 O.3     1  UNL1       -0.4754
     21 C           3.7092   -1.1243   17.9722 C.3     1  UNL1        0.2068
     22 C           5.0196   -1.4387   18.6310 C.3     1  UNL1        0.0646
     23 C           5.0610   -1.7895   20.0889 C.3     1  UNL1        0.0759
     24 N           4.3513   -0.9254   21.0886 N.3     1  UNL1       -0.2726
     25 C           3.3280   -1.3867   22.0838 C.3     1  UNL1        0.0721
     26 C           2.8845   -0.1947   22.8790 C.3     1  UNL1        0.0188
     27 C           3.6336    1.0034   22.3754 C.3     1  UNL1        0.0188
     28 C           4.5401    0.5517   21.2688 C.3     1  UNL1        0.0721
     29 C          -6.6006    3.2773   18.7722 C.3     1  UNL1        0.2526
     30 O          -5.2084    3.1934   19.3242 O.3     1  UNL1       -0.4683
@<TRIPOS>BOND
     1    29    30    1
     2    30     1    1
     3     1     2   ar
     4     2     3   ar
     5     3     4   ar
     6     4     5   ar
     7     5     6   ar
     8     6     7    1
     9     7     8    1
    10     8    14    1
    11    14    15   ar
    12    15    16   ar
    13    16    17   ar
    14    17    20    1
    15    20    21    1
    16    21    22    1
    17    22    23    1
    18    23    24    1
    19    24    25    1
    20    25    26    1
    21    26    27    1
    22    27    28    1
    23    17    18   ar
    24    18    19   ar
    25     8     9    1
    26     9    10    1
    27     9    11    1
    28    11    12    2
    29    11    13    2
    30     6     1   ar
    31    19    14   ar
    32    11     5    1
    33    28    24    1
@<TRIPOS>MOLECULE
*****
 30 33 0 0 0
SMALL
GASTEIGER

@<TRIPOS>ATOM
      1 C           4.0820   -1.9138   22.8150 C.ar    1  UNL1        0.1737
      2 C           4.8312   -3.1273   23.2797 C.ar    1  UNL1        0.0401
      3 C           5.5489   -3.9918   22.2859 C.ar    1  UNL1        0.0046
      4 C           5.5175   -3.6428   20.8275 C.ar    1  UNL1        0.0217
      5 C           4.7682   -2.4292   20.3628 C.ar    1  UNL1        0.1426
      6 C           4.0505   -1.5648   21.3565 C.ar    1  UNL1        0.1895
      7 O           3.3012   -0.3512   20.8917 O.3     1  UNL1       -0.4686
      8 C           3.2697   -0.0021   19.4333 C.3     1  UNL1        0.2104
      9 C           3.9875   -0.8666   18.4395 C.3     1  UNL1        0.1779
     10 C           3.9560   -0.5175   16.9810 C.3     1  UNL1        0.0300
     11 S           4.7367   -2.0801   18.9042 S.O2    1  UNL1        0.0138
     12 O           5.5763   -3.3223   18.8567 O.2     1  UNL1       -0.1685
     13 O           4.9968   -2.1625   17.4292 O.2     1  UNL1       -0.1685
     14 C           2.5205    1.2114   18.9685 C.ar    1  UNL1        0.0191
     15 C           1.0644    1.1073   18.6235 C.ar    1  UNL1        0.0023
     16 C           0.3152    2.3208   18.1587 C.ar    1  UNL1        0.0367
     17 C           1.0220    3.6384   18.0390 C.ar    1  UNL1        0.1385
     18 C           2.4780    3.7425   18.3841 C.ar    1  UNL1        0.0367
     19 C           3.2273    2.5290   18.8488 C.ar    1  UNL1        0.0023
     20 O           0.2727    4.8520   17.5743 O.3     1  UNL1       -0.4754
     21 C          -0.6031    5.6048   18.5314 C.3     1  UNL1        0.2068
     22 C          -0.0830    5.9803   19.8873 C.3     1  UNL1        0.0646
     23 C          -0.5794    5.2614   21.1066 C.3     1  UNL1        0.0759
     24 N           0.1099    4.0140   21.5744 N.3     1  UNL1       -0.2726
     25 C          -0.5245    2.6645   21.7380 C.3     1  UNL1        0.0721
     26 C           0.5281    1.7135   22.2254 C.3     1  UNL1        0.0188
     27 C           1.8131    2.4752   22.3631 C.3     1  UNL1        0.0188
     28 C           1.5546    3.8970   21.9607 C.3     1  UNL1        0.0721
     29 C           3.7470   -1.0965   25.2583 C.3     1  UNL1        0.2526
     30 O           3.3643   -1.0493   23.8087 O.3     1  UNL1       -0.4683
@<TRIPOS>BOND
     1    29    30    1
     2    30     1    1
     3     1     2   ar
     4     2     3   ar
     5     3     4   ar
     6     4     5   ar
     7     5     6   ar
     8     6     7    1
     9     7     8    1
    10     8    14    1
    11    14    15   ar
    12    15    16   ar
    13    16    17   ar
    14    17    20    1
    15    20    21    1
    16    21    22    1
    17    22    23    1
    18    23    24    1
    19    24    25    1
    20    25    26    1
    21    26    27    1
    22    27    28    1
    23    17    18   ar
    24    18    19   ar
    25     8     9    1
    26     9    10    1
    27     9    11    1
    28    11    12    2
    29    11    13    2
    30     6     1   ar
    31    19    14   ar
    32    11     5    1
    33    28    24    1
@<TRIPOS>MOLECULE
*****
 30 33 0 0 0
SMALL
GASTEIGER

@<TRIPOS>ATOM
      1 C          -9.6035  -17.6794   21.6029 C.ar    1  UNL1        0.1737
      2 C         -11.0466  -17.4478   21.9398 C.ar    1  UNL1        0.0401
      3 C         -11.4151  -16.7047   23.1897 C.ar    1  UNL1        0.0046
      4 C         -10.3404  -16.1932   24.1025 C.ar    1  UNL1        0.0217
      5 C          -8.8972  -16.4248   23.7656 C.ar    1  UNL1        0.1426
      6 C          -8.5288  -17.1679   22.5157 C.ar    1  UNL1        0.1895
      7 O          -7.0855  -17.3994   22.1788 O.3     1  UNL1       -0.4686
      8 C          -6.0108  -16.8880   23.0916 C.3     1  UNL1        0.2104
      9 C          -6.3793  -16.1449   24.3415 C.3     1  UNL1        0.1779
     10 C          -5.3045  -15.6334   25.2543 C.3     1  UNL1        0.0300
     11 S          -7.8224  -15.9133   24.6784 S.O2    1  UNL1        0.0138
     12 O          -9.0391  -15.4480   25.4222 O.2     1  UNL1       -0.1685
     13 O          -7.1702  -15.2402   25.8496 O.2     1  UNL1       -0.1685
     14 C          -4.5675  -17.1195   22.7547 C.ar    1  UNL1        0.0191
     15 C          -3.7297  -15.9916   22.2295 C.ar    1  UNL1        0.0023
     16 C          -2.2865  -16.2231   21.8926 C.ar    1  UNL1        0.0367
     17 C          -1.6812  -17.5826   22.0807 C.ar    1  UNL1        0.1385
     18 C          -2.5190  -18.7105   22.6059 C.ar    1  UNL1        0.0367
     19 C          -3.9622  -18.4790   22.9428 C.ar    1  UNL1        0.0023
     20 O          -0.2379  -17.8141   21.7438 O.3     1  UNL1       -0.4754
     21 C           0.2420  -17.6308   20.3345 C.3     1  UNL1        0.2068
     22 C          -0.4098  -18.3881   19.2158 C.3     1  UNL1        0.0646
     23 C          -1.7838  -18.0052   18.7515 C.3     1  UNL1        0.0759
     24 N          -2.9753  -18.7978   19.2010 N.3     1  UNL1       -0.2726
     25 C          -4.3813  -18.2877   19.3160 C.3     1  UNL1        0.0721
     26 C          -5.2450  -19.4142   19.8005 C.3     1  UNL1        0.0188
     27 C          -4.3730  -20.6207   19.9851 C.3     1  UNL1        0.0188
     28 C          -2.9702  -20.2397   19.6145 C.3     1  UNL1        0.0721
     29 C         -10.2596  -19.2631   19.6506 C.3     1  UNL1        0.2526
     30 O          -9.2350  -18.4224   20.3530 O.3     1  UNL1       -0.4683
@<TRIPOS>BOND
     1    29    30    1
     2    30     1    1
     3     1     2   ar
     4     2     3   ar
     5     3     4   ar
     6     4     5   ar
     7     5     6   ar
     8     6     7    1
     9     7     8    1
    10     8    14    1
    11    14    15   ar
    12    15    16   ar
    13    16    17   ar
    14    17    20    1
    15    20    21    1
    16    21    22    1
    17    22    23    1
    18    23    24    1
    19    24    25    1
    20    25    26    1
    21    26    27    1
    22    27    28    1
    23    17    18   ar
    24    18    19   ar
    25     8     9    1
    26     9    10    1
    27     9    11    1
    28    11    12    2
    29    11    13    2
    30     6     1   ar
    31    19    14   ar
    32    11     5    1
    33    28    24    1
@<TRIPOS>MOLECULE
*****
 30 33 0 0 0
SMALL
GASTEIGER

@<TRIPOS>ATOM
      1 C           5.3074   -1.6017   25.2419 C.ar    1  UNL1        0.1737
      2 C           6.1807   -2.4625   26.1058 C.ar    1  UNL1        0.0401
      3 C           6.8292   -3.6874   25.5321 C.ar    1  UNL1        0.0046
      4 C           6.6043   -4.0515   24.0945 C.ar    1  UNL1        0.0217
      5 C           5.7310   -3.1908   23.2305 C.ar    1  UNL1        0.1426
      6 C           5.0826   -1.9659   23.8042 C.ar    1  UNL1        0.1895
      7 O           4.2092   -1.1051   22.9402 O.3     1  UNL1       -0.4686
      8 C           3.9844   -1.4693   21.5026 C.3     1  UNL1        0.2104
      9 C           4.6328   -2.6942   20.9289 C.3     1  UNL1        0.1779
     10 C           4.4079   -3.0583   19.4912 C.3     1  UNL1        0.0300
     11 S           5.5061   -3.5549   21.7928 S.O2    1  UNL1        0.0138
     12 O           6.4105   -4.6776   22.2075 O.2     1  UNL1       -0.1685
     13 O           5.5953   -4.3090   20.4992 O.2     1  UNL1       -0.1685
     14 C           3.1110   -0.6085   20.6386 C.ar    1  UNL1        0.0191
     15 C           1.6237   -0.8031   20.6461 C.ar    1  UNL1        0.0023
     16 C           0.7504    0.0576   19.7822 C.ar    1  UNL1        0.0367
     17 C           1.3643    1.1128   18.9107 C.ar    1  UNL1        0.1385
     18 C           2.8516    1.3074   18.9032 C.ar    1  UNL1        0.0367
     19 C           3.7250    0.4467   19.7672 C.ar    1  UNL1        0.0023
     20 O           0.4910    1.9736   18.0467 O.3     1  UNL1       -0.4754
     21 C           0.3230    3.4297   18.3651 C.3     1  UNL1        0.2068
     22 C          -0.1726    3.8495   19.7172 C.3     1  UNL1        0.0646
     23 C           0.8051    4.1462   20.8154 C.3     1  UNL1        0.0759
     24 N           1.0604    3.1287   21.8874 N.3     1  UNL1       -0.2726
     25 C           2.4062    2.6881   22.3824 C.3     1  UNL1        0.0721
     26 C           2.1925    1.6601   23.4536 C.3     1  UNL1        0.0188
     27 C           0.7145    1.4652   23.6208 C.3     1  UNL1        0.0188
     28 C           0.0149    2.3729   22.6528 C.3     1  UNL1        0.0721
     29 C           3.4119   -0.5044   26.6392 C.3     1  UNL1        0.2526
     30 O           4.6589   -0.3768   25.8155 O.3     1  UNL1       -0.4683
@<TRIPOS>BOND
     1    29    30    1
     2    30     1    1
     3     1     2   ar
     4     2     3   ar
     5     3     4   ar
     6     4     5   ar
     7     5     6   ar
     8     6     7    1
     9     7     8    1
    10     8    14    1
    11    14    15   ar
    12    15    16   ar
    13    16    17   ar
    14    17    20    1
    15    20    21    1
    16    21    22    1
    17    22    23    1
    18    23    24    1
    19    24    25    1
    20    25    26    1
    21    26    27    1
    22    27    28    1
    23    17    18   ar
    24    18    19   ar
    25     8     9    1
    26     9    10    1
    27     9    11    1
    28    11    12    2
    29    11    13    2
    30     6     1   ar
    31    19    14   ar
    32    11     5    1
    33    28    24    1
