@<TRIPOS>MOLECULE
*****
 24 27 0 0 0
SMALL
GASTEIGER

@<TRIPOS>ATOM
      1 C          -7.5520  -15.9373   24.8404 C.3     1  UNL1        0.0385
      2 C          -6.2152  -15.2837   25.0289 C.3     1  UNL1        0.0228
      3 C          -6.1132  -14.8407   26.4583 C.3     1  UNL1        0.0689
      4 N          -7.3870  -15.2205   27.1534 N.3     1  UNL1       -0.2972
      5 C          -8.2763  -15.8983   26.1534 C.3     1  UNL1        0.0729
      6 H          -7.8465  -14.3848   27.5149 H       1  UNL1        0.1233
      7 C         -11.4012  -16.8447   21.2649 C.2     1  UNL1        0.0886
      8 C         -12.5537  -17.8019   21.3385 C.2     1  UNL1        0.1087
      9 N         -12.4733  -18.5241   22.6507 N.2     1  UNL1       -0.2471
     10 C         -11.2710  -18.0133   23.3881 C.2     1  UNL1        0.0640
     11 C         -10.6940  -18.3592   24.7287 C.3     1  UNL1        0.0714
     12 C          -9.4544  -17.6672   25.2128 C.2     1  UNL1       -0.0240
     13 C          -8.7917  -16.6293   24.3563 C.2     1  UNL1       -0.0250
     14 C          -9.3687  -16.2834   23.0156 C.2     1  UNL1       -0.0026
     15 C         -10.6084  -16.9754   22.5315 C.2     1  UNL1        0.0247
     16 N         -10.7890  -14.9940   18.9844 N.1     1  UNL1       -0.1908
     17 C         -11.0951  -15.9193   20.1247 C.1     1  UNL1        0.1020
     18 C          -7.0870  -16.1210   23.4262 C.3     1  UNL1        0.0317
     19 C          -6.0953  -17.1970   23.0967 C.ar    1  UNL1       -0.0218
     20 C          -6.5445  -18.4386   22.3850 C.ar    1  UNL1       -0.0043
     21 C          -5.5527  -19.5147   22.0554 C.ar    1  UNL1       -0.0003
     22 C          -4.1117  -19.3491   22.4375 C.ar    1  UNL1       -0.0000
     23 C          -3.6624  -18.1074   23.1493 C.ar    1  UNL1       -0.0003
     24 C          -4.6542  -17.0314   23.4788 C.ar    1  UNL1       -0.0043
@<TRIPOS>BOND
     1    16    17    3
     2    17     7    1
     3     7     8    2
     4     8     9    1
     5     9    10    2
     6    10    11    1
     7    11    12    1
     8    12    13    2
     9    13     1    1
    10     1    18    1
    11    18    19    1
    12    19    20   ar
    13    20    21   ar
    14    21    22   ar
    15    22    23   ar
    16    23    24   ar
    17     1     2    1
    18     2     3    1
    19     3     4    1
    20     4     5    1
    21    13    14    1
    22    14    15    2
    23    15     7    1
    24    15    10    1
    25     5     1    1
    26    24    19   ar
    27     4     6    1
@<TRIPOS>MOLECULE
*****
 24 27 0 0 0
SMALL
GASTEIGER

@<TRIPOS>ATOM
      1 C          -7.2257  -18.3703   22.5654 C.3     1  UNL1        0.0385
      2 C          -5.7772  -18.0428   22.3541 C.3     1  UNL1        0.0228
      3 C          -5.0577  -19.3164   22.0221 C.3     1  UNL1        0.0689
      4 N          -6.0614  -20.4310   22.0282 N.3     1  UNL1       -0.2972
      5 C          -7.4013  -19.8463   22.3639 C.3     1  UNL1        0.0729
      6 H          -5.8021  -21.1265   22.7278 H       1  UNL1        0.1233
      7 C         -12.2733  -17.0656   21.4506 C.2     1  UNL1        0.0886
      8 C         -13.5287  -17.4292   22.1867 C.2     1  UNL1        0.1087
      9 N         -13.1462  -18.2722   23.3669 N.2     1  UNL1       -0.2471
     10 C         -11.6545  -18.4296   23.3603 C.2     1  UNL1        0.0640
     11 C         -10.7177  -19.1556   24.2797 C.3     1  UNL1        0.0714
     12 C          -9.2415  -19.1358   24.0147 C.2     1  UNL1       -0.0240
     13 C          -8.7020  -18.3901   22.8303 C.2     1  UNL1       -0.0250
     14 C          -9.6387  -17.6640   21.9109 C.2     1  UNL1       -0.0026
     15 C         -11.1150  -17.6838   22.1759 C.2     1  UNL1        0.0247
     16 N         -12.1080  -15.3950   18.9642 N.1     1  UNL1       -0.1908
     17 C         -12.1907  -16.2303   20.2074 C.1     1  UNL1        0.1020
     18 C          -7.3586  -16.8985   22.8222 C.3     1  UNL1        0.0317
     19 C          -7.0730  -16.3466   24.1874 C.ar    1  UNL1       -0.0218
     20 C          -8.1923  -16.1516   25.1668 C.ar    1  UNL1       -0.0043
     21 C          -7.9066  -15.5997   26.5321 C.ar    1  UNL1       -0.0003
     22 C          -6.5017  -15.2428   26.9179 C.ar    1  UNL1       -0.0000
     23 C          -5.3824  -15.4377   25.9385 C.ar    1  UNL1       -0.0003
     24 C          -5.6680  -15.9896   24.5732 C.ar    1  UNL1       -0.0043
@<TRIPOS>BOND
     1    16    17    3
     2    17     7    1
     3     7     8    2
     4     8     9    1
     5     9    10    2
     6    10    11    1
     7    11    12    1
     8    12    13    2
     9    13     1    1
    10     1    18    1
    11    18    19    1
    12    19    20   ar
    13    20    21   ar
    14    21    22   ar
    15    22    23   ar
    16    23    24   ar
    17     1     2    1
    18     2     3    1
    19     3     4    1
    20     4     5    1
    21    13    14    1
    22    14    15    2
    23    15     7    1
    24    15    10    1
    25     5     1    1
    26    24    19   ar
    27     4     6    1
@<TRIPOS>MOLECULE
*****
 24 27 0 0 0
SMALL
GASTEIGER

@<TRIPOS>ATOM
      1 C         -10.2346  -17.2662   22.0548 C.3     1  UNL1        0.0385
      2 C         -11.0512  -16.2600   22.8102 C.3     1  UNL1        0.0228
      3 C         -12.4993  -16.5372   22.5343 C.3     1  UNL1        0.0689
      4 N         -12.5777  -17.7147   21.6084 N.3     1  UNL1       -0.2972
      5 C         -11.1780  -18.1652   21.3121 C.3     1  UNL1        0.0729
      6 H         -13.0448  -17.4440   20.7430 H       1  UNL1        0.1233
      7 C          -5.2577  -19.1339   21.6470 C.2     1  UNL1        0.0886
      8 C          -4.6978  -20.1289   20.6741 C.2     1  UNL1        0.1087
      9 N          -5.8080  -20.5610   19.7625 N.2     1  UNL1       -0.2471
     10 C          -7.0539  -19.8331   20.1721 C.2     1  UNL1        0.0640
     11 C          -8.4542  -19.8594   19.6350 C.3     1  UNL1        0.0714
     12 C          -9.5144  -19.0038   20.2626 C.2     1  UNL1       -0.0240
     13 C          -9.1743  -18.1218   21.4272 C.2     1  UNL1       -0.0250
     14 C          -7.7740  -18.0955   21.9643 C.2     1  UNL1       -0.0026
     15 C          -6.7139  -18.9511   21.3368 C.2     1  UNL1        0.0247
     16 N          -3.7329  -17.7522   23.8301 N.1     1  UNL1       -0.1908
     17 C          -4.4953  -18.4430   22.7385 C.1     1  UNL1        0.1020
     18 C          -9.0695  -16.5460   22.6663 C.3     1  UNL1        0.0317
     19 C          -8.8902  -16.5386   24.1555 C.ar    1  UNL1       -0.0218
     20 C          -8.1718  -15.4011   24.8188 C.ar    1  UNL1       -0.0043
     21 C          -7.9925  -15.3937   26.3081 C.ar    1  UNL1       -0.0003
     22 C          -8.5315  -16.5239   27.1340 C.ar    1  UNL1       -0.0000
     23 C          -9.2498  -17.6615   26.4707 C.ar    1  UNL1       -0.0003
     24 C          -9.4291  -17.6689   24.9815 C.ar    1  UNL1       -0.0043
@<TRIPOS>BOND
     1    16    17    3
     2    17     7    1
     3     7     8    2
     4     8     9    1
     5     9    10    2
     6    10    11    1
     7    11    12    1
     8    12    13    2
     9    13     1    1
    10     1    18    1
    11    18    19    1
    12    19    20   ar
    13    20    21   ar
    14    21    22   ar
    15    22    23   ar
    16    23    24   ar
    17     1     2    1
    18     2     3    1
    19     3     4    1
    20     4     5    1
    21    13    14    1
    22    14    15    2
    23    15     7    1
    24    15    10    1
    25     5     1    1
    26    24    19   ar
    27     4     6    1
@<TRIPOS>MOLECULE
*****
 24 27 0 0 0
SMALL
GASTEIGER

@<TRIPOS>ATOM
      1 C          -8.3569  -17.1527   23.4696 C.3     1  UNL1        0.0385
      2 C          -9.2509  -16.5033   24.4840 C.3     1  UNL1        0.0228
      3 C          -8.7726  -15.0968   24.6907 C.3     1  UNL1        0.0689
      4 N          -7.5829  -14.8768   23.8040 N.3     1  UNL1       -0.2972
      5 C          -7.3260  -16.1474   23.0494 C.3     1  UNL1        0.0729
      6 H          -6.7683  -14.6397   24.3703 H       1  UNL1        0.1233
      7 C          -3.9853  -19.3291   21.3303 C.2     1  UNL1        0.0886
      8 C          -3.8738  -20.3200   20.2098 C.2     1  UNL1        0.1087
      9 N          -5.2601  -20.6414   19.7356 N.2     1  UNL1       -0.2471
     10 C          -6.2284  -19.8491   20.5630 C.2     1  UNL1        0.0640
     11 C          -7.7257  -19.7614   20.5462 C.3     1  UNL1        0.0714
     12 C          -8.4352  -18.8626   21.5151 C.2     1  UNL1       -0.0240
     13 C          -7.6473  -18.0515   22.5007 C.2     1  UNL1       -0.0250
     14 C          -6.1500  -18.1392   22.5174 C.2     1  UNL1       -0.0026
     15 C          -5.4405  -19.0380   21.5486 C.2     1  UNL1        0.0247
     16 N          -1.6993  -18.1381   22.8652 N.1     1  UNL1       -0.1908
     17 C          -2.8423  -18.7336   22.0978 C.1     1  UNL1        0.1020
     18 C          -9.2394  -18.3458   23.6873 C.3     1  UNL1        0.0317
     19 C         -10.7309  -18.1866   23.6811 C.ar    1  UNL1       -0.0218
     20 C         -11.3930  -17.3649   22.6150 C.ar    1  UNL1       -0.0043
     21 C         -12.8846  -17.2056   22.6087 C.ar    1  UNL1       -0.0003
     22 C         -13.7140  -17.8680   23.6686 C.ar    1  UNL1       -0.0000
     23 C         -13.0519  -18.6897   24.7347 C.ar    1  UNL1       -0.0003
     24 C         -11.5605  -18.8490   24.7409 C.ar    1  UNL1       -0.0043
@<TRIPOS>BOND
     1    16    17    3
     2    17     7    1
     3     7     8    2
     4     8     9    1
     5     9    10    2
     6    10    11    1
     7    11    12    1
     8    12    13    2
     9    13     1    1
    10     1    18    1
    11    18    19    1
    12    19    20   ar
    13    20    21   ar
    14    21    22   ar
    15    22    23   ar
    16    23    24   ar
    17     1     2    1
    18     2     3    1
    19     3     4    1
    20     4     5    1
    21    13    14    1
    22    14    15    2
    23    15     7    1
    24    15    10    1
    25     5     1    1
    26    24    19   ar
    27     4     6    1
@<TRIPOS>MOLECULE
*****
 24 27 0 0 0
SMALL
GASTEIGER

@<TRIPOS>ATOM
      1 C          -8.3063  -19.2524   20.4022 C.3     1  UNL1        0.0385
      2 C          -9.7820  -19.0399   20.2375 C.3     1  UNL1        0.0228
      3 C         -10.2339  -19.8300   19.0453 C.3     1  UNL1        0.0689
      4 N          -9.0375  -20.5309   18.4732 N.3     1  UNL1       -0.2972
      5 C          -7.8462  -20.1739   19.3118 C.3     1  UNL1        0.0729
      6 H          -8.8866  -20.2285   17.5108 H       1  UNL1        0.1233
      7 C          -4.1290  -17.4526   23.1833 C.2     1  UNL1        0.0886
      8 C          -2.7115  -17.9432   23.1844 C.2     1  UNL1        0.1087
      9 N          -2.6186  -19.0941   22.2270 N.2     1  UNL1       -0.2471
     10 C          -3.9787  -19.3148   21.6341 C.2     1  UNL1        0.0640
     11 C          -4.4877  -20.3085   20.6324 C.3     1  UNL1        0.0714
     12 C          -5.9302  -20.2877   20.2218 C.2     1  UNL1       -0.0240
     13 C          -6.8637  -19.2732   20.8129 C.2     1  UNL1       -0.0250
     14 C          -6.3547  -18.2795   21.8146 C.2     1  UNL1       -0.0026
     15 C          -4.9122  -18.3003   22.2252 C.2     1  UNL1        0.0247
     16 N          -5.2083  -15.1758   24.8116 N.1     1  UNL1       -0.1908
     17 C          -4.6686  -16.3142   23.9974 C.1     1  UNL1        0.1020
     18 C          -8.4649  -18.3352   21.5785 C.3     1  UNL1        0.0317
     19 C          -9.4602  -18.6588   22.6530 C.ar    1  UNL1       -0.0218
     20 C          -9.2526  -19.8568   23.5315 C.ar    1  UNL1       -0.0043
     21 C         -10.2480  -20.1804   24.6061 C.ar    1  UNL1       -0.0003
     22 C         -11.4508  -19.3060   24.8021 C.ar    1  UNL1       -0.0000
     23 C         -11.6584  -18.1080   23.9237 C.ar    1  UNL1       -0.0003
     24 C         -10.6631  -17.7844   22.8491 C.ar    1  UNL1       -0.0043
@<TRIPOS>BOND
     1    16    17    3
     2    17     7    1
     3     7     8    2
     4     8     9    1
     5     9    10    2
     6    10    11    1
     7    11    12    1
     8    12    13    2
     9    13     1    1
    10     1    18    1
    11    18    19    1
    12    19    20   ar
    13    20    21   ar
    14    21    22   ar
    15    22    23   ar
    16    23    24   ar
    17     1     2    1
    18     2     3    1
    19     3     4    1
    20     4     5    1
    21    13    14    1
    22    14    15    2
    23    15     7    1
    24    15    10    1
    25     5     1    1
    26    24    19   ar
    27     4     6    1
@<TRIPOS>MOLECULE
*****
 24 27 0 0 0
SMALL
GASTEIGER

@<TRIPOS>ATOM
      1 C         -10.2311  -17.6521   21.6892 C.3     1  UNL1        0.0385
      2 C         -10.7660  -18.2800   20.4364 C.3     1  UNL1        0.0228
      3 C         -11.4498  -17.2106   19.6373 C.3     1  UNL1        0.0689
      4 N         -11.3376  -15.9216   20.3963 N.3     1  UNL1       -0.2972
      5 C         -10.5844  -16.1945   21.6644 C.3     1  UNL1        0.0729
      6 H         -12.2685  -15.5672   20.6160 H       1  UNL1        0.1233
      7 C          -6.3470  -15.5831   24.6986 C.2     1  UNL1        0.0886
      8 C          -6.2373  -15.5266   26.1935 C.2     1  UNL1        0.1087
      9 N          -7.4577  -16.1788   26.7727 N.2     1  UNL1       -0.2471
     10 C          -8.3216  -16.6383   25.6358 C.2     1  UNL1        0.0640
     11 C          -9.6445  -17.3443   25.6022 C.3     1  UNL1        0.0714
     12 C         -10.2810  -17.6823   24.2866 C.2     1  UNL1       -0.0240
     13 C          -9.5945  -17.3141   23.0048 C.2     1  UNL1       -0.0250
     14 C          -8.2716  -16.6081   23.0384 C.2     1  UNL1       -0.0026
     15 C          -7.6351  -16.2702   24.3539 C.2     1  UNL1        0.0247
     16 N          -4.3420  -14.5103   22.7417 N.1     1  UNL1       -0.1908
     17 C          -5.3445  -15.0468   23.7202 C.1     1  UNL1        0.1020
     18 C          -9.7447  -19.0390   21.9890 C.3     1  UNL1        0.0317
     19 C          -8.3715  -19.4616   21.5582 C.ar    1  UNL1       -0.0218
     20 C          -7.8886  -19.1438   20.1741 C.ar    1  UNL1       -0.0043
     21 C          -6.5153  -19.5665   19.7434 C.ar    1  UNL1       -0.0003
     22 C          -5.6249  -20.3069   20.6967 C.ar    1  UNL1       -0.0000
     23 C          -6.1078  -20.6247   22.0809 C.ar    1  UNL1       -0.0003
     24 C          -7.4810  -20.2021   22.5116 C.ar    1  UNL1       -0.0043
@<TRIPOS>BOND
     1    16    17    3
     2    17     7    1
     3     7     8    2
     4     8     9    1
     5     9    10    2
     6    10    11    1
     7    11    12    1
     8    12    13    2
     9    13     1    1
    10     1    18    1
    11    18    19    1
    12    19    20   ar
    13    20    21   ar
    14    21    22   ar
    15    22    23   ar
    16    23    24   ar
    17     1     2    1
    18     2     3    1
    19     3     4    1
    20     4     5    1
    21    13    14    1
    22    14    15    2
    23    15     7    1
    24    15    10    1
    25     5     1    1
    26    24    19   ar
    27     4     6    1
@<TRIPOS>MOLECULE
*****
 24 27 0 0 0
SMALL
GASTEIGER

@<TRIPOS>ATOM
      1 C          -7.7398  -16.2103   24.3175 C.3     1  UNL1        0.0385
      2 C          -8.9606  -15.5123   24.8395 C.3     1  UNL1        0.0228
      3 C          -8.6315  -14.9517   26.1913 C.3     1  UNL1        0.0689
      4 N          -7.2073  -15.3032   26.5048 N.3     1  UNL1       -0.2972
      5 C          -6.6563  -16.0811   25.3466 C.3     1  UNL1        0.0729
      6 H          -7.1691  -15.8699   27.3520 H       1  UNL1        0.1233
      7 C          -6.1615  -19.4886   20.4207 C.2     1  UNL1        0.0886
      8 C          -4.7779  -19.9599   20.0838 C.2     1  UNL1        0.1087
      9 N          -3.8257  -19.3395   21.0629 N.2     1  UNL1       -0.2471
     10 C          -4.6209  -18.4848   22.0048 C.2     1  UNL1        0.0640
     11 C          -4.2169  -17.6345   23.1726 C.3     1  UNL1        0.0714
     12 C          -5.2566  -16.8764   23.9435 C.2     1  UNL1       -0.0240
     13 C          -6.7002  -16.9685   23.5465 C.2     1  UNL1       -0.0250
     14 C          -7.1041  -17.8188   22.3787 C.2     1  UNL1       -0.0026
     15 C          -6.0645  -18.5769   21.6079 C.2     1  UNL1        0.0247
     16 N          -8.6806  -20.2379   18.9739 N.1     1  UNL1       -0.1908
     17 C          -7.4210  -19.8632   19.6973 C.1     1  UNL1        0.1020
     18 C          -8.6061  -16.4981   23.1272 C.3     1  UNL1        0.0317
     19 C          -9.9908  -17.0411   23.3211 C.ar    1  UNL1       -0.0218
     20 C         -11.1487  -16.4177   22.5995 C.ar    1  UNL1       -0.0043
     21 C         -12.5335  -16.9607   22.7934 C.ar    1  UNL1       -0.0003
     22 C         -12.7603  -18.1271   23.7089 C.ar    1  UNL1       -0.0000
     23 C         -11.6024  -18.7505   24.4304 C.ar    1  UNL1       -0.0003
     24 C         -10.2177  -18.2075   24.2365 C.ar    1  UNL1       -0.0043
@<TRIPOS>BOND
     1    16    17    3
     2    17     7    1
     3     7     8    2
     4     8     9    1
     5     9    10    2
     6    10    11    1
     7    11    12    1
     8    12    13    2
     9    13     1    1
    10     1    18    1
    11    18    19    1
    12    19    20   ar
    13    20    21   ar
    14    21    22   ar
    15    22    23   ar
    16    23    24   ar
    17     1     2    1
    18     2     3    1
    19     3     4    1
    20     4     5    1
    21    13    14    1
    22    14    15    2
    23    15     7    1
    24    15    10    1
    25     5     1    1
    26    24    19   ar
    27     4     6    1
@<TRIPOS>MOLECULE
*****
 24 27 0 0 0
SMALL
GASTEIGER

@<TRIPOS>ATOM
      1 C          -9.2940  -18.3769   21.5019 C.3     1  UNL1        0.0385
      2 C          -9.5990  -19.3258   20.3809 C.3     1  UNL1        0.0228
      3 C         -10.6166  -18.6781   19.4894 C.3     1  UNL1        0.0689
      4 N         -10.9405  -17.3289   20.0592 N.3     1  UNL1       -0.2972
      5 C         -10.1231  -17.1428   21.3031 C.3     1  UNL1        0.0729
      6 H         -11.9335  -17.2787   20.2868 H       1  UNL1        0.1233
      7 C          -5.6261  -15.6278   24.2246 C.2     1  UNL1        0.0886
      8 C          -5.6956  -15.0841   25.6208 C.2     1  UNL1        0.1087
      9 N          -7.0351  -15.4436   26.1921 N.2     1  UNL1       -0.2471
     10 C          -7.7934  -16.2097   25.1490 C.2     1  UNL1        0.0640
     11 C          -9.1644  -16.8182   25.1493 C.3     1  UNL1        0.0714
     12 C          -9.6646  -17.5406   23.9337 C.2     1  UNL1       -0.0240
     13 C          -8.7938  -17.6545   22.7176 C.2     1  UNL1       -0.0250
     14 C          -7.4228  -17.0459   22.7173 C.2     1  UNL1       -0.0026
     15 C          -6.9226  -16.3235   23.9330 C.2     1  UNL1        0.0247
     16 N          -3.3021  -15.3695   22.3451 N.1     1  UNL1       -0.1908
     17 C          -4.4641  -15.4987   23.2849 C.1     1  UNL1        0.1020
     18 C          -8.3603  -19.4600   21.9549 C.3     1  UNL1        0.0317
     19 C          -6.9490  -19.4940   21.4479 C.ar    1  UNL1       -0.0218
     20 C          -6.6484  -19.0797   20.0380 C.ar    1  UNL1       -0.0043
     21 C          -5.2370  -19.1138   19.5310 C.ar    1  UNL1       -0.0003
     22 C          -4.1263  -19.5622   20.4340 C.ar    1  UNL1       -0.0000
     23 C          -4.4270  -19.9765   21.8440 C.ar    1  UNL1       -0.0003
     24 C          -5.8383  -19.9425   22.3509 C.ar    1  UNL1       -0.0043
@<TRIPOS>BOND
     1    16    17    3
     2    17     7    1
     3     7     8    2
     4     8     9    1
     5     9    10    2
     6    10    11    1
     7    11    12    1
     8    12    13    2
     9    13     1    1
    10     1    18    1
    11    18    19    1
    12    19    20   ar
    13    20    21   ar
    14    21    22   ar
    15    22    23   ar
    16    23    24   ar
    17     1     2    1
    18     2     3    1
    19     3     4    1
    20     4     5    1
    21    13    14    1
    22    14    15    2
    23    15     7    1
    24    15    10    1
    25     5     1    1
    26    24    19   ar
    27     4     6    1
@<TRIPOS>MOLECULE
*****
 24 27 0 0 0
SMALL
GASTEIGER

@<TRIPOS>ATOM
      1 C          -7.7803  -19.3090   20.4954 C.3     1  UNL1        0.0385
      2 C          -9.2567  -19.0610   20.4017 C.3     1  UNL1        0.0228
      3 C          -9.7684  -19.7658   19.1805 C.3     1  UNL1        0.0689
      4 N          -8.6084  -20.4493   18.5194 N.3     1  UNL1       -0.2972
      5 C          -7.3796  -20.1670   19.3321 C.3     1  UNL1        0.0729
      6 H          -8.4879  -20.0888   17.5729 H       1  UNL1        0.1233
      7 C          -2.6180  -18.3257   19.5965 C.2     1  UNL1        0.0886
      8 C          -1.4259  -18.6972   20.4278 C.2     1  UNL1        0.1087
      9 N          -1.9163  -19.4377   21.6365 N.2     1  UNL1       -0.2471
     10 C          -3.4115  -19.5240   21.5523 C.2     1  UNL1        0.0640
     11 C          -4.4340  -20.1396   22.4608 C.3     1  UNL1        0.0714
     12 C          -5.8903  -20.0679   22.1084 C.2     1  UNL1       -0.0240
     13 C          -6.3239  -19.3806   20.8477 C.2     1  UNL1       -0.0250
     14 C          -5.3014  -18.7651   19.9392 C.2     1  UNL1       -0.0026
     15 C          -3.8451  -18.8368   20.2915 C.2     1  UNL1        0.0247
     16 N          -2.5584  -16.8243   16.9999 N.1     1  UNL1       -0.1908
     17 C          -2.5882  -17.5751   18.2982 C.1     1  UNL1        0.1020
     18 C          -7.8764  -18.4660   21.7323 C.3     1  UNL1        0.0317
     19 C          -8.9837  -18.7018   22.7164 C.ar    1  UNL1       -0.0218
     20 C          -9.9829  -17.6183   22.9949 C.ar    1  UNL1       -0.0043
     21 C         -11.0902  -17.8542   23.9791 C.ar    1  UNL1       -0.0003
     22 C         -11.1982  -19.1735   24.6846 C.ar    1  UNL1       -0.0000
     23 C         -10.1989  -20.2569   24.4061 C.ar    1  UNL1       -0.0003
     24 C          -9.0917  -20.0211   23.4220 C.ar    1  UNL1       -0.0043
@<TRIPOS>BOND
     1    16    17    3
     2    17     7    1
     3     7     8    2
     4     8     9    1
     5     9    10    2
     6    10    11    1
     7    11    12    1
     8    12    13    2
     9    13     1    1
    10     1    18    1
    11    18    19    1
    12    19    20   ar
    13    20    21   ar
    14    21    22   ar
    15    22    23   ar
    16    23    24   ar
    17     1     2    1
    18     2     3    1
    19     3     4    1
    20     4     5    1
    21    13    14    1
    22    14    15    2
    23    15     7    1
    24    15    10    1
    25     5     1    1
    26    24    19   ar
    27     4     6    1
