@<TRIPOS>MOLECULE
*****
 52 56 0 0 0
SMALL
GASTEIGER

@<TRIPOS>ATOM
      1 C           1.0728    2.6743   28.9464 C.3     1  UNL1        0.1205
      2 N           1.5521    3.0768   30.3095 N.am    1  UNL1       -0.2737
      3 C           0.8064    2.6255   31.5303 C.2     1  UNL1        0.2506
      4 O          -0.4186    1.7717   31.3878 O.2     1  UNL1       -0.2699
      5 C           2.7772    3.9306   30.4520 C.3     1  UNL1        0.0939
      6 C           3.5229    4.3820   29.2313 C.3     1  UNL1        0.0257
      7 C           3.0436    3.9795   27.8681 C.3     1  UNL1        0.0525
      8 C           1.8186    3.1257   27.7257 C.3     1  UNL1        0.2170
      9 C           2.1828    3.3018   26.2813 C.2     1  UNL1        0.2636
     10 O           2.2131    4.0751   25.6731 O.2     1  UNL1       -0.2711
     11 N           2.6140    2.1183   25.4668 N.am    1  UNL1       -0.2732
     12 C           2.6810    0.7586   26.0968 C.3     1  UNL1        0.1149
     13 C           3.1122   -0.4249   25.2824 C.3     1  UNL1        0.1124
     14 N           3.4764   -0.2489   23.8380 N.pl3   1  UNL1       -0.3017
     15 C           3.4094    1.1108   23.2080 C.3     1  UNL1        0.1124
     16 C           2.9782    2.2943   24.0224 C.3     1  UNL1        0.1149
     17 C           3.9076   -1.4324   23.0235 C.ar    1  UNL1        0.0824
     18 C           4.7733   -2.4913   23.6394 C.ar    1  UNL1        0.0176
     19 C           5.2046   -3.6748   22.8250 C.ar    1  UNL1        0.0015
     20 C           4.7701   -3.7994   21.3947 C.ar    1  UNL1        0.0032
     21 C           3.9044   -2.7405   20.7789 C.ar    1  UNL1        0.0382
     22 C           3.4731   -1.5570   21.5932 C.ar    1  UNL1        0.1517
     23 O           2.6074   -0.4981   20.9774 O.3     1  UNL1       -0.4742
     24 C           1.8001   -0.8085   19.7518 C.3     1  UNL1        0.2059
     25 C           1.6789    0.2088   18.6561 C.3     1  UNL1        0.0532
     26 C           2.9083    0.7070   17.9560 C.3     1  UNL1        0.0455
     27 C           3.9821   -0.2577   17.5482 C.2     1  UNL1        0.0505
     28 O           5.1940   -0.4405   18.4129 O.co2   1  UNL1       -0.5492
     29 O           3.8438   -1.0398   16.2757 O.co2   1  UNL1       -0.5492
     30 C           1.2857    3.0280   32.8934 C.ar    1  UNL1        0.0766
     31 C           2.1638    2.1031   33.6831 C.ar    1  UNL1        0.1033
     32 N           2.6431    2.5056   35.0463 N.ar    1  UNL1       -0.2422
     33 C           2.2443    3.8330   35.6198 C.ar    1  UNL1        0.0988
     34 C           1.3662    4.7579   34.8302 C.ar    1  UNL1        0.0247
     35 C           0.8869    4.3554   33.4671 C.ar    1  UNL1        0.0788
     36 C           0.0088    5.2803   32.6774 C.3     1  UNL1        0.4188
     37 F          -0.8693    6.2052   31.8878 F       1  UNL1       -0.1659
     38 F          -1.2030    4.5327   33.1494 F       1  UNL1       -0.1659
     39 F           1.2206    6.0279   32.2055 F       1  UNL1       -0.1659
     40 C          -0.1522    1.8205   28.8039 C.3     1  UNL1        0.0239
     41 C          -1.2607   -0.5292   28.7909 C.3     1  UNL1        0.0001
     42 C          -0.0282    0.3257   28.7994 C.3     1  UNL1        0.0018
     43 O           0.7201    2.3330   27.0815 O.3     1  UNL1       -0.4718
     44 C          -0.4429    3.0388   26.4496 C.ar    1  UNL1        0.1459
     45 C          -0.9527    4.4010   26.8164 C.ar    1  UNL1        0.0722
     46 S          -2.1251    4.7105   25.9335 S.2     1  UNL1       -0.0794
     47 C          -2.3399    3.5395   25.0210 C.ar    1  UNL1        0.1041
     48 C          -1.3003    2.5063   25.3399 C.ar    1  UNL1        0.0478
     49 C          -3.4071    3.4222   23.9733 C.3     1  UNL1        0.4242
     50 F          -4.4742    3.3049   22.9257 F       1  UNL1       -0.1654
     51 F          -4.4534    3.3586   25.0462 F       1  UNL1       -0.1654
     52 F          -2.3608    3.4858   22.9004 F       1  UNL1       -0.1654
@<TRIPOS>UNITY_ATOM_ATTR
28 1
charge -1
@<TRIPOS>BOND
     1    41    42    1
     2    42    40    1
     3     1    40    1
     4     1     2    1
     5     2     3   am
     6     3     4    2
     7     3    30    1
     8    30    31   ar
     9    31    32   ar
    10    32    33   ar
    11    33    34   ar
    12    34    35   ar
    13    35    36    1
    14    36    37    1
    15    36    38    1
    16    36    39    1
    17     2     5    1
    18     5     6    1
    19     6     7    1
    20     7     8    1
    21     8    43    1
    22    43    44    1
    23    44    45   ar
    24    45    46   ar
    25    46    47   ar
    26    47    49    1
    27    49    50    1
    28    49    51    1
    29    49    52    1
    30    47    48   ar
    31     8     9    1
    32     9    10    2
    33     9    11   am
    34    11    12    1
    35    12    13    1
    36    13    14    1
    37    14    17    1
    38    17    18   ar
    39    18    19   ar
    40    19    20   ar
    41    20    21   ar
    42    21    22   ar
    43    22    23    1
    44    23    24    1
    45    24    25    1
    46    25    26    1
    47    26    27    1
    48    27    28   ar
    49    27    29   ar
    50    14    15    1
    51    15    16    1
    52     8     1    1
    53    48    44   ar
    54    16    11    1
    55    35    30   ar
    56    22    17   ar
@<TRIPOS>MOLECULE
*****
 52 56 0 0 0
SMALL
GASTEIGER

@<TRIPOS>ATOM
      1 C           1.6783    2.3873   28.7839 C.3     1  UNL1        0.1205
      2 N           2.5779    2.6515   29.9547 N.am    1  UNL1       -0.2737
      3 C           2.1723    2.2048   31.3281 C.2     1  UNL1        0.2506
      4 O           0.8671    1.4938   31.5306 O.2     1  UNL1       -0.2699
      5 C           3.8831    3.3624   29.7523 C.3     1  UNL1        0.0939
      6 C           4.2887    3.8091   28.3790 C.3     1  UNL1        0.0257
      7 C           3.3891    3.5449   27.2082 C.3     1  UNL1        0.0525
      8 C           2.0839    2.8340   27.4107 C.3     1  UNL1        0.2170
      9 C           2.0297    3.0612   25.9290 C.2     1  UNL1        0.2636
     10 O           1.7988    3.8331   25.3636 O.2     1  UNL1       -0.2711
     11 N           2.3808    1.9486   24.9862 N.am    1  UNL1       -0.2732
     12 C           2.7863    0.6088   25.5251 C.3     1  UNL1        0.1149
     13 C           3.1375   -0.5038   24.5824 C.3     1  UNL1        0.1124
     14 N           3.0832   -0.2766   23.1007 N.pl3   1  UNL1       -0.3017
     15 C           2.6778    1.0633   22.5618 C.3     1  UNL1        0.1124
     16 C           2.3266    2.1759   23.5045 C.3     1  UNL1        0.1149
     17 C           3.4344   -1.3891   22.1579 C.ar    1  UNL1        0.0824
     18 C           4.2854   -2.5310   22.6292 C.ar    1  UNL1        0.0176
     19 C           4.6366   -3.6436   21.6864 C.ar    1  UNL1        0.0015
     20 C           4.1369   -3.6143   20.2724 C.ar    1  UNL1        0.0032
     21 C           3.2859   -2.4724   19.8012 C.ar    1  UNL1        0.0382
     22 C           2.9347   -1.3599   20.7439 C.ar    1  UNL1        0.1517
     23 O           2.0838   -0.2180   20.2726 O.3     1  UNL1       -0.4742
     24 C           2.0791    0.1652   18.8224 C.3     1  UNL1        0.2059
     25 C           3.1411    1.0778   18.2845 C.3     1  UNL1        0.0532
     26 C           4.5660    0.6137   18.2188 C.3     1  UNL1        0.0455
     27 C           4.9833   -0.3813   17.1769 C.2     1  UNL1        0.0505
     28 O           3.9602   -0.9755   16.2548 O.co2   1  UNL1       -0.5492
     29 O           6.4238   -0.7822   17.0570 O.co2   1  UNL1       -0.5492
     30 C           3.0719    2.4690   32.4989 C.ar    1  UNL1        0.0766
     31 C           2.9296    3.7403   33.2823 C.ar    1  UNL1        0.1033
     32 N           3.8293    4.0045   34.4531 N.ar    1  UNL1       -0.2422
     33 C           4.8713    2.9974   34.8406 C.ar    1  UNL1        0.0988
     34 C           5.0136    1.7262   34.0572 C.ar    1  UNL1        0.0247
     35 C           4.1140    1.4619   32.8864 C.ar    1  UNL1        0.0788
     36 C           4.2563    0.1907   32.1031 C.3     1  UNL1        0.4188
     37 F           4.3986   -1.0806   31.3197 F       1  UNL1       -0.1659
     38 F           3.2409   -0.4687   32.9886 F       1  UNL1       -0.1659
     39 F           5.2717    0.8500   31.2176 F       1  UNL1       -0.1659
     40 C           0.3731    1.6763   28.9864 C.3     1  UNL1        0.0239
     41 C          -1.0064   -0.5140   28.7637 C.3     1  UNL1        0.0001
     42 C           0.3153    0.1792   28.9139 C.3     1  UNL1        0.0018
     43 O           0.7598    2.2020   27.0985 O.3     1  UNL1       -0.4718
     44 C          -0.4596    3.0592   26.9309 C.ar    1  UNL1        0.1459
     45 C          -0.5809    4.5043   27.3143 C.ar    1  UNL1        0.0722
     46 S          -1.9680    4.9601   26.9708 S.2     1  UNL1       -0.0794
     47 C          -2.7040    3.7967   26.3751 C.ar    1  UNL1        0.1041
     48 C          -1.7717    2.6219   26.3504 C.ar    1  UNL1        0.0478
     49 C          -4.1232    3.8064   25.8893 C.3     1  UNL1        0.4242
     50 F          -5.5424    3.8161   25.4036 F       1  UNL1       -0.1654
     51 F          -3.6580    3.4010   24.5222 F       1  UNL1       -0.1654
     52 F          -4.5884    4.2118   27.2565 F       1  UNL1       -0.1654
@<TRIPOS>UNITY_ATOM_ATTR
28 1
charge -1
@<TRIPOS>BOND
     1    41    42    1
     2    42    40    1
     3     1    40    1
     4     1     2    1
     5     2     3   am
     6     3     4    2
     7     3    30    1
     8    30    31   ar
     9    31    32   ar
    10    32    33   ar
    11    33    34   ar
    12    34    35   ar
    13    35    36    1
    14    36    37    1
    15    36    38    1
    16    36    39    1
    17     2     5    1
    18     5     6    1
    19     6     7    1
    20     7     8    1
    21     8    43    1
    22    43    44    1
    23    44    45   ar
    24    45    46   ar
    25    46    47   ar
    26    47    49    1
    27    49    50    1
    28    49    51    1
    29    49    52    1
    30    47    48   ar
    31     8     9    1
    32     9    10    2
    33     9    11   am
    34    11    12    1
    35    12    13    1
    36    13    14    1
    37    14    17    1
    38    17    18   ar
    39    18    19   ar
    40    19    20   ar
    41    20    21   ar
    42    21    22   ar
    43    22    23    1
    44    23    24    1
    45    24    25    1
    46    25    26    1
    47    26    27    1
    48    27    28   ar
    49    27    29   ar
    50    14    15    1
    51    15    16    1
    52     8     1    1
    53    48    44   ar
    54    16    11    1
    55    35    30   ar
    56    22    17   ar
@<TRIPOS>MOLECULE
*****
 52 56 0 0 0
SMALL
GASTEIGER

@<TRIPOS>ATOM
      1 C           1.1105    2.5502   28.7567 C.3     1  UNL1        0.1205
      2 N           1.6177    2.9237   30.1180 N.am    1  UNL1       -0.2737
      3 C           0.8828    2.4672   31.3434 C.2     1  UNL1        0.2506
      4 O          -0.3593    1.6372   31.2074 O.2     1  UNL1       -0.2699
      5 C           2.8597    3.7536   30.2540 C.3     1  UNL1        0.0939
      6 C           3.5946    4.2101   29.0287 C.3     1  UNL1        0.0257
      7 C           3.0875    3.8367   27.6673 C.3     1  UNL1        0.0525
      8 C           1.8454    3.0067   27.5313 C.3     1  UNL1        0.2170
      9 C           2.1906    3.1980   26.0842 C.2     1  UNL1        0.2636
     10 O           2.2081    3.9769   25.4826 O.2     1  UNL1       -0.2711
     11 N           2.6199    2.0248   25.2540 N.am    1  UNL1       -0.2732
     12 C           2.7039    0.6601   25.8710 C.3     1  UNL1        0.1149
     13 C           3.1331   -0.5131   25.0409 C.3     1  UNL1        0.1124
     14 N           3.4783   -0.3218   23.5937 N.pl3   1  UNL1       -0.3017
     15 C           3.3943    1.0429   22.9767 C.3     1  UNL1        0.1124
     16 C           2.9651    2.2161   23.8069 C.3     1  UNL1        0.1149
     17 C           3.9076   -1.4950   22.7635 C.ar    1  UNL1        0.0824
     18 C           4.6862   -2.6131   23.3911 C.ar    1  UNL1        0.0176
     19 C           5.1154   -3.7863   22.5610 C.ar    1  UNL1        0.0015
     20 C           4.7662   -3.8416   21.1033 C.ar    1  UNL1        0.0032
     21 C           3.9876   -2.7235   20.4757 C.ar    1  UNL1        0.0382
     22 C           3.5583   -1.5503   21.3058 C.ar    1  UNL1        0.1517
     23 O           2.7797   -0.4322   20.6782 O.3     1  UNL1       -0.4742
     24 C           3.0094   -0.0733   19.2400 C.3     1  UNL1        0.2059
     25 C           2.4290    1.1917   18.6808 C.3     1  UNL1        0.0532
     26 C           0.9429    1.3348   18.5354 C.3     1  UNL1        0.0455
     27 C           0.1003    1.6615   19.7325 C.2     1  UNL1        0.0505
     28 O          -0.3009    0.5756   20.6863 O.co2   1  UNL1       -0.5492
     29 O          -0.3412    3.0743   19.9759 O.co2   1  UNL1       -0.5492
     30 C           1.3899    2.8407   32.7048 C.ar    1  UNL1        0.0766
     31 C           2.2727    1.8936   33.4621 C.ar    1  UNL1        0.1033
     32 N           2.7799    2.2671   34.8235 N.ar    1  UNL1       -0.2422
     33 C           2.4042    3.5877   35.4275 C.ar    1  UNL1        0.0988
     34 C           1.5213    4.5348   34.6702 C.ar    1  UNL1        0.0247
     35 C           1.0142    4.1613   33.3088 C.ar    1  UNL1        0.0788
     36 C           0.1314    5.1084   32.5515 C.3     1  UNL1        0.4188
     37 F          -0.7515    6.0555   31.7941 F       1  UNL1       -0.1659
     38 F           1.3387    5.8825   32.1121 F       1  UNL1       -0.1659
     39 F          -1.0760    4.3343   32.9908 F       1  UNL1       -0.1659
     40 C          -0.1315    1.7202   28.6207 C.3     1  UNL1        0.0239
     41 C          -1.2861   -0.6063   28.6838 C.3     1  UNL1        0.0001
     42 C          -0.0377    0.2232   28.6273 C.3     1  UNL1        0.0018
     43 O           0.7233    2.2432   26.8927 O.3     1  UNL1       -0.4718
     44 C          -0.4465    2.9779   26.3081 C.ar    1  UNL1        0.1459
     45 C          -0.9041    4.3541   26.6910 C.ar    1  UNL1        0.0722
     46 S          -2.1045    4.6921   25.8575 S.2     1  UNL1       -0.0794
     47 C          -2.3887    3.5248   24.9594 C.ar    1  UNL1        0.1041
     48 C          -1.3641    2.4653   25.2379 C.ar    1  UNL1        0.0478
     49 C          -3.5023    3.4330   23.9585 C.3     1  UNL1        0.4242
     50 F          -4.6158    3.3412   22.9577 F       1  UNL1       -0.1654
     51 F          -2.5012    3.4632   22.8420 F       1  UNL1       -0.1654
     52 F          -4.5034    3.4027   25.0751 F       1  UNL1       -0.1654
@<TRIPOS>UNITY_ATOM_ATTR
28 1
charge -1
@<TRIPOS>BOND
     1    41    42    1
     2    42    40    1
     3     1    40    1
     4     1     2    1
     5     2     3   am
     6     3     4    2
     7     3    30    1
     8    30    31   ar
     9    31    32   ar
    10    32    33   ar
    11    33    34   ar
    12    34    35   ar
    13    35    36    1
    14    36    37    1
    15    36    38    1
    16    36    39    1
    17     2     5    1
    18     5     6    1
    19     6     7    1
    20     7     8    1
    21     8    43    1
    22    43    44    1
    23    44    45   ar
    24    45    46   ar
    25    46    47   ar
    26    47    49    1
    27    49    50    1
    28    49    51    1
    29    49    52    1
    30    47    48   ar
    31     8     9    1
    32     9    10    2
    33     9    11   am
    34    11    12    1
    35    12    13    1
    36    13    14    1
    37    14    17    1
    38    17    18   ar
    39    18    19   ar
    40    19    20   ar
    41    20    21   ar
    42    21    22   ar
    43    22    23    1
    44    23    24    1
    45    24    25    1
    46    25    26    1
    47    26    27    1
    48    27    28   ar
    49    27    29   ar
    50    14    15    1
    51    15    16    1
    52     8     1    1
    53    48    44   ar
    54    16    11    1
    55    35    30   ar
    56    22    17   ar
@<TRIPOS>MOLECULE
*****
 52 56 0 0 0
SMALL
GASTEIGER

@<TRIPOS>ATOM
      1 C           1.1375    1.8673   28.3792 C.3     1  UNL1        0.1205
      2 N           1.6429    2.1248   29.7678 N.am    1  UNL1       -0.2737
      3 C           1.8346    0.9818   30.7202 C.2     1  UNL1        0.2506
      4 O           1.5210   -0.4187   30.2838 O.2     1  UNL1       -0.2699
      5 C           1.9565    3.5252   30.2042 C.3     1  UNL1        0.0939
      6 C           1.7648    4.6682   29.2519 C.3     1  UNL1        0.0257
      7 C           1.2595    4.4107   27.8633 C.3     1  UNL1        0.0525
      8 C           0.9459    3.0102   27.4269 C.3     1  UNL1        0.2170
      9 C           0.6040    3.7569   26.1717 C.2     1  UNL1        0.2636
     10 O           1.1372    4.1605   25.4495 O.2     1  UNL1       -0.2711
     11 N          -0.8311    4.0143   25.8193 N.am    1  UNL1       -0.2732
     12 C          -1.9245    3.5249   26.7221 C.3     1  UNL1        0.1149
     13 C          -3.3596    3.7821   26.3698 C.3     1  UNL1        0.1124
     14 N          -3.7014    4.5288   25.1146 N.pl3   1  UNL1       -0.3017
     15 C          -2.6081    5.0182   24.2117 C.3     1  UNL1        0.1124
     16 C          -1.1730    4.7609   24.5640 C.3     1  UNL1        0.1149
     17 C          -5.1365    4.7862   24.7621 C.ar    1  UNL1        0.0824
     18 C          -5.9034    5.8593   25.4766 C.ar    1  UNL1        0.0176
     19 C          -7.3385    6.1167   25.1242 C.ar    1  UNL1        0.0015
     20 C          -8.0068    5.3010   24.0574 C.ar    1  UNL1        0.0032
     21 C          -7.2399    4.2279   23.3430 C.ar    1  UNL1        0.0382
     22 C          -5.8048    3.9705   23.6954 C.ar    1  UNL1        0.1517
     23 O          -5.0379    2.8973   22.9810 O.3     1  UNL1       -0.4742
     24 C          -4.6738    3.0710   21.5362 C.3     1  UNL1        0.2059
     25 C          -4.3633    4.4371   21.0000 C.3     1  UNL1        0.0532
     26 C          -5.1579    4.9918   19.8551 C.3     1  UNL1        0.0455
     27 C          -6.5654    4.5276   19.6246 C.2     1  UNL1        0.0505
     28 O          -7.7170    5.3424   20.1346 O.co2   1  UNL1       -0.5492
     29 O          -6.8215    3.2485   18.8840 O.co2   1  UNL1       -0.5492
     30 C           2.3399    1.2393   32.1088 C.ar    1  UNL1        0.0766
     31 C           1.5582    2.1170   33.0407 C.ar    1  UNL1        0.1033
     32 N           2.0636    2.3745   34.4293 N.ar    1  UNL1       -0.2422
     33 C           3.3506    1.7542   34.8861 C.ar    1  UNL1        0.0988
     34 C           4.1324    0.8765   33.9542 C.ar    1  UNL1        0.0247
     35 C           3.6271    0.6190   32.5656 C.ar    1  UNL1        0.0788
     36 C           4.4088   -0.2588   31.6337 C.3     1  UNL1        0.4188
     37 F           5.1906   -1.1365   30.7018 F       1  UNL1       -0.1659
     38 F           5.0884    0.9511   31.0642 F       1  UNL1       -0.1659
     39 F           3.7292   -1.4687   32.2031 F       1  UNL1       -0.1659
     40 C           0.8239    0.4668   27.9428 C.3     1  UNL1        0.0239
     41 C          -1.5153    0.6391   29.0601 C.3     1  UNL1        0.0001
     42 C          -0.5202   -0.1284   28.2412 C.3     1  UNL1        0.0018
     43 O           0.5135    1.8692   26.5546 O.3     1  UNL1       -0.4718
     44 C           1.4005    1.3991   25.4400 C.ar    1  UNL1        0.1459
     45 C           2.8994    1.3492   25.4675 C.ar    1  UNL1        0.0722
     46 S           3.3697    0.8157   24.1468 S.2     1  UNL1       -0.0794
     47 C           2.1614    0.5358   23.3032 C.ar    1  UNL1        0.1041
     48 C           0.9443    0.8964   24.1025 C.ar    1  UNL1        0.0478
     49 C           2.1687   -0.0090   21.9056 C.3     1  UNL1        0.4242
     50 F           2.1761   -0.5538   20.5080 F       1  UNL1       -0.1654
     51 F           1.5682    1.2705   21.4036 F       1  UNL1       -0.1654
     52 F           2.7693   -1.2886   22.4076 F       1  UNL1       -0.1654
@<TRIPOS>UNITY_ATOM_ATTR
28 1
charge -1
@<TRIPOS>BOND
     1    41    42    1
     2    42    40    1
     3     1    40    1
     4     1     2    1
     5     2     3   am
     6     3     4    2
     7     3    30    1
     8    30    31   ar
     9    31    32   ar
    10    32    33   ar
    11    33    34   ar
    12    34    35   ar
    13    35    36    1
    14    36    37    1
    15    36    38    1
    16    36    39    1
    17     2     5    1
    18     5     6    1
    19     6     7    1
    20     7     8    1
    21     8    43    1
    22    43    44    1
    23    44    45   ar
    24    45    46   ar
    25    46    47   ar
    26    47    49    1
    27    49    50    1
    28    49    51    1
    29    49    52    1
    30    47    48   ar
    31     8     9    1
    32     9    10    2
    33     9    11   am
    34    11    12    1
    35    12    13    1
    36    13    14    1
    37    14    17    1
    38    17    18   ar
    39    18    19   ar
    40    19    20   ar
    41    20    21   ar
    42    21    22   ar
    43    22    23    1
    44    23    24    1
    45    24    25    1
    46    25    26    1
    47    26    27    1
    48    27    28   ar
    49    27    29   ar
    50    14    15    1
    51    15    16    1
    52     8     1    1
    53    48    44   ar
    54    16    11    1
    55    35    30   ar
    56    22    17   ar
@<TRIPOS>MOLECULE
*****
 52 56 0 0 0
SMALL
GASTEIGER

@<TRIPOS>ATOM
      1 C           2.8410    1.1461   21.6752 C.3     1  UNL1        0.1205
      2 N           4.1511    0.7917   21.0365 N.am    1  UNL1       -0.2737
      3 C           4.5426   -0.6475   20.8766 C.2     1  UNL1        0.2506
      4 O           3.6238   -1.7323   21.3554 O.2     1  UNL1       -0.2699
      5 C           5.0699    1.8765   20.5577 C.3     1  UNL1        0.0939
      6 C           4.6785    3.3156   20.7176 C.3     1  UNL1        0.0257
      7 C           3.3684    3.6700   21.3563 C.3     1  UNL1        0.0525
      8 C           2.4497    2.5853   21.8351 C.3     1  UNL1        0.2170
      9 C           1.6418    3.7935   22.2060 C.2     1  UNL1        0.2636
     10 O           1.7972    4.5647   22.7974 O.2     1  UNL1       -0.2711
     11 N           0.2770    3.9931   21.6165 N.am    1  UNL1       -0.2732
     12 C          -0.2799    2.9844   20.6560 C.3     1  UNL1        0.1149
     13 C          -1.6447    3.1840   20.0665 C.3     1  UNL1        0.1124
     14 N          -2.4526    4.3922   20.4374 N.pl3   1  UNL1       -0.3017
     15 C          -1.8956    5.4008   21.3979 C.3     1  UNL1        0.1124
     16 C          -0.5309    5.2013   21.9874 C.3     1  UNL1        0.1149
     17 C          -3.8173    4.5918   19.8479 C.ar    1  UNL1        0.0824
     18 C          -4.0201    5.5908   18.7475 C.ar    1  UNL1        0.0176
     19 C          -5.3849    5.7905   18.1579 C.ar    1  UNL1        0.0015
     20 C          -6.5468    4.9912   18.6688 C.ar    1  UNL1        0.0032
     21 C          -6.3440    3.9922   19.7692 C.ar    1  UNL1        0.0382
     22 C          -4.9793    3.7925   20.3588 C.ar    1  UNL1        0.1517
     23 O          -4.7765    2.7935   21.4592 O.3     1  UNL1       -0.4742
     24 C          -5.0964    3.1642   22.8770 C.3     1  UNL1        0.2059
     25 C          -3.9921    3.3091   23.8818 C.3     1  UNL1        0.0532
     26 C          -3.9582    4.5006   24.7924 C.3     1  UNL1        0.0455
     27 C          -4.8748    4.5647   25.9780 C.2     1  UNL1        0.0505
     28 O          -4.4300    4.0143   27.3005 O.co2   1  UNL1       -0.5492
     29 O          -6.2364    5.1792   25.8410 O.co2   1  UNL1       -0.5492
     30 C           5.8527   -1.0019   20.2379 C.ar    1  UNL1        0.0766
     31 C           7.0889   -1.1219   21.0789 C.ar    1  UNL1        0.1033
     32 N           8.3991   -1.4763   20.4402 N.ar    1  UNL1       -0.2422
     33 C           8.4729   -1.7108   18.9605 C.ar    1  UNL1        0.0988
     34 C           7.2367   -1.5908   18.1195 C.ar    1  UNL1        0.0247
     35 C           5.9266   -1.2364   18.7582 C.ar    1  UNL1        0.0788
     36 C           4.6904   -1.1164   17.9171 C.3     1  UNL1        0.4188
     37 F           3.4541   -0.9964   17.0761 F       1  UNL1       -0.1659
     38 F           4.3618   -2.5533   18.1951 F       1  UNL1       -0.1659
     39 F           5.0189    0.3205   17.6391 F       1  UNL1       -0.1659
     40 C           1.9223    0.0614   22.1540 C.3     1  UNL1        0.0239
     41 C           0.9990   -0.2544   19.7461 C.3     1  UNL1        0.0001
     42 C           0.9143   -0.5355   21.2171 C.3     1  UNL1        0.0018
     43 O           1.2503    1.9202   22.4427 O.3     1  UNL1       -0.4718
     44 C           1.1197    1.8265   23.9340 C.ar    1  UNL1        0.1459
     45 C           2.2387    1.9431   24.9261 C.ar    1  UNL1        0.0722
     46 S           1.6578    1.7884   26.3004 S.2     1  UNL1       -0.0794
     47 C           0.1797    1.5763   26.1576 C.ar    1  UNL1        0.1041
     48 C          -0.1528    1.5998   24.6951 C.ar    1  UNL1        0.0478
     49 C          -0.7948    1.3758   27.2802 C.3     1  UNL1        0.4242
     50 F          -1.7693    1.1753   28.4028 F       1  UNL1       -0.1654
     51 F           0.1143    0.3478   27.8858 F       1  UNL1       -0.1654
     52 F          -1.7039    2.4038   26.6746 F       1  UNL1       -0.1654
@<TRIPOS>UNITY_ATOM_ATTR
28 1
charge -1
@<TRIPOS>BOND
     1    41    42    1
     2    42    40    1
     3     1    40    1
     4     1     2    1
     5     2     3   am
     6     3     4    2
     7     3    30    1
     8    30    31   ar
     9    31    32   ar
    10    32    33   ar
    11    33    34   ar
    12    34    35   ar
    13    35    36    1
    14    36    37    1
    15    36    38    1
    16    36    39    1
    17     2     5    1
    18     5     6    1
    19     6     7    1
    20     7     8    1
    21     8    43    1
    22    43    44    1
    23    44    45   ar
    24    45    46   ar
    25    46    47   ar
    26    47    49    1
    27    49    50    1
    28    49    51    1
    29    49    52    1
    30    47    48   ar
    31     8     9    1
    32     9    10    2
    33     9    11   am
    34    11    12    1
    35    12    13    1
    36    13    14    1
    37    14    17    1
    38    17    18   ar
    39    18    19   ar
    40    19    20   ar
    41    20    21   ar
    42    21    22   ar
    43    22    23    1
    44    23    24    1
    45    24    25    1
    46    25    26    1
    47    26    27    1
    48    27    28   ar
    49    27    29   ar
    50    14    15    1
    51    15    16    1
    52     8     1    1
    53    48    44   ar
    54    16    11    1
    55    35    30   ar
    56    22    17   ar
@<TRIPOS>MOLECULE
*****
 52 56 0 0 0
SMALL
GASTEIGER

@<TRIPOS>ATOM
      1 C           0.8934    2.5758   28.4862 C.3     1  UNL1        0.1205
      2 N           1.4769    2.8846   29.8330 N.am    1  UNL1       -0.2737
      3 C           0.8007    2.3859   31.0756 C.2     1  UNL1        0.2506
      4 O          -0.4590    1.5783   30.9713 O.2     1  UNL1       -0.2699
      5 C           2.7366    3.6922   29.9373 C.3     1  UNL1        0.0939
      6 C           3.4128    4.1910   28.6948 C.3     1  UNL1        0.0257
      7 C           2.8293    3.8822   27.3479 C.3     1  UNL1        0.0525
      8 C           1.5696    3.0746   27.2436 C.3     1  UNL1        0.2170
      9 C           1.8410    3.3229   25.7894 C.2     1  UNL1        0.2636
     10 O           1.8258    4.1242   25.2181 O.2     1  UNL1       -0.2711
     11 N           2.2317    2.1844   24.8943 N.am    1  UNL1       -0.2732
     12 C           2.3509    0.7976   25.4534 C.3     1  UNL1        0.1149
     13 C           2.7415   -0.3409   24.5583 C.3     1  UNL1        0.1124
     14 N           3.0130   -0.0926   23.1042 N.pl3   1  UNL1       -0.3017
     15 C           2.8938    1.2942   22.5451 C.3     1  UNL1        0.1124
     16 C           2.5031    2.4327   23.4401 C.3     1  UNL1        0.1149
     17 C           3.4037   -1.2311   22.2090 C.ar    1  UNL1        0.0824
     18 C           3.0037   -1.2197   20.7633 C.ar    1  UNL1        0.0176
     19 C           3.3943   -2.3581   19.8681 C.ar    1  UNL1        0.0015
     20 C           4.1849   -3.5079   20.4185 C.ar    1  UNL1        0.0032
     21 C           4.5848   -3.5193   21.8642 C.ar    1  UNL1        0.0382
     22 C           4.1942   -2.3809   22.7594 C.ar    1  UNL1        0.1517
     23 O           4.5942   -2.3923   24.2051 O.3     1  UNL1       -0.4742
     24 C           6.0112   -2.7000   24.5888 C.3     1  UNL1        0.2059
     25 C           6.6510   -1.9776   25.7373 C.3     1  UNL1        0.0532
     26 C           5.8273   -1.0764   26.6089 C.3     1  UNL1        0.0455
     27 C           5.0289   -1.6524   27.7405 C.2     1  UNL1        0.0505
     28 O           5.7208   -2.1074   28.9912 O.co2   1  UNL1       -0.5492
     29 O           3.5385   -1.7734   27.6215 O.co2   1  UNL1       -0.5492
     30 C           1.3842    2.6947   32.4225 C.ar    1  UNL1        0.0766
     31 C           2.2970    1.7081   33.0885 C.ar    1  UNL1        0.1033
     32 N           2.8805    2.0170   34.4355 N.ar    1  UNL1       -0.2422
     33 C           2.5513    3.3124   35.1163 C.ar    1  UNL1        0.0988
     34 C           1.6386    4.2989   34.4502 C.ar    1  UNL1        0.0247
     35 C           1.0551    3.9901   33.1034 C.ar    1  UNL1        0.0788
     36 C           0.1423    4.9767   32.4374 C.3     1  UNL1        0.4188
     37 F          -0.7704    5.9633   31.7713 F       1  UNL1       -0.1659
     38 F           1.3324    5.7523   31.9554 F       1  UNL1       -0.1659
     39 F          -1.0477    4.2011   32.9193 F       1  UNL1       -0.1659
     40 C          -0.3664    1.7682   28.3818 C.3     1  UNL1        0.0239
     41 C          -1.4372   -0.5745   28.7211 C.3     1  UNL1        0.0001
     42 C          -0.2920    0.2754   28.2560 C.3     1  UNL1        0.0018
     43 O           0.4041    2.3533   26.6342 O.3     1  UNL1       -0.4718
     44 C          -0.7249    3.1314   26.0260 C.ar    1  UNL1        0.1459
     45 C          -1.2811    4.4260   26.5405 C.ar    1  UNL1        0.0722
     46 S          -2.3959    4.8462   25.6291 S.2     1  UNL1       -0.0794
     47 C          -2.5286    3.8113   24.5514 C.ar    1  UNL1        0.1041
     48 C          -1.4959    2.7515   24.7968 C.ar    1  UNL1        0.0478
     49 C          -3.5201    3.8325   23.4259 C.3     1  UNL1        0.4242
     50 F          -4.5115    3.8537   22.3005 F       1  UNL1       -0.1654
     51 F          -4.3672    2.8310   24.1534 F       1  UNL1       -0.1654
     52 F          -2.6729    4.8341   22.6986 F       1  UNL1       -0.1654
@<TRIPOS>UNITY_ATOM_ATTR
28 1
charge -1
@<TRIPOS>BOND
     1    41    42    1
     2    42    40    1
     3     1    40    1
     4     1     2    1
     5     2     3   am
     6     3     4    2
     7     3    30    1
     8    30    31   ar
     9    31    32   ar
    10    32    33   ar
    11    33    34   ar
    12    34    35   ar
    13    35    36    1
    14    36    37    1
    15    36    38    1
    16    36    39    1
    17     2     5    1
    18     5     6    1
    19     6     7    1
    20     7     8    1
    21     8    43    1
    22    43    44    1
    23    44    45   ar
    24    45    46   ar
    25    46    47   ar
    26    47    49    1
    27    49    50    1
    28    49    51    1
    29    49    52    1
    30    47    48   ar
    31     8     9    1
    32     9    10    2
    33     9    11   am
    34    11    12    1
    35    12    13    1
    36    13    14    1
    37    14    17    1
    38    17    18   ar
    39    18    19   ar
    40    19    20   ar
    41    20    21   ar
    42    21    22   ar
    43    22    23    1
    44    23    24    1
    45    24    25    1
    46    25    26    1
    47    26    27    1
    48    27    28   ar
    49    27    29   ar
    50    14    15    1
    51    15    16    1
    52     8     1    1
    53    48    44   ar
    54    16    11    1
    55    35    30   ar
    56    22    17   ar
@<TRIPOS>MOLECULE
*****
 52 56 0 0 0
SMALL
GASTEIGER

@<TRIPOS>ATOM
      1 C           6.4900   -1.8383   22.6850 C.3     1  UNL1        0.1205
      2 N           6.6349   -0.9664   21.4731 N.am    1  UNL1       -0.2737
      3 C           5.7409   -1.1762   20.2870 C.2     1  UNL1        0.2506
      4 O           4.7020   -2.2578   20.3129 O.2     1  UNL1       -0.2699
      5 C           7.6739    0.1152   21.4472 C.3     1  UNL1        0.0939
      6 C           8.5679    0.3250   22.6332 C.3     1  UNL1        0.0257
      7 C           8.4229   -0.5469   23.8451 C.3     1  UNL1        0.0525
      8 C           7.3840   -1.6285   23.8711 C.3     1  UNL1        0.2170
      9 C           7.9903   -1.8171   25.2300 C.2     1  UNL1        0.2636
     10 O           8.8543   -2.1622   25.5513 O.2     1  UNL1       -0.2711
     11 N           7.2155   -1.4361   26.4565 N.am    1  UNL1       -0.2732
     12 C           5.8342   -0.8663   26.3241 C.3     1  UNL1        0.1149
     13 C           5.0593   -0.4852   27.5505 C.3     1  UNL1        0.1124
     14 N           5.6656   -0.6739   28.9095 N.pl3   1  UNL1       -0.3017
     15 C           7.0469   -1.2436   29.0419 C.3     1  UNL1        0.1124
     16 C           7.8218   -1.6247   27.8155 C.3     1  UNL1        0.1149
     17 C           4.8908   -0.2928   30.1360 C.ar    1  UNL1        0.0824
     18 C           4.2430    1.0573   30.2245 C.ar    1  UNL1        0.0176
     19 C           3.4682    1.4384   31.4510 C.ar    1  UNL1        0.0015
     20 C           3.3411    0.4696   32.5890 C.ar    1  UNL1        0.0032
     21 C           3.9889   -0.8805   32.5005 C.ar    1  UNL1        0.0382
     22 C           4.7637   -1.2616   31.2741 C.ar    1  UNL1        0.1517
     23 O           5.4115   -2.6117   31.1856 O.3     1  UNL1       -0.4742
     24 C           6.3098   -3.0863   32.2891 C.3     1  UNL1        0.2059
     25 C           7.7811   -3.2438   32.0431 C.3     1  UNL1        0.0532
     26 C           8.2992   -4.4715   31.3545 C.3     1  UNL1        0.0455
     27 C           7.3647   -5.5982   31.0268 C.2     1  UNL1        0.0505
     28 O           6.8845   -5.7888   29.6186 O.co2   1  UNL1       -0.5492
     29 O           6.9105   -6.5342   32.1074 O.co2   1  UNL1       -0.5492
     30 C           5.8859   -0.3043   19.0750 C.ar    1  UNL1        0.0766
     31 C           6.8772   -0.6624   18.0078 C.ar    1  UNL1        0.1033
     32 N           7.0221    0.2095   16.7958 N.ar    1  UNL1       -0.2422
     33 C           6.1757    1.4394   16.6511 C.ar    1  UNL1        0.0988
     34 C           5.1844    1.7975   17.7184 C.ar    1  UNL1        0.0247
     35 C           5.0395    0.9256   18.9304 C.ar    1  UNL1        0.0788
     36 C           4.0482    1.2837   19.9976 C.3     1  UNL1        0.4188
     37 F           3.0568    1.6417   21.0649 F       1  UNL1       -0.1659
     38 F           5.0938    2.1035   20.6938 F       1  UNL1       -0.1659
     39 F           3.0025    0.4639   19.3015 F       1  UNL1       -0.1659
     40 C           5.4510   -2.9199   22.7109 C.3     1  UNL1        0.0239
     41 C           3.5738   -1.2225   23.2980 C.3     1  UNL1        0.0001
     42 C           4.0829   -2.6328   23.2546 C.3     1  UNL1        0.0018
     43 O           6.5557   -2.7756   24.3690 O.3     1  UNL1       -0.4718
     44 C           7.1492   -4.1510   24.4476 C.ar    1  UNL1        0.1459
     45 C           8.0837   -4.7663   23.4485 C.ar    1  UNL1        0.0722
     46 S           8.4245   -6.1480   23.9225 S.2     1  UNL1       -0.0794
     47 C           7.7007   -6.3866   25.2144 C.ar    1  UNL1        0.1041
     48 C           6.9125   -5.1523   25.5390 C.ar    1  UNL1        0.0478
     49 C           7.7554   -7.6395   26.0374 C.3     1  UNL1        0.4242
     50 F           7.8102   -8.8924   26.8604 F       1  UNL1       -0.1654
     51 F           6.5317   -7.2013   26.7860 F       1  UNL1       -0.1654
     52 F           8.9791   -8.0778   25.2888 F       1  UNL1       -0.1654
@<TRIPOS>UNITY_ATOM_ATTR
28 1
charge -1
@<TRIPOS>BOND
     1    41    42    1
     2    42    40    1
     3     1    40    1
     4     1     2    1
     5     2     3   am
     6     3     4    2
     7     3    30    1
     8    30    31   ar
     9    31    32   ar
    10    32    33   ar
    11    33    34   ar
    12    34    35   ar
    13    35    36    1
    14    36    37    1
    15    36    38    1
    16    36    39    1
    17     2     5    1
    18     5     6    1
    19     6     7    1
    20     7     8    1
    21     8    43    1
    22    43    44    1
    23    44    45   ar
    24    45    46   ar
    25    46    47   ar
    26    47    49    1
    27    49    50    1
    28    49    51    1
    29    49    52    1
    30    47    48   ar
    31     8     9    1
    32     9    10    2
    33     9    11   am
    34    11    12    1
    35    12    13    1
    36    13    14    1
    37    14    17    1
    38    17    18   ar
    39    18    19   ar
    40    19    20   ar
    41    20    21   ar
    42    21    22   ar
    43    22    23    1
    44    23    24    1
    45    24    25    1
    46    25    26    1
    47    26    27    1
    48    27    28   ar
    49    27    29   ar
    50    14    15    1
    51    15    16    1
    52     8     1    1
    53    48    44   ar
    54    16    11    1
    55    35    30   ar
    56    22    17   ar
@<TRIPOS>MOLECULE
*****
 52 56 0 0 0
SMALL
GASTEIGER

@<TRIPOS>ATOM
      1 C           3.6321    0.5315   29.1491 C.3     1  UNL1        0.1205
      2 N           3.9183    0.8680   30.5826 N.am    1  UNL1       -0.2737
      3 C           3.3418    0.0241   31.6806 C.2     1  UNL1        0.2506
      4 O           2.4791   -1.1562   31.3451 O.2     1  UNL1       -0.2699
      5 C           4.7810    2.0483   30.9181 C.3     1  UNL1        0.0939
      6 C           5.3575    2.8922   29.8202 C.3     1  UNL1        0.0257
      7 C           5.0713    2.5557   28.3867 C.3     1  UNL1        0.0525
      8 C           4.2086    1.3754   28.0512 C.3     1  UNL1        0.2170
      9 C           4.5235    1.8689   26.6701 C.2     1  UNL1        0.2636
     10 O           5.3550    1.9707   26.1535 O.2     1  UNL1       -0.2711
     11 N           3.4186    2.3416   25.7725 N.am    1  UNL1       -0.2732
     12 C           1.9988    2.3208   26.2559 C.3     1  UNL1        0.1149
     13 C           0.8939    2.7935   25.3583 C.3     1  UNL1        0.1124
     14 N           1.2088    3.2870   23.9772 N.pl3   1  UNL1       -0.3017
     15 C           2.6286    3.3078   23.4938 C.3     1  UNL1        0.1124
     16 C           3.7335    2.8351   24.3914 C.3     1  UNL1        0.1149
     17 C           0.1039    3.7597   23.0796 C.ar    1  UNL1        0.0824
     18 C          -0.4979    5.1186   23.2827 C.ar    1  UNL1        0.0176
     19 C          -1.6027    5.5914   22.3851 C.ar    1  UNL1        0.0015
     20 C          -2.1058    4.7054   21.2843 C.ar    1  UNL1        0.0032
     21 C          -1.5040    3.3464   21.0811 C.ar    1  UNL1        0.0382
     22 C          -0.3991    2.8737   21.9788 C.ar    1  UNL1        0.1517
     23 O           0.2027    1.5147   21.7756 O.3     1  UNL1       -0.4742
     24 C           0.1734    0.8768   20.4183 C.3     1  UNL1        0.2059
     25 C           0.9075   -0.4090   20.1779 C.3     1  UNL1        0.0532
     26 C           2.3980   -0.4629   20.3385 C.3     1  UNL1        0.0455
     27 C           3.2539   -0.9849   19.2228 C.2     1  UNL1        0.0505
     28 O           3.1213   -0.4102   17.8437 O.co2   1  UNL1       -0.5492
     29 O           4.2427   -2.0818   19.4863 O.co2   1  UNL1       -0.5492
     30 C           3.6280    0.3605   33.1140 C.ar    1  UNL1        0.0766
     31 C           2.9810    1.5565   33.7473 C.ar    1  UNL1        0.1033
     32 N           3.2672    1.8930   35.1808 N.ar    1  UNL1       -0.2422
     33 C           4.2004    1.0334   35.9810 C.ar    1  UNL1        0.0988
     34 C           4.8474   -0.1625   35.3477 C.ar    1  UNL1        0.0247
     35 C           4.5612   -0.4990   33.9143 C.ar    1  UNL1        0.0788
     36 C           5.2082   -1.6950   33.2810 C.3     1  UNL1        0.4188
     37 F           5.8552   -2.8909   32.6477 F       1  UNL1       -0.1659
     38 F           6.2981   -0.8184   32.7391 F       1  UNL1       -0.1659
     39 F           4.1183   -2.5715   33.8229 F       1  UNL1       -0.1659
     40 C           2.7694   -0.6488   28.8136 C.3     1  UNL1        0.0239
     41 C           0.6174    0.7444   29.2350 C.3     1  UNL1        0.0001
     42 C           1.2849   -0.4793   28.6811 C.3     1  UNL1        0.0018
     43 O           3.4553    0.3665   27.2360 O.3     1  UNL1       -0.4718
     44 C           4.2018   -0.6550   26.4301 C.ar    1  UNL1        0.1459
     45 C           5.4922   -1.3134   26.8190 C.ar    1  UNL1        0.0722
     46 S           5.8769   -2.2627   25.7232 S.2     1  UNL1       -0.0794
     47 C           4.8242   -2.1909   24.6571 C.ar    1  UNL1        0.1041
     48 C           3.7888   -1.1973   25.0940 C.ar    1  UNL1        0.0478
     49 C           4.8093   -2.9752   23.3784 C.3     1  UNL1        0.4242
     50 F           4.7945   -3.7594   22.0999 F       1  UNL1       -0.1654
     51 F           3.6781   -2.1298   22.8731 F       1  UNL1       -0.1654
     52 F           5.9406   -3.8206   23.8839 F       1  UNL1       -0.1654
@<TRIPOS>UNITY_ATOM_ATTR
28 1
charge -1
@<TRIPOS>BOND
     1    41    42    1
     2    42    40    1
     3     1    40    1
     4     1     2    1
     5     2     3   am
     6     3     4    2
     7     3    30    1
     8    30    31   ar
     9    31    32   ar
    10    32    33   ar
    11    33    34   ar
    12    34    35   ar
    13    35    36    1
    14    36    37    1
    15    36    38    1
    16    36    39    1
    17     2     5    1
    18     5     6    1
    19     6     7    1
    20     7     8    1
    21     8    43    1
    22    43    44    1
    23    44    45   ar
    24    45    46   ar
    25    46    47   ar
    26    47    49    1
    27    49    50    1
    28    49    51    1
    29    49    52    1
    30    47    48   ar
    31     8     9    1
    32     9    10    2
    33     9    11   am
    34    11    12    1
    35    12    13    1
    36    13    14    1
    37    14    17    1
    38    17    18   ar
    39    18    19   ar
    40    19    20   ar
    41    20    21   ar
    42    21    22   ar
    43    22    23    1
    44    23    24    1
    45    24    25    1
    46    25    26    1
    47    26    27    1
    48    27    28   ar
    49    27    29   ar
    50    14    15    1
    51    15    16    1
    52     8     1    1
    53    48    44   ar
    54    16    11    1
    55    35    30   ar
    56    22    17   ar
@<TRIPOS>MOLECULE
*****
 52 56 0 0 0
SMALL
GASTEIGER

@<TRIPOS>ATOM
      1 C           1.6014    2.2926   28.8036 C.3     1  UNL1        0.1205
      2 N           2.5525    2.5148   29.9420 N.am    1  UNL1       -0.2737
      3 C           2.1978    2.0387   31.3196 C.2     1  UNL1        0.2506
      4 O           0.8919    1.3404   31.5586 O.2     1  UNL1       -0.2699
      5 C           3.8584    3.2130   29.7029 C.3     1  UNL1        0.0939
      6 C           4.2131    3.6891   28.3254 C.3     1  UNL1        0.0257
      7 C           3.2620    3.4669   27.1871 C.3     1  UNL1        0.0525
      8 C           1.9561    2.7686   27.4261 C.3     1  UNL1        0.2170
      9 C           1.8438    3.0343   25.9541 C.2     1  UNL1        0.2636
     10 O           1.5637    3.8114   25.4190 O.2     1  UNL1       -0.2711
     11 N           2.2078    1.9635   24.9688 N.am    1  UNL1       -0.2732
     12 C           2.6841    0.6269   25.4555 C.3     1  UNL1        0.1149
     13 C           3.0481   -0.4439   24.4703 C.3     1  UNL1        0.1124
     14 N           2.9358   -0.1783   22.9983 N.pl3   1  UNL1       -0.3017
     15 C           2.4595    1.1583   22.5115 C.3     1  UNL1        0.1124
     16 C           2.0955    2.2291   23.4968 C.3     1  UNL1        0.1149
     17 C           3.2997   -1.2491   22.0129 C.ar    1  UNL1        0.0824
     18 C           4.3161   -2.2902   22.3781 C.ar    1  UNL1        0.0176
     19 C           4.6801   -3.3610   21.3928 C.ar    1  UNL1        0.0015
     20 C           4.0278   -3.3908   20.0424 C.ar    1  UNL1        0.0032
     21 C           3.0115   -2.3497   19.6773 C.ar    1  UNL1        0.0382
     22 C           2.6474   -1.2789   20.6625 C.ar    1  UNL1        0.1517
     23 O           1.6311   -0.2378   20.2974 O.3     1  UNL1       -0.4742
     24 C           1.5551    0.2749   18.8898 C.3     1  UNL1        0.2059
     25 C           1.6217    1.7497   18.6241 C.3     1  UNL1        0.0532
     26 C           0.3774    2.5026   18.2571 C.3     1  UNL1        0.0455
     27 C          -0.3802    3.2573   19.3090 C.2     1  UNL1        0.0505
     28 O          -1.6995    3.8883   18.9756 O.co2   1  UNL1       -0.5492
     29 O           0.1816    3.3810   20.6943 O.co2   1  UNL1       -0.5492
     30 C           3.1489    2.2608   32.4579 C.ar    1  UNL1        0.0766
     31 C           3.0442    3.5038   33.2910 C.ar    1  UNL1        0.1033
     32 N           3.9954    3.7260   34.4295 N.ar    1  UNL1       -0.2422
     33 C           5.0512    2.7052   34.7348 C.ar    1  UNL1        0.0988
     34 C           5.1559    1.4622   33.9016 C.ar    1  UNL1        0.0247
     35 C           4.2048    1.2400   32.7633 C.ar    1  UNL1        0.0788
     36 C           4.3094   -0.0029   31.9301 C.3     1  UNL1        0.4188
     37 F           4.4141   -1.2459   31.0970 F       1  UNL1       -0.1659
     38 F           5.3109    0.6758   31.0433 F       1  UNL1       -0.1659
     39 F           3.3080   -0.6817   32.8170 F       1  UNL1       -0.1659
     40 C           0.2955    1.5943   29.0427 C.3     1  UNL1        0.0239
     41 C          -1.1448   -0.5505   28.7687 C.3     1  UNL1        0.0001
     42 C           0.1992    0.1066   28.8772 C.3     1  UNL1        0.0018
     43 O           0.6113    2.1627   27.1539 O.3     1  UNL1       -0.4718
     44 C          -0.5914    3.0453   26.9975 C.ar    1  UNL1        0.1459
     45 C          -0.6969    4.4769   27.4327 C.ar    1  UNL1        0.0722
     46 S          -2.0704    4.9678   27.0827 S.2     1  UNL1       -0.0794
     47 C          -2.8137    3.8395   26.4312 C.ar    1  UNL1        0.1041
     48 C          -1.8997    2.6514   26.3785 C.ar    1  UNL1        0.0478
     49 C          -4.2237    3.8904   25.9217 C.3     1  UNL1        0.4242
     50 F          -5.6336    3.9413   25.4121 F       1  UNL1       -0.1654
     51 F          -4.6996    4.3101   27.2807 F       1  UNL1       -0.1654
     52 F          -3.7477    3.4707   24.5626 F       1  UNL1       -0.1654
@<TRIPOS>UNITY_ATOM_ATTR
28 1
charge -1
@<TRIPOS>BOND
     1    41    42    1
     2    42    40    1
     3     1    40    1
     4     1     2    1
     5     2     3   am
     6     3     4    2
     7     3    30    1
     8    30    31   ar
     9    31    32   ar
    10    32    33   ar
    11    33    34   ar
    12    34    35   ar
    13    35    36    1
    14    36    37    1
    15    36    38    1
    16    36    39    1
    17     2     5    1
    18     5     6    1
    19     6     7    1
    20     7     8    1
    21     8    43    1
    22    43    44    1
    23    44    45   ar
    24    45    46   ar
    25    46    47   ar
    26    47    49    1
    27    49    50    1
    28    49    51    1
    29    49    52    1
    30    47    48   ar
    31     8     9    1
    32     9    10    2
    33     9    11   am
    34    11    12    1
    35    12    13    1
    36    13    14    1
    37    14    17    1
    38    17    18   ar
    39    18    19   ar
    40    19    20   ar
    41    20    21   ar
    42    21    22   ar
    43    22    23    1
    44    23    24    1
    45    24    25    1
    46    25    26    1
    47    26    27    1
    48    27    28   ar
    49    27    29   ar
    50    14    15    1
    51    15    16    1
    52     8     1    1
    53    48    44   ar
    54    16    11    1
    55    35    30   ar
    56    22    17   ar
