@<TRIPOS>MOLECULE
*****
 30 33 0 0 0
SMALL
GASTEIGER

@<TRIPOS>ATOM
      1 C           3.0860    3.6282   23.2840 C.3     1  UNL1        0.0281
      2 C           3.1751    2.1312   23.2477 C.3     1  UNL1        0.1170
      3 C           3.5710    1.4338   21.9800 C.ar    1  UNL1        0.0907
      4 N           3.9292    1.9526   20.6190 N.ar    1  UNL1       -0.2267
      5 C           4.2397    0.7762   19.7416 C.ar    1  UNL1        0.1834
      6 N           4.0734   -0.4695   20.5604 N.ar    1  UNL1       -0.2768
      7 C           3.6600   -0.0631   21.9439 C.ar    1  UNL1        0.0610
      8 C           3.3533   -0.8626   23.1754 C.3     1  UNL1        0.0670
      9 C           2.9574   -0.1653   24.4430 C.3     1  UNL1        0.1003
     10 N           2.8684    1.3316   24.4792 N.am    1  UNL1       -0.2720
     11 C           2.4725    2.0290   25.7470 C.2     1  UNL1        0.2501
     12 O           2.3834    3.5259   25.7831 O.2     1  UNL1       -0.2699
     13 C           4.2835   -1.8749   20.0801 C.ar    1  UNL1        0.1488
     14 C           3.1254   -2.6673   19.5499 C.ar    1  UNL1        0.0398
     15 C           3.3355   -4.0727   19.0696 C.ar    1  UNL1        0.0343
     16 C           4.7035   -4.6857   19.1194 C.ar    1  UNL1        0.1593
     17 F           4.9136   -6.0911   18.6391 F       1  UNL1       -0.2025
     18 C           5.8616   -3.8933   19.6496 C.ar    1  UNL1        0.1300
     19 N           5.6516   -2.4879   20.1299 N.ar    1  UNL1       -0.2240
     20 C           2.1657    1.2294   26.9785 C.ar    1  UNL1        0.0641
     21 C           3.2785    0.5850   27.7508 C.ar    1  UNL1        0.0054
     22 C           2.9716   -0.2146   28.9823 C.ar    1  UNL1        0.0001
     23 C           1.5522   -0.3697   29.4414 C.ar    1  UNL1        0.0047
     24 C           0.4394    0.2747   28.6691 C.ar    1  UNL1        0.0821
     25 C           0.7461    1.0743   27.4376 C.ar    1  UNL1        0.0659
     26 CL         -0.3667    1.7186   26.6653 Cl      1  UNL1       -0.0822
     27 C          -0.9802    0.1195   29.1283 C.3     1  UNL1        0.4194
     28 F          -2.3997   -0.0356   29.5874 F       1  UNL1       -0.1658
     29 F          -0.7772    1.2195   30.1277 F       1  UNL1       -0.1658
     30 F          -1.1832   -0.9805   28.1288 F       1  UNL1       -0.1658
@<TRIPOS>BOND
     1     2     1    1
     2     2     3    1
     3     3     4   ar
     4     4     5   ar
     5     5     6   ar
     6     6    13    1
     7    13    14   ar
     8    14    15   ar
     9    15    16   ar
    10    16    17    1
    11    16    18   ar
    12    18    19   ar
    13     6     7   ar
    14     7     8    1
    15     8     9    1
    16     9    10    1
    17    10    11   am
    18    11    12    2
    19    11    20    1
    20    20    21   ar
    21    21    22   ar
    22    22    23   ar
    23    23    24   ar
    24    24    27    1
    25    27    28    1
    26    27    29    1
    27    27    30    1
    28    24    25   ar
    29    25    26    1
    30    10     2    1
    31    25    20   ar
    32     7     3   ar
    33    19    13   ar
@<TRIPOS>MOLECULE
*****
 30 33 0 0 0
SMALL
GASTEIGER

@<TRIPOS>ATOM
      1 C           4.5226    3.5843   18.1747 C.3     1  UNL1        0.0281
      2 C           3.1767    2.9977   18.4823 C.3     1  UNL1        0.1170
      3 C           1.9305    3.7557   18.1325 C.ar    1  UNL1        0.0907
      4 N           1.7168    5.0915   17.4844 N.ar    1  UNL1       -0.2267
      5 C           0.2389    5.3304   17.3915 C.ar    1  UNL1        0.1834
      6 N          -0.4608    4.1423   17.9821 N.ar    1  UNL1       -0.2768
      7 C           0.5847    3.1691   18.4401 C.ar    1  UNL1        0.0610
      8 C           0.4851    1.8245   19.0975 C.3     1  UNL1        0.0670
      9 C           1.7313    1.0666   19.4473 C.3     1  UNL1        0.1003
     10 N           3.0771    1.6531   19.1398 N.am    1  UNL1       -0.2720
     11 C           4.3234    0.8951   19.4896 C.2     1  UNL1        0.2501
     12 O           5.6692    1.4817   19.1820 O.2     1  UNL1       -0.2699
     13 C          -1.9454    3.9596   18.0950 C.ar    1  UNL1        0.1488
     14 C          -2.7962    3.9526   16.8596 C.ar    1  UNL1        0.0398
     15 C          -4.2808    3.7699   16.9724 C.ar    1  UNL1        0.0343
     16 C          -4.9145    3.5941   18.3205 C.ar    1  UNL1        0.1593
     17 F          -6.3990    3.4114   18.4333 F       1  UNL1       -0.2025
     18 C          -4.0636    3.6011   19.5559 C.ar    1  UNL1        0.1300
     19 N          -2.5791    3.7838   19.4431 N.ar    1  UNL1       -0.2240
     20 C           4.2238   -0.4495   20.1470 C.ar    1  UNL1        0.0641
     21 C           3.9501   -0.5463   21.6186 C.ar    1  UNL1        0.0054
     22 C           3.8505   -1.8910   22.2760 C.ar    1  UNL1        0.0001
     23 C           4.0246   -3.1386   21.4618 C.ar    1  UNL1        0.0047
     24 C           4.2983   -3.0417   19.9901 C.ar    1  UNL1        0.0821
     25 C           4.3979   -1.6971   19.3327 C.ar    1  UNL1        0.0659
     26 CL          4.6716   -1.6003   17.8611 Cl      1  UNL1       -0.0822
     27 C           4.4724   -4.2894   19.1759 C.3     1  UNL1        0.4194
     28 F           4.6465   -5.5371   18.3617 F       1  UNL1       -0.1658
     29 F           5.9433   -4.2759   19.4698 F       1  UNL1       -0.1658
     30 F           3.0015   -4.3029   18.8820 F       1  UNL1       -0.1658
@<TRIPOS>BOND
     1     2     1    1
     2     2     3    1
     3     3     4   ar
     4     4     5   ar
     5     5     6   ar
     6     6    13    1
     7    13    14   ar
     8    14    15   ar
     9    15    16   ar
    10    16    17    1
    11    16    18   ar
    12    18    19   ar
    13     6     7   ar
    14     7     8    1
    15     8     9    1
    16     9    10    1
    17    10    11   am
    18    11    12    2
    19    11    20    1
    20    20    21   ar
    21    21    22   ar
    22    22    23   ar
    23    23    24   ar
    24    24    27    1
    25    27    28    1
    26    27    29    1
    27    27    30    1
    28    24    25   ar
    29    25    26    1
    30    10     2    1
    31    25    20   ar
    32     7     3   ar
    33    19    13   ar
@<TRIPOS>MOLECULE
*****
 30 33 0 0 0
SMALL
GASTEIGER

@<TRIPOS>ATOM
      1 C         -17.4292   -4.9777   18.1223 C.3     1  UNL1        0.0281
      2 C         -16.6288   -3.7714   18.5155 C.3     1  UNL1        0.1170
      3 C         -17.3075   -2.5974   19.1566 C.ar    1  UNL1        0.0907
      4 N         -18.7396   -2.3431   19.5233 N.ar    1  UNL1       -0.2267
      5 C         -18.8243   -0.9798   20.1431 C.ar    1  UNL1        0.1834
      6 N         -17.4445   -0.3915   20.1595 N.ar    1  UNL1       -0.2768
      7 C         -16.5071   -1.3912   19.5498 C.ar    1  UNL1        0.0610
      8 C         -15.0281   -1.3591   19.3019 C.3     1  UNL1        0.0670
      9 C         -14.3495   -2.5332   18.6608 C.3     1  UNL1        0.1003
     10 N         -15.1498   -3.7393   18.2676 N.am    1  UNL1       -0.2720
     11 C         -14.4711   -4.9134   17.6264 C.2     1  UNL1        0.2501
     12 O         -15.2714   -6.1195   17.2332 O.2     1  UNL1       -0.2699
     13 C         -17.0684    0.9594   20.6921 C.ar    1  UNL1        0.1488
     14 C         -16.2166    1.8795   19.8688 C.ar    1  UNL1        0.0398
     15 C         -15.8404    3.2304   20.4013 C.ar    1  UNL1        0.0343
     16 C         -16.3159    3.6611   21.7571 C.ar    1  UNL1        0.1593
     17 F         -15.9397    5.0120   22.2897 F       1  UNL1       -0.2025
     18 C         -17.1677    2.7409   22.5804 C.ar    1  UNL1        0.1300
     19 N         -17.5439    1.3901   22.0480 N.ar    1  UNL1       -0.2240
     20 C         -12.9921   -4.8813   17.3785 C.ar    1  UNL1        0.0641
     21 C         -12.4411   -4.0881   16.2307 C.ar    1  UNL1        0.0054
     22 C         -10.9620   -4.0560   15.9828 C.ar    1  UNL1        0.0001
     23 C         -10.0340   -4.8170   16.8826 C.ar    1  UNL1        0.0047
     24 C         -10.5851   -5.6102   18.0304 C.ar    1  UNL1        0.0821
     25 C         -12.0641   -5.6423   18.2783 C.ar    1  UNL1        0.0659
     26 CL        -12.6151   -6.4354   19.4261 Cl      1  UNL1       -0.0822
     27 C          -9.6571   -6.3712   18.9302 C.3     1  UNL1        0.4194
     28 F          -8.7290   -7.1322   19.8300 F       1  UNL1       -0.1658
     29 F          -9.8804   -7.6093   18.1134 F       1  UNL1       -0.1658
     30 F          -9.4338   -5.1331   19.7471 F       1  UNL1       -0.1658
@<TRIPOS>BOND
     1     2     1    1
     2     2     3    1
     3     3     4   ar
     4     4     5   ar
     5     5     6   ar
     6     6    13    1
     7    13    14   ar
     8    14    15   ar
     9    15    16   ar
    10    16    17    1
    11    16    18   ar
    12    18    19   ar
    13     6     7   ar
    14     7     8    1
    15     8     9    1
    16     9    10    1
    17    10    11   am
    18    11    12    2
    19    11    20    1
    20    20    21   ar
    21    21    22   ar
    22    22    23   ar
    23    23    24   ar
    24    24    27    1
    25    27    28    1
    26    27    29    1
    27    27    30    1
    28    24    25   ar
    29    25    26    1
    30    10     2    1
    31    25    20   ar
    32     7     3   ar
    33    19    13   ar
@<TRIPOS>MOLECULE
*****
 30 33 0 0 0
SMALL
GASTEIGER

@<TRIPOS>ATOM
      1 C           8.6134   -6.8206   22.9450 C.3     1  UNL1        0.0281
      2 C           8.0488   -5.8424   23.9321 C.3     1  UNL1        0.1170
      3 C           8.1045   -6.1421   25.4008 C.ar    1  UNL1        0.0907
      4 N           8.6503   -7.3107   26.1667 N.ar    1  UNL1       -0.2267
      5 C           8.4229   -7.0547   27.6270 C.ar    1  UNL1        0.1834
      6 N           7.7367   -5.7279   27.7638 N.ar    1  UNL1       -0.2768
      7 C           7.5399   -5.1638   26.3879 C.ar    1  UNL1        0.0610
      8 C           6.9196   -3.8859   25.9062 C.3     1  UNL1        0.0670
      9 C           6.8638   -3.5862   24.4376 C.3     1  UNL1        0.1003
     10 N           7.4284   -4.5643   23.4505 N.am    1  UNL1       -0.2720
     11 C           7.3726   -4.2646   21.9818 C.2     1  UNL1        0.2501
     12 O           7.9373   -5.2428   20.9947 O.2     1  UNL1       -0.2699
     13 C           7.3204   -5.0790   29.0505 C.ar    1  UNL1        0.1488
     14 C           7.2901   -5.8796   30.3186 C.ar    1  UNL1        0.0398
     15 C           6.8737   -5.2308   31.6055 C.ar    1  UNL1        0.0343
     16 C           6.4877   -3.7815   31.6240 C.ar    1  UNL1        0.1593
     17 F           6.0714   -3.1327   32.9108 F       1  UNL1       -0.2025
     18 C           6.5180   -2.9809   30.3558 C.ar    1  UNL1        0.1300
     19 N           6.9343   -3.6297   29.0691 N.ar    1  UNL1       -0.2240
     20 C           6.7523   -2.9866   21.5001 C.ar    1  UNL1        0.0641
     21 C           7.6014   -1.7641   21.3147 C.ar    1  UNL1        0.0054
     22 C           6.9809   -0.4861   20.8331 C.ar    1  UNL1        0.0001
     23 C           5.5116   -0.4307   20.5369 C.ar    1  UNL1        0.0047
     24 C           4.6625   -1.6534   20.7223 C.ar    1  UNL1        0.0821
     25 C           5.2828   -2.9313   21.2040 C.ar    1  UNL1        0.0659
     26 CL          4.4338   -4.1539   21.3894 Cl      1  UNL1       -0.0822
     27 C           3.1930   -1.5980   20.4262 C.3     1  UNL1        0.4194
     28 F           1.7236   -1.5426   20.1300 F       1  UNL1       -0.1658
     29 F           3.4689   -1.9442   18.9930 F       1  UNL1       -0.1658
     30 F           2.9172   -1.2517   21.8593 F       1  UNL1       -0.1658
@<TRIPOS>BOND
     1     2     1    1
     2     2     3    1
     3     3     4   ar
     4     4     5   ar
     5     5     6   ar
     6     6    13    1
     7    13    14   ar
     8    14    15   ar
     9    15    16   ar
    10    16    17    1
    11    16    18   ar
    12    18    19   ar
    13     6     7   ar
    14     7     8    1
    15     8     9    1
    16     9    10    1
    17    10    11   am
    18    11    12    2
    19    11    20    1
    20    20    21   ar
    21    21    22   ar
    22    22    23   ar
    23    23    24   ar
    24    24    27    1
    25    27    28    1
    26    27    29    1
    27    27    30    1
    28    24    25   ar
    29    25    26    1
    30    10     2    1
    31    25    20   ar
    32     7     3   ar
    33    19    13   ar
@<TRIPOS>MOLECULE
*****
 30 33 0 0 0
SMALL
GASTEIGER

@<TRIPOS>ATOM
      1 C           2.7210    2.2939   23.5108 C.3     1  UNL1        0.0281
      2 C           1.7554    2.1078   22.3781 C.3     1  UNL1        0.1170
      3 C           0.4090    2.7674   22.4240 C.ar    1  UNL1        0.0907
      4 N          -0.2410    3.6516   23.4466 N.ar    1  UNL1       -0.2267
      5 C          -1.6083    4.0119   22.9458 C.ar    1  UNL1        0.1834
      6 N          -1.8032    3.3504   21.6137 N.ar    1  UNL1       -0.2768
      7 C          -0.5564    2.5813   21.2912 C.ar    1  UNL1        0.0610
      8 C          -0.1755    1.7355   20.1125 C.3     1  UNL1        0.0670
      9 C           1.1708    1.0758   20.0665 C.3     1  UNL1        0.1003
     10 N           2.1363    1.2620   21.1992 N.am    1  UNL1       -0.2720
     11 C           3.4827    0.6023   21.1532 C.2     1  UNL1        0.2501
     12 O           4.4482    0.7885   22.2860 O.2     1  UNL1       -0.2699
     13 C          -3.0296    3.4419   20.7549 C.ar    1  UNL1        0.1488
     14 C          -4.3786    3.1445   21.3396 C.ar    1  UNL1        0.0398
     15 C          -5.6051    3.2361   20.4808 C.ar    1  UNL1        0.0343
     16 C          -5.4825    3.6250   19.0374 C.ar    1  UNL1        0.1593
     17 F          -6.7089    3.7166   18.1786 F       1  UNL1       -0.2025
     18 C          -4.1335    3.9224   18.4527 C.ar    1  UNL1        0.1300
     19 N          -2.9071    3.8309   19.3114 N.ar    1  UNL1       -0.2240
     20 C           3.8636   -0.2435   19.9744 C.ar    1  UNL1        0.0641
     21 C           4.1801    0.4030   18.6585 C.ar    1  UNL1        0.0054
     22 C           4.5610   -0.4429   17.4797 C.ar    1  UNL1        0.0001
     23 C           4.6255   -1.9351   17.6169 C.ar    1  UNL1        0.0047
     24 C           4.3090   -2.5817   18.9330 C.ar    1  UNL1        0.0821
     25 C           3.9281   -1.7359   20.1118 C.ar    1  UNL1        0.0659
     26 CL          3.6116   -2.3824   21.4277 Cl      1  UNL1       -0.0822
     27 C           4.3735   -4.0740   19.0702 C.3     1  UNL1        0.4194
     28 F           4.4379   -5.5663   19.2074 F       1  UNL1       -0.1658
     29 F           2.8971   -4.1608   18.8194 F       1  UNL1       -0.1658
     30 F           5.8498   -3.9872   19.3210 F       1  UNL1       -0.1658
@<TRIPOS>BOND
     1     2     1    1
     2     2     3    1
     3     3     4   ar
     4     4     5   ar
     5     5     6   ar
     6     6    13    1
     7    13    14   ar
     8    14    15   ar
     9    15    16   ar
    10    16    17    1
    11    16    18   ar
    12    18    19   ar
    13     6     7   ar
    14     7     8    1
    15     8     9    1
    16     9    10    1
    17    10    11   am
    18    11    12    2
    19    11    20    1
    20    20    21   ar
    21    21    22   ar
    22    22    23   ar
    23    23    24   ar
    24    24    27    1
    25    27    28    1
    26    27    29    1
    27    27    30    1
    28    24    25   ar
    29    25    26    1
    30    10     2    1
    31    25    20   ar
    32     7     3   ar
    33    19    13   ar
@<TRIPOS>MOLECULE
*****
 30 33 0 0 0
SMALL
GASTEIGER

@<TRIPOS>ATOM
      1 C           7.7045   -4.5573   24.9811 C.3     1  UNL1        0.0281
      2 C           6.5661   -3.5805   24.9897 C.3     1  UNL1        0.1170
      3 C           6.1495   -2.9253   26.2731 C.ar    1  UNL1        0.0907
      4 N           6.6689   -3.0441   27.6753 N.ar    1  UNL1       -0.2267
      5 C           5.8515   -2.1406   28.5503 C.ar    1  UNL1        0.1834
      6 N           4.8270   -1.4635   27.6889 N.ar    1  UNL1       -0.2768
      7 C           5.0112   -1.9485   26.2815 C.ar    1  UNL1        0.0610
      8 C           4.2895   -1.6268   25.0065 C.3     1  UNL1        0.0670
      9 C           4.7061   -2.2820   23.7231 C.3     1  UNL1        0.1003
     10 N           5.8443   -3.2587   23.7146 N.am    1  UNL1       -0.2720
     11 C           6.2609   -3.9139   22.4311 C.2     1  UNL1        0.2501
     12 O           7.3992   -4.8908   22.4227 O.2     1  UNL1       -0.2699
     13 C           3.7989   -0.4750   28.1535 C.ar    1  UNL1        0.1488
     14 C           4.1884    0.9525   28.3995 C.ar    1  UNL1        0.0398
     15 C           3.1602    1.9411   28.8640 C.ar    1  UNL1        0.0343
     16 C           1.7427    1.5021   29.0825 C.ar    1  UNL1        0.1593
     17 F           0.7146    2.4906   29.5471 F       1  UNL1       -0.2025
     18 C           1.3533    0.0745   28.8365 C.ar    1  UNL1        0.1300
     19 N           2.3813   -0.9140   28.3720 N.ar    1  UNL1       -0.2240
     20 C           5.5392   -3.5923   21.1561 C.ar    1  UNL1        0.0641
     21 C           4.2611   -4.3012   20.8184 C.ar    1  UNL1        0.0054
     22 C           3.5394   -3.9794   19.5434 C.ar    1  UNL1        0.0001
     23 C           4.0957   -2.9490   18.6061 C.ar    1  UNL1        0.0047
     24 C           5.3739   -2.2401   18.9439 C.ar    1  UNL1        0.0821
     25 C           6.0956   -2.5617   20.2189 C.ar    1  UNL1        0.0659
     26 CL          7.3737   -1.8529   20.5565 Cl      1  UNL1       -0.0822
     27 C           5.9302   -1.2096   18.0065 C.3     1  UNL1        0.4194
     28 F           6.4865   -0.1791   17.0692 F       1  UNL1       -0.1658
     29 F           6.9110   -2.2161   17.4821 F       1  UNL1       -0.1658
     30 F           4.9495   -0.2031   18.5310 F       1  UNL1       -0.1658
@<TRIPOS>BOND
     1     2     1    1
     2     2     3    1
     3     3     4   ar
     4     4     5   ar
     5     5     6   ar
     6     6    13    1
     7    13    14   ar
     8    14    15   ar
     9    15    16   ar
    10    16    17    1
    11    16    18   ar
    12    18    19   ar
    13     6     7   ar
    14     7     8    1
    15     8     9    1
    16     9    10    1
    17    10    11   am
    18    11    12    2
    19    11    20    1
    20    20    21   ar
    21    21    22   ar
    22    22    23   ar
    23    23    24   ar
    24    24    27    1
    25    27    28    1
    26    27    29    1
    27    27    30    1
    28    24    25   ar
    29    25    26    1
    30    10     2    1
    31    25    20   ar
    32     7     3   ar
    33    19    13   ar
@<TRIPOS>MOLECULE
*****
 30 33 0 0 0
SMALL
GASTEIGER

@<TRIPOS>ATOM
      1 C           2.2929    1.3316   23.9955 C.3     1  UNL1        0.0281
      2 C           1.5674    1.3836   22.6837 C.3     1  UNL1        0.1170
      3 C           0.3027    2.1802   22.5570 C.ar    1  UNL1        0.0907
      4 N          -0.4635    3.0105   23.5436 N.ar    1  UNL1       -0.2267
      5 C          -1.6626    3.5755   22.8416 C.ar    1  UNL1        0.1834
      6 N          -1.6374    3.0944   21.4210 N.ar    1  UNL1       -0.2768
      7 C          -0.4228    2.2320   21.2451 C.ar    1  UNL1        0.0610
      8 C           0.1163    1.4873   20.0600 C.3     1  UNL1        0.0670
      9 C           1.3810    0.6907   20.1866 C.3     1  UNL1        0.1003
     10 N           2.1065    0.6388   21.4984 N.am    1  UNL1       -0.2720
     11 C           3.3712   -0.1579   21.6250 C.2     1  UNL1        0.2501
     12 O           4.0967   -0.2097   22.9369 O.2     1  UNL1       -0.2699
     13 C          -2.6493    3.4188   20.3623 C.ar    1  UNL1        0.1488
     14 C          -4.1092    3.1998   20.6279 C.ar    1  UNL1        0.0398
     15 C          -5.1212    3.5241   19.5691 C.ar    1  UNL1        0.0343
     16 C          -4.6731    4.0675   18.2449 C.ar    1  UNL1        0.1593
     17 F          -5.6849    4.3918   17.1861 F       1  UNL1       -0.2025
     18 C          -3.2131    4.2865   17.9792 C.ar    1  UNL1        0.1300
     19 N          -2.2012    3.9622   19.0379 N.ar    1  UNL1       -0.2240
     20 C           3.9103   -0.9026   20.4398 C.ar    1  UNL1        0.0641
     21 C           3.5554   -2.3457   20.2360 C.ar    1  UNL1        0.0054
     22 C           4.0946   -3.0904   19.0508 C.ar    1  UNL1        0.0001
     23 C           4.9886   -2.3921   18.0695 C.ar    1  UNL1        0.0047
     24 C           5.3435   -0.9489   18.2733 C.ar    1  UNL1        0.0821
     25 C           4.8043   -0.2042   19.4585 C.ar    1  UNL1        0.0659
     26 CL          5.1592    1.2389   19.6623 Cl      1  UNL1       -0.0822
     27 C           6.2375   -0.2506   17.2920 C.3     1  UNL1        0.4194
     28 F           7.1315    0.4477   16.3106 F       1  UNL1       -0.1658
     29 F           5.0502    0.0546   16.4275 F       1  UNL1       -0.1658
     30 F           7.4248   -0.5558   18.1564 F       1  UNL1       -0.1658
@<TRIPOS>BOND
     1     2     1    1
     2     2     3    1
     3     3     4   ar
     4     4     5   ar
     5     5     6   ar
     6     6    13    1
     7    13    14   ar
     8    14    15   ar
     9    15    16   ar
    10    16    17    1
    11    16    18   ar
    12    18    19   ar
    13     6     7   ar
    14     7     8    1
    15     8     9    1
    16     9    10    1
    17    10    11   am
    18    11    12    2
    19    11    20    1
    20    20    21   ar
    21    21    22   ar
    22    22    23   ar
    23    23    24   ar
    24    24    27    1
    25    27    28    1
    26    27    29    1
    27    27    30    1
    28    24    25   ar
    29    25    26    1
    30    10     2    1
    31    25    20   ar
    32     7     3   ar
    33    19    13   ar
@<TRIPOS>MOLECULE
*****
 30 33 0 0 0
SMALL
GASTEIGER

@<TRIPOS>ATOM
      1 C           1.3674    2.0361   18.9827 C.3     1  UNL1        0.0281
      2 C           1.5732    1.3847   20.3181 C.3     1  UNL1        0.1170
      3 C           0.9584    1.9844   21.5479 C.ar    1  UNL1        0.0907
      4 N           0.1065    3.2019   21.7524 N.ar    1  UNL1       -0.2267
      5 C          -0.2141    3.3030   23.2143 C.ar    1  UNL1        0.1834
      6 N           0.4396    2.1479   23.9132 N.ar    1  UNL1       -0.2768
      7 C           1.1643    1.3329   22.8833 C.ar    1  UNL1        0.0610
      8 C           1.9850    0.0818   22.9889 C.3     1  UNL1        0.0670
      9 C           2.5998   -0.5178   21.7591 C.3     1  UNL1        0.1003
     10 N           2.3940    0.1336   20.4238 N.am    1  UNL1       -0.2720
     11 C           3.0089   -0.4662   19.1939 C.2     1  UNL1        0.2501
     12 O           2.8030    0.1853   17.8586 O.2     1  UNL1       -0.2699
     13 C           0.3793    1.8586   25.3838 C.ar    1  UNL1        0.1488
     14 C          -0.9038    2.0565   26.1350 C.ar    1  UNL1        0.0398
     15 C          -0.9642    1.7672   27.6057 C.ar    1  UNL1        0.0343
     16 C           0.2584    1.2800   28.3250 C.ar    1  UNL1        0.1593
     17 F           0.1981    0.9907   29.7956 F       1  UNL1       -0.2025
     18 C           1.5416    1.0820   27.5737 C.ar    1  UNL1        0.1300
     19 N           1.6020    1.3713   26.1031 N.ar    1  UNL1       -0.2240
     20 C           3.8296   -1.7172   19.2996 C.ar    1  UNL1        0.0641
     21 C           3.1610   -3.0591   19.2510 C.ar    1  UNL1        0.0054
     22 C           3.9818   -4.3102   19.3566 C.ar    1  UNL1        0.0001
     23 C           5.4710   -4.2194   19.5108 C.ar    1  UNL1        0.0047
     24 C           6.1396   -2.8775   19.5593 C.ar    1  UNL1        0.0821
     25 C           5.3189   -1.6264   19.4537 C.ar    1  UNL1        0.0659
     26 CL          5.9875   -0.2845   19.5023 Cl      1  UNL1       -0.0822
     27 C           7.6289   -2.7867   19.7135 C.3     1  UNL1        0.4194
     28 F           9.1182   -2.6959   19.8677 F       1  UNL1       -0.1658
     29 F           7.7656   -2.5302   18.2420 F       1  UNL1       -0.1658
     30 F           7.4922   -3.0432   21.1851 F       1  UNL1       -0.1658
@<TRIPOS>BOND
     1     2     1    1
     2     2     3    1
     3     3     4   ar
     4     4     5   ar
     5     5     6   ar
     6     6    13    1
     7    13    14   ar
     8    14    15   ar
     9    15    16   ar
    10    16    17    1
    11    16    18   ar
    12    18    19   ar
    13     6     7   ar
    14     7     8    1
    15     8     9    1
    16     9    10    1
    17    10    11   am
    18    11    12    2
    19    11    20    1
    20    20    21   ar
    21    21    22   ar
    22    22    23   ar
    23    23    24   ar
    24    24    27    1
    25    27    28    1
    26    27    29    1
    27    27    30    1
    28    24    25   ar
    29    25    26    1
    30    10     2    1
    31    25    20   ar
    32     7     3   ar
    33    19    13   ar
@<TRIPOS>MOLECULE
*****
 30 33 0 0 0
SMALL
GASTEIGER

@<TRIPOS>ATOM
      1 C           2.6784    5.4753   17.9443 C.3     1  UNL1        0.0281
      2 C           2.2694    4.0400   18.0950 C.3     1  UNL1        0.1170
      3 C           3.3143    2.9733   18.2375 C.ar    1  UNL1        0.0907
      4 N           4.8128    3.0335   18.2645 N.ar    1  UNL1       -0.2267
      5 C           5.3299    1.6354   18.4320 C.ar    1  UNL1        0.1834
      6 N           4.1509    0.7112   18.5084 N.ar    1  UNL1       -0.2768
      7 C           2.9052    1.5380   18.3882 C.ar    1  UNL1        0.0610
      8 C           1.4512    1.1695   18.3965 C.3     1  UNL1        0.0670
      9 C           0.4063    2.2362   18.2541 C.3     1  UNL1        0.1003
     10 N           0.8154    3.6714   18.1034 N.am    1  UNL1       -0.2720
     11 C          -0.2296    4.7382   17.9609 C.2     1  UNL1        0.2501
     12 O           0.1795    6.1734   17.8102 O.2     1  UNL1       -0.2699
     13 C           4.2077   -0.7784   18.6757 C.ar    1  UNL1        0.1488
     14 C           3.1975   -1.4753   19.5382 C.ar    1  UNL1        0.0398
     15 C           3.2543   -2.9649   19.7056 C.ar    1  UNL1        0.0343
     16 C           4.3212   -3.7575   19.0104 C.ar    1  UNL1        0.1593
     17 F           4.3780   -5.2471   19.1777 F       1  UNL1       -0.2025
     18 C           5.3314   -3.0606   18.1479 C.ar    1  UNL1        0.1300
     19 N           5.2747   -1.5711   17.9805 N.ar    1  UNL1       -0.2240
     20 C          -1.6836    4.3697   17.9693 C.ar    1  UNL1        0.0641
     21 C          -2.3576    3.9477   16.6974 C.ar    1  UNL1        0.0054
     22 C          -3.8117    3.5792   16.7058 C.ar    1  UNL1        0.0001
     23 C          -4.5916    3.6326   17.9859 C.ar    1  UNL1        0.0047
     24 C          -3.9175    4.0546   19.2578 C.ar    1  UNL1        0.0821
     25 C          -2.4635    4.4231   19.2495 C.ar    1  UNL1        0.0659
     26 CL         -1.7895    4.8451   20.5213 Cl      1  UNL1       -0.0822
     27 C          -4.6974    4.1081   20.5380 C.3     1  UNL1        0.4194
     28 F          -5.4774    4.1615   21.8182 F       1  UNL1       -0.1658
     29 F          -4.2512    2.7146   20.8681 F       1  UNL1       -0.1658
     30 F          -5.1437    5.5016   20.2079 F       1  UNL1       -0.1658
@<TRIPOS>BOND
     1     2     1    1
     2     2     3    1
     3     3     4   ar
     4     4     5   ar
     5     5     6   ar
     6     6    13    1
     7    13    14   ar
     8    14    15   ar
     9    15    16   ar
    10    16    17    1
    11    16    18   ar
    12    18    19   ar
    13     6     7   ar
    14     7     8    1
    15     8     9    1
    16     9    10    1
    17    10    11   am
    18    11    12    2
    19    11    20    1
    20    20    21   ar
    21    21    22   ar
    22    22    23   ar
    23    23    24   ar
    24    24    27    1
    25    27    28    1
    26    27    29    1
    27    27    30    1
    28    24    25   ar
    29    25    26    1
    30    10     2    1
    31    25    20   ar
    32     7     3   ar
    33    19    13   ar
