@<TRIPOS>MOLECULE
*****
 30 33 0 0 0
SMALL
GASTEIGER

@<TRIPOS>ATOM
      1 C           4.7888   -3.7485   20.1737 C.2     1  UNL1        0.2474
      2 O           4.0947   -4.9858   20.6611 O.2     1  UNL1       -0.2729
      3 N           5.9968   -3.2319   20.8973 N.am    1  UNL1       -0.2665
      4 H           6.4524   -2.4199   20.5774 H       1  UNL1        0.1564
      5 C           6.5108   -3.9524   22.1084 C.ar    1  UNL1        0.1560
      6 C           6.0328   -3.5583   23.4746 C.ar    1  UNL1        0.0379
      7 C           6.5468   -4.2788   24.6857 C.ar    1  UNL1        0.0239
      8 C           7.5387   -5.3934   24.5306 C.ar    1  UNL1        0.1045
      9 N           8.0165   -5.7874   23.1644 N.ar    1  UNL1       -0.1467
     10 N           7.5026   -5.0669   21.9533 N.ar    1  UNL1       -0.1328
     11 C           8.0526   -6.1139   25.7416 C.ar    1  UNL1        0.0408
     12 C           9.0220   -5.4348   26.6632 C.ar    1  UNL1        0.1005
     13 N           9.5360   -6.1553   27.8743 N.ar    1  UNL1       -0.2399
     14 C           9.0805   -7.5549   28.1638 C.ar    1  UNL1        0.1284
     15 C           8.1112   -8.2339   27.2423 C.ar    1  UNL1        0.1593
     16 F           7.6557   -9.6335   27.5319 F       1  UNL1       -0.2025
     17 C           7.5972   -7.5134   26.0312 C.ar    1  UNL1        0.0344
     18 C           4.2748   -3.0280   18.9626 C.3     1  UNL1        0.1775
     19 C           7.3857    1.3064   16.3896 C.3     1  UNL1        0.1235
     20 N           6.2078    0.8714   17.2104 N.am    1  UNL1       -0.2203
     21 C           5.1517    1.7700   17.7823 C.2     1  UNL1        0.2524
     22 O           5.0879    3.2612   17.6341 O.2     1  UNL1       -0.2698
     23 C           4.1705    0.9154   18.5287 C.2     1  UNL1        0.0496
     24 C           4.6202   -0.5112   18.4179 C.2     1  UNL1        0.1032
     25 C           5.8794   -0.5385   17.6032 C.2     1  UNL1        0.2683
     26 O           6.6710   -1.7609   17.2443 O.2     1  UNL1       -0.2681
     27 N           3.8250   -1.6013   19.0733 N.pl3   1  UNL1       -0.2964
     28 C           2.5802   -1.2647   19.8394 C.3     1  UNL1        0.0917
     29 C           2.1305    0.1620   19.9502 C.3     1  UNL1        0.0263
     30 C           2.9256    1.2520   19.2948 C.3     1  UNL1        0.0342
@<TRIPOS>BOND
     1    19    20    1
     2    20    21   am
     3    21    22    2
     4    21    23    1
     5    23    24    2
     6    24    25    1
     7    25    26    2
     8    24    27    1
     9    27    18    1
    10    18     1    1
    11     1     2    2
    12     1     3   am
    13     3     5    1
    14     5     6   ar
    15     6     7   ar
    16     7     8   ar
    17     8    11    1
    18    11    12   ar
    19    12    13   ar
    20    13    14   ar
    21    14    15   ar
    22    15    16    1
    23    15    17   ar
    24     8     9   ar
    25     9    10   ar
    26    27    28    1
    27    28    29    1
    28    29    30    1
    29    25    20   am
    30    10     5   ar
    31    30    23    1
    32    17    11   ar
    33     3     4    1
@<TRIPOS>MOLECULE
*****
 30 33 0 0 0
SMALL
GASTEIGER

@<TRIPOS>ATOM
      1 C          -0.4410    3.1112   22.1629 C.2     1  UNL1        0.2474
      2 O           0.0133    2.3876   23.3959 O.2     1  UNL1       -0.2729
      3 N           0.0851    2.7049   20.8183 N.am    1  UNL1       -0.2665
      4 H          -0.2131    3.1797   20.0091 H       1  UNL1        0.1564
      5 C           1.0654    1.5751   20.7065 C.ar    1  UNL1        0.1560
      6 C           0.6029    0.2231   20.2501 C.ar    1  UNL1        0.0379
      7 C           1.5832   -0.9067   20.1384 C.ar    1  UNL1        0.0239
      8 C           3.0261   -0.6845   20.4830 C.ar    1  UNL1        0.1045
      9 N           3.4886    0.6674   20.9394 N.ar    1  UNL1       -0.1467
     10 N           2.5083    1.7972   21.0512 N.ar    1  UNL1       -0.1328
     11 C           4.0065   -1.8143   20.3713 C.ar    1  UNL1        0.0408
     12 C           5.2231   -1.8411   21.2484 C.ar    1  UNL1        0.1005
     13 N           6.2035   -2.9709   21.1366 N.ar    1  UNL1       -0.2399
     14 C           5.9672   -4.0739   20.1478 C.ar    1  UNL1        0.1284
     15 C           4.7506   -4.0470   19.2708 C.ar    1  UNL1        0.1593
     16 F           4.5144   -5.1500   18.2820 F       1  UNL1       -0.2025
     17 C           3.7703   -2.9172   19.3825 C.ar    1  UNL1        0.0344
     18 C          -1.4213    4.2409   22.2747 C.3     1  UNL1        0.1775
     19 C          -4.1675    3.7378   17.0507 C.3     1  UNL1        0.1235
     20 N          -4.2262    3.7232   18.5495 N.am    1  UNL1       -0.2203
     21 C          -5.4524    3.4908   19.3816 C.2     1  UNL1        0.2524
     22 O          -6.8352    3.2324   18.8610 O.2     1  UNL1       -0.2698
     23 C          -5.0531    3.5623   20.8257 C.2     1  UNL1        0.0496
     24 C          -3.5801    3.8389   20.8861 C.2     1  UNL1        0.1032
     25 C          -3.0690    3.9383   19.4793 C.2     1  UNL1        0.2683
     26 O          -1.6499    4.2058   19.0737 O.2     1  UNL1       -0.2681
     27 N          -2.8944    3.9644   22.2143 N.pl3   1  UNL1       -0.2964
     28 C          -3.6818    3.8135   23.4821 C.3     1  UNL1        0.0917
     29 C          -5.1548    3.5370   23.4216 C.3     1  UNL1        0.0263
     30 C          -5.8405    3.4114   22.0934 C.3     1  UNL1        0.0342
@<TRIPOS>BOND
     1    19    20    1
     2    20    21   am
     3    21    22    2
     4    21    23    1
     5    23    24    2
     6    24    25    1
     7    25    26    2
     8    24    27    1
     9    27    18    1
    10    18     1    1
    11     1     2    2
    12     1     3   am
    13     3     5    1
    14     5     6   ar
    15     6     7   ar
    16     7     8   ar
    17     8    11    1
    18    11    12   ar
    19    12    13   ar
    20    13    14   ar
    21    14    15   ar
    22    15    16    1
    23    15    17   ar
    24     8     9   ar
    25     9    10   ar
    26    27    28    1
    27    28    29    1
    28    29    30    1
    29    25    20   am
    30    10     5   ar
    31    30    23    1
    32    17    11   ar
    33     3     4    1
@<TRIPOS>MOLECULE
*****
 30 33 0 0 0
SMALL
GASTEIGER

@<TRIPOS>ATOM
      1 C          -0.8354    3.7617   21.5784 C.2     1  UNL1        0.2474
      2 O           0.4021    3.6319   22.4164 O.2     1  UNL1       -0.2729
      3 N          -1.0329    2.8690   20.3893 N.am    1  UNL1       -0.2665
      4 H          -1.8450    2.9542   19.8394 H       1  UNL1        0.1564
      5 C           0.0069    1.8466   20.0380 C.ar    1  UNL1        0.1560
      6 C           1.0857    2.1824   19.0513 C.ar    1  UNL1        0.0379
      7 C           2.1255    1.1600   18.7000 C.ar    1  UNL1        0.0239
      8 C           2.0866   -0.1983   19.3354 C.ar    1  UNL1        0.1045
      9 N           1.0078   -0.5340   20.3221 N.ar    1  UNL1       -0.1467
     10 N          -0.0320    0.4884   20.6734 N.ar    1  UNL1       -0.1328
     11 C           3.1264   -1.2207   18.9842 C.ar    1  UNL1        0.0408
     12 C           4.1291   -0.9311   17.9068 C.ar    1  UNL1        0.1005
     13 N           5.1689   -1.9535   17.5555 N.ar    1  UNL1       -0.2399
     14 C           5.2060   -3.2656   18.2816 C.ar    1  UNL1        0.1284
     15 C           4.2033   -3.5552   19.3589 C.ar    1  UNL1        0.1593
     16 F           4.2404   -4.8672   20.0851 F       1  UNL1       -0.2025
     17 C           3.1635   -2.5327   19.7102 C.ar    1  UNL1        0.0344
     18 C          -1.8752    4.7841   21.9297 C.3     1  UNL1        0.1775
     19 C          -7.5155    5.6498   20.3413 C.3     1  UNL1        0.1235
     20 N          -6.5146    5.1860   21.3578 N.am    1  UNL1       -0.2203
     21 C          -6.8294    4.6249   22.7129 C.2     1  UNL1        0.2524
     22 O          -8.2002    4.4290   23.2893 O.2     1  UNL1       -0.2698
     23 C          -5.5326    4.2941   23.3903 C.2     1  UNL1        0.0496
     24 C          -4.4163    4.6507   22.4540 C.2     1  UNL1        0.1032
     25 C          -5.0232    5.2020   21.1978 C.2     1  UNL1        0.2683
     26 O          -4.2708    5.6845   19.9932 O.2     1  UNL1       -0.2681
     27 N          -2.9915    4.4275   22.8661 N.pl3   1  UNL1       -0.2964
     28 C          -2.6828    3.8475   24.2146 C.3     1  UNL1        0.0917
     29 C          -3.7991    3.4909   25.1509 C.3     1  UNL1        0.0263
     30 C          -5.2240    3.7142   24.7388 C.3     1  UNL1        0.0342
@<TRIPOS>BOND
     1    19    20    1
     2    20    21   am
     3    21    22    2
     4    21    23    1
     5    23    24    2
     6    24    25    1
     7    25    26    2
     8    24    27    1
     9    27    18    1
    10    18     1    1
    11     1     2    2
    12     1     3   am
    13     3     5    1
    14     5     6   ar
    15     6     7   ar
    16     7     8   ar
    17     8    11    1
    18    11    12   ar
    19    12    13   ar
    20    13    14   ar
    21    14    15   ar
    22    15    16    1
    23    15    17   ar
    24     8     9   ar
    25     9    10   ar
    26    27    28    1
    27    28    29    1
    28    29    30    1
    29    25    20   am
    30    10     5   ar
    31    30    23    1
    32    17    11   ar
    33     3     4    1
@<TRIPOS>MOLECULE
*****
 30 33 0 0 0
SMALL
GASTEIGER

@<TRIPOS>ATOM
      1 C          -0.7262    3.7796   20.7061 C.2     1  UNL1        0.2474
      2 O           0.6566    4.2943   20.4357 O.2     1  UNL1       -0.2729
      3 N          -1.0181    2.3134   20.5833 N.am    1  UNL1       -0.2665
      4 H          -1.9256    1.9756   20.7608 H       1  UNL1        0.1564
      5 C           0.0727    1.3619   20.1900 C.ar    1  UNL1        0.1560
      6 C           0.6984    0.4705   21.2215 C.ar    1  UNL1        0.0379
      7 C           1.7892   -0.4811   20.8282 C.ar    1  UNL1        0.0239
      8 C           2.2544   -0.5411   19.4034 C.ar    1  UNL1        0.1045
      9 N           1.6288    0.3503   18.3720 N.ar    1  UNL1       -0.1467
     10 N           0.5379    1.3018   18.7653 N.ar    1  UNL1       -0.1328
     11 C           3.3452   -1.4926   19.0101 C.ar    1  UNL1        0.0408
     12 C           4.5270   -0.9977   18.2299 C.ar    1  UNL1        0.1005
     13 N           5.6178   -1.9492   17.8366 N.ar    1  UNL1       -0.2399
     14 C           5.5269   -3.3957   18.2235 C.ar    1  UNL1        0.1284
     15 C           4.3452   -3.8905   19.0036 C.ar    1  UNL1        0.1593
     16 F           4.2543   -5.3370   19.3904 F       1  UNL1       -0.2025
     17 C           3.2544   -2.9390   19.3969 C.ar    1  UNL1        0.0344
     18 C          -1.8171    4.7311   21.0994 C.3     1  UNL1        0.1775
     19 C          -5.9320    4.8874   25.3572 C.3     1  UNL1        0.1235
     20 N          -5.5633    4.6491   23.9228 N.am    1  UNL1       -0.2203
     21 C          -6.5035    4.2440   22.8264 C.2     1  UNL1        0.2524
     22 O          -7.9774    4.0060   22.9719 O.2     1  UNL1       -0.2698
     23 C          -5.7111    4.1185   21.5590 C.2     1  UNL1        0.0496
     24 C          -4.2812    4.4461   21.8720 C.2     1  UNL1        0.1032
     25 C          -4.1899    4.7740   23.3329 C.2     1  UNL1        0.2683
     26 O          -2.9438    5.1592   24.0739 O.2     1  UNL1       -0.2681
     27 N          -3.2470    4.4035   20.7864 N.pl3   1  UNL1       -0.2964
     28 C          -3.6427    4.0333   19.3877 C.3     1  UNL1        0.0917
     29 C          -5.0726    3.7057   19.0747 C.3     1  UNL1        0.0263
     30 C          -6.1068    3.7483   20.1603 C.3     1  UNL1        0.0342
@<TRIPOS>BOND
     1    19    20    1
     2    20    21   am
     3    21    22    2
     4    21    23    1
     5    23    24    2
     6    24    25    1
     7    25    26    2
     8    24    27    1
     9    27    18    1
    10    18     1    1
    11     1     2    2
    12     1     3   am
    13     3     5    1
    14     5     6   ar
    15     6     7   ar
    16     7     8   ar
    17     8    11    1
    18    11    12   ar
    19    12    13   ar
    20    13    14   ar
    21    14    15   ar
    22    15    16    1
    23    15    17   ar
    24     8     9   ar
    25     9    10   ar
    26    27    28    1
    27    28    29    1
    28    29    30    1
    29    25    20   am
    30    10     5   ar
    31    30    23    1
    32    17    11   ar
    33     3     4    1
@<TRIPOS>MOLECULE
*****
 30 33 0 0 0
SMALL
GASTEIGER

@<TRIPOS>ATOM
      1 C          -0.5676    3.6899   21.3168 C.2     1  UNL1        0.2474
      2 O           0.8210    3.8488   21.8613 O.2     1  UNL1       -0.2729
      3 N          -0.8902    2.5404   20.4088 N.am    1  UNL1       -0.2665
      4 H          -1.8016    2.4361   20.0514 H       1  UNL1        0.1564
      5 C           0.1758    1.5497   20.0453 C.ar    1  UNL1        0.1560
      6 C           1.1724    1.8796   18.9737 C.ar    1  UNL1        0.0379
      7 C           2.2384    0.8889   18.6103 C.ar    1  UNL1        0.0239
      8 C           2.3079   -0.4317   19.3183 C.ar    1  UNL1        0.1045
      9 N           1.3114   -0.7616   20.3898 N.ar    1  UNL1       -0.1467
     10 N           0.2453    0.2291   20.7533 N.ar    1  UNL1       -0.1328
     11 C           3.3739   -1.4224   18.9548 C.ar    1  UNL1        0.0408
     12 C           4.5644   -0.9834   18.1547 C.ar    1  UNL1        0.1005
     13 N           5.6304   -1.9741   17.7912 N.ar    1  UNL1       -0.2399
     14 C           5.5059   -3.4038   18.2279 C.ar    1  UNL1        0.1284
     15 C           4.3155   -3.8427   19.0280 C.ar    1  UNL1        0.1593
     16 F           4.1911   -5.2724   19.4646 F       1  UNL1       -0.2025
     17 C           3.2495   -2.8520   19.3914 C.ar    1  UNL1        0.0344
     18 C          -1.6337    4.6806   21.6802 C.3     1  UNL1        0.1775
     19 C          -1.5789    5.7419   27.5074 C.3     1  UNL1        0.1235
     20 N          -2.2730    5.1823   26.3011 N.am    1  UNL1       -0.2203
     21 C          -3.6148    4.5119   26.2878 C.2     1  UNL1        0.2524
     22 O          -4.4981    4.2835   27.4784 O.2     1  UNL1       -0.2698
     23 C          -3.9183    4.1101   24.8748 C.2     1  UNL1        0.0496
     24 C          -2.7640    4.5321   24.0149 C.2     1  UNL1        0.1032
     25 C          -1.7471    5.1948   24.8963 C.2     1  UNL1        0.2683
     26 O          -0.4349    5.7691   24.4512 O.2     1  UNL1       -0.2681
     27 N          -2.7880    4.2585   22.5402 N.pl3   1  UNL1       -0.2964
     28 C          -3.9662    3.5629   21.9255 C.3     1  UNL1        0.0917
     29 C          -5.1204    3.1409   22.7855 C.3     1  UNL1        0.0263
     30 C          -5.0965    3.4145   24.2601 C.3     1  UNL1        0.0342
@<TRIPOS>BOND
     1    19    20    1
     2    20    21   am
     3    21    22    2
     4    21    23    1
     5    23    24    2
     6    24    25    1
     7    25    26    2
     8    24    27    1
     9    27    18    1
    10    18     1    1
    11     1     2    2
    12     1     3   am
    13     3     5    1
    14     5     6   ar
    15     6     7   ar
    16     7     8   ar
    17     8    11    1
    18    11    12   ar
    19    12    13   ar
    20    13    14   ar
    21    14    15   ar
    22    15    16    1
    23    15    17   ar
    24     8     9   ar
    25     9    10   ar
    26    27    28    1
    27    28    29    1
    28    29    30    1
    29    25    20   am
    30    10     5   ar
    31    30    23    1
    32    17    11   ar
    33     3     4    1
@<TRIPOS>MOLECULE
*****
 30 33 0 0 0
SMALL
GASTEIGER

@<TRIPOS>ATOM
      1 C           1.8764    1.3925   18.7298 C.2     1  UNL1        0.2474
      2 O           0.9095    0.5931   17.9074 O.2     1  UNL1       -0.2729
      3 N           1.3872    2.5522   19.5457 N.am    1  UNL1       -0.2665
      4 H           2.0218    3.0768   20.0854 H       1  UNL1        0.1564
      5 C          -0.0688    2.9126   19.5393 C.ar    1  UNL1        0.1560
      6 C          -0.6393    3.7090   18.4033 C.ar    1  UNL1        0.0379
      7 C          -2.0954    4.0694   18.3969 C.ar    1  UNL1        0.0239
      8 C          -2.9809    3.6334   19.5264 C.ar    1  UNL1        0.1045
      9 N          -2.4104    2.8371   20.6623 N.ar    1  UNL1       -0.1467
     10 N          -0.9543    2.4767   20.6687 N.ar    1  UNL1       -0.1328
     11 C          -4.4369    3.9939   19.5200 C.ar    1  UNL1        0.0408
     12 C          -5.1975    4.0197   18.2273 C.ar    1  UNL1        0.1005
     13 N          -6.6535    4.3801   18.2209 N.ar    1  UNL1       -0.2399
     14 C          -7.3490    4.7147   19.5072 C.ar    1  UNL1        0.1284
     15 C          -6.5885    4.6888   20.7998 C.ar    1  UNL1        0.1593
     16 F          -7.2840    5.0233   22.0861 F       1  UNL1       -0.2025
     17 C          -5.1324    4.3284   20.8062 C.ar    1  UNL1        0.0344
     18 C           3.3324    1.0320   18.7362 C.3     1  UNL1        0.1775
     19 C           3.5364   -0.7593   24.3784 C.3     1  UNL1        0.1235
     20 N           3.7261   -1.0544   22.9200 N.am    1  UNL1       -0.2203
     21 C           4.1815   -2.3591   22.3364 C.2     1  UNL1        0.2524
     22 O           4.5271   -3.5976   23.1088 O.2     1  UNL1       -0.2698
     23 C           4.2307   -2.2078   20.8449 C.2     1  UNL1        0.0496
     24 C           3.8057   -0.8096   20.5066 C.2     1  UNL1        0.1032
     25 C           3.4938   -0.0968   21.7891 C.2     1  UNL1        0.2683
     26 O           3.0309    1.3242   21.9180 O.2     1  UNL1       -0.2681
     27 N           3.7575   -0.3662   19.0745 N.pl3   1  UNL1       -0.2964
     28 C           4.1343   -1.3209   17.9806 C.3     1  UNL1        0.0917
     29 C           4.5593   -2.7190   18.3189 C.3     1  UNL1        0.0263
     30 C           4.6075   -3.1625   19.7511 C.3     1  UNL1        0.0342
@<TRIPOS>BOND
     1    19    20    1
     2    20    21   am
     3    21    22    2
     4    21    23    1
     5    23    24    2
     6    24    25    1
     7    25    26    2
     8    24    27    1
     9    27    18    1
    10    18     1    1
    11     1     2    2
    12     1     3   am
    13     3     5    1
    14     5     6   ar
    15     6     7   ar
    16     7     8   ar
    17     8    11    1
    18    11    12   ar
    19    12    13   ar
    20    13    14   ar
    21    14    15   ar
    22    15    16    1
    23    15    17   ar
    24     8     9   ar
    25     9    10   ar
    26    27    28    1
    27    28    29    1
    28    29    30    1
    29    25    20   am
    30    10     5   ar
    31    30    23    1
    32    17    11   ar
    33     3     4    1
@<TRIPOS>MOLECULE
*****
 30 33 0 0 0
SMALL
GASTEIGER

@<TRIPOS>ATOM
      1 C          -0.8428    3.2188   20.0107 C.2     1  UNL1        0.2474
      2 O          -1.1962    2.0990   20.9442 O.2     1  UNL1       -0.2729
      3 N           0.4327    3.1645   19.2233 N.am    1  UNL1       -0.2665
      4 H           0.6647    3.8994   18.6107 H       1  UNL1        0.1564
      5 C           1.3549    1.9905   19.3693 C.ar    1  UNL1        0.1560
      6 C           1.3171    0.8775   18.3643 C.ar    1  UNL1        0.0379
      7 C           2.2392   -0.2965   18.5103 C.ar    1  UNL1        0.0239
      8 C           3.1991   -0.3576   19.6613 C.ar    1  UNL1        0.1045
      9 N           3.2369    0.7553   20.6663 N.ar    1  UNL1       -0.1467
     10 N           2.3148    1.9293   20.5203 N.ar    1  UNL1       -0.1328
     11 C           4.1213   -1.5316   19.8073 C.ar    1  UNL1        0.0408
     12 C           5.2464   -1.4829   20.7982 C.ar    1  UNL1        0.1005
     13 N           6.1685   -2.6570   20.9442 N.ar    1  UNL1       -0.2399
     14 C           5.9655   -3.8797   20.0993 C.ar    1  UNL1        0.1284
     15 C           4.8404   -3.9284   19.1085 C.ar    1  UNL1        0.1593
     16 F           4.6374   -5.1511   18.2636 F       1  UNL1       -0.2025
     17 C           3.9183   -2.7543   18.9625 C.ar    1  UNL1        0.0344
     18 C          -1.7649    4.3928   19.8647 C.3     1  UNL1        0.1775
     19 C          -4.9430    4.6822   24.8548 C.3     1  UNL1        0.1235
     20 N          -4.8816    4.4728   23.3707 N.am    1  UNL1       -0.2203
     21 C          -6.0467    4.1784   22.4730 C.2     1  UNL1        0.2524
     22 O          -7.4776    4.0417   22.9016 O.2     1  UNL1       -0.2698
     23 C          -5.5296    4.0447   21.0713 C.2     1  UNL1        0.0496
     24 C          -4.0450    4.2565   21.1027 C.2     1  UNL1        0.1032
     25 C          -3.6445    4.5211   22.5239 C.2     1  UNL1        0.2683
     26 O          -2.2515    4.7872   23.0124 O.2     1  UNL1       -0.2681
     27 N          -3.2496    4.1810   19.8332 N.pl3   1  UNL1       -0.2964
     28 C          -3.9388    3.8938   18.5323 C.3     1  UNL1        0.0917
     29 C          -5.4234    3.6820   18.5009 C.3     1  UNL1        0.0263
     30 C          -6.2188    3.7574   19.7704 C.3     1  UNL1        0.0342
@<TRIPOS>BOND
     1    19    20    1
     2    20    21   am
     3    21    22    2
     4    21    23    1
     5    23    24    2
     6    24    25    1
     7    25    26    2
     8    24    27    1
     9    27    18    1
    10    18     1    1
    11     1     2    2
    12     1     3   am
    13     3     5    1
    14     5     6   ar
    15     6     7   ar
    16     7     8   ar
    17     8    11    1
    18    11    12   ar
    19    12    13   ar
    20    13    14   ar
    21    14    15   ar
    22    15    16    1
    23    15    17   ar
    24     8     9   ar
    25     9    10   ar
    26    27    28    1
    27    28    29    1
    28    29    30    1
    29    25    20   am
    30    10     5   ar
    31    30    23    1
    32    17    11   ar
    33     3     4    1
@<TRIPOS>MOLECULE
*****
 30 33 0 0 0
SMALL
GASTEIGER

@<TRIPOS>ATOM
      1 C           7.6626   -3.5362   22.1236 C.2     1  UNL1        0.2474
      2 O           9.0047   -3.1976   22.7017 O.2     1  UNL1       -0.2729
      3 N           6.6523   -4.2715   22.9535 N.am    1  UNL1       -0.2665
      4 H           5.7715   -4.4937   22.5741 H       1  UNL1        0.1564
      5 C           6.9841   -4.6681   24.3616 C.ar    1  UNL1        0.1560
      6 C           7.7448   -5.9340   24.6247 C.ar    1  UNL1        0.0379
      7 C           8.0766   -6.3307   26.0327 C.ar    1  UNL1        0.0239
      8 C           7.6477   -5.4615   27.1776 C.ar    1  UNL1        0.1045
      9 N           6.8871   -4.1958   26.9145 N.ar    1  UNL1       -0.1467
     10 N           6.5553   -3.7991   25.5065 N.ar    1  UNL1       -0.1328
     11 C           7.9795   -5.8582   28.5856 C.ar    1  UNL1        0.0408
     12 C           9.1776   -6.7183   28.8600 C.ar    1  UNL1        0.1005
     13 N           9.5094   -7.1150   30.2680 N.ar    1  UNL1       -0.2399
     14 C           8.6432   -6.6516   31.4017 C.ar    1  UNL1        0.1284
     15 C           7.4452   -5.7916   31.1273 C.ar    1  UNL1        0.1593
     16 F           6.5790   -5.3283   32.2609 F       1  UNL1       -0.2025
     17 C           7.1134   -5.3949   29.7193 C.ar    1  UNL1        0.0344
     18 C           7.3308   -3.1395   20.7156 C.3     1  UNL1        0.1775
     19 C           3.2197    1.0090   21.7022 C.3     1  UNL1        0.1235
     20 N           3.6070   -0.3125   21.1074 N.am    1  UNL1       -0.2203
     21 C           2.7050   -1.2311   20.3376 C.2     1  UNL1        0.2524
     22 O           1.2574   -0.9896   20.0274 O.2     1  UNL1       -0.2698
     23 C           3.5048   -2.4337   19.9323 C.2     1  UNL1        0.0496
     24 C           4.9010   -2.2583   20.4517 C.2     1  UNL1        0.1032
     25 C           4.9642   -0.9473   21.1779 C.2     1  UNL1        0.2683
     26 O           6.1724   -0.3721   21.8556 O.2     1  UNL1       -0.2681
     27 N           5.9345   -3.3150   20.1962 N.pl3   1  UNL1       -0.2964
     28 C           5.5718   -4.5471   19.4214 C.3     1  UNL1        0.0917
     29 C           4.1755   -4.7225   18.9021 C.3     1  UNL1        0.0263
     30 C           3.1420   -3.6658   19.1575 C.3     1  UNL1        0.0342
@<TRIPOS>BOND
     1    19    20    1
     2    20    21   am
     3    21    22    2
     4    21    23    1
     5    23    24    2
     6    24    25    1
     7    25    26    2
     8    24    27    1
     9    27    18    1
    10    18     1    1
    11     1     2    2
    12     1     3   am
    13     3     5    1
    14     5     6   ar
    15     6     7   ar
    16     7     8   ar
    17     8    11    1
    18    11    12   ar
    19    12    13   ar
    20    13    14   ar
    21    14    15   ar
    22    15    16    1
    23    15    17   ar
    24     8     9   ar
    25     9    10   ar
    26    27    28    1
    27    28    29    1
    28    29    30    1
    29    25    20   am
    30    10     5   ar
    31    30    23    1
    32    17    11   ar
    33     3     4    1
@<TRIPOS>MOLECULE
*****
 30 33 0 0 0
SMALL
GASTEIGER

@<TRIPOS>ATOM
      1 C           5.4784   -3.7316   20.2003 C.2     1  UNL1        0.2474
      2 O           4.4167   -4.6051   20.8003 O.2     1  UNL1       -0.2729
      3 N           6.6629   -3.3185   21.0225 N.am    1  UNL1       -0.2665
      4 H           7.3597   -2.7452   20.6287 H       1  UNL1        0.1564
      5 C           6.7859   -3.7788   22.4448 C.ar    1  UNL1        0.1560
      6 C           6.2225   -2.9422   23.5552 C.ar    1  UNL1        0.0379
      7 C           6.3455   -3.4025   24.9776 C.ar    1  UNL1        0.0239
      8 C           7.0317   -4.6994   25.2895 C.ar    1  UNL1        0.1045
      9 N           7.5950   -5.5359   24.1791 N.ar    1  UNL1       -0.1467
     10 N           7.4721   -5.0756   22.7568 N.ar    1  UNL1       -0.1328
     11 C           7.1547   -5.1597   26.7118 C.ar    1  UNL1        0.0408
     12 C           6.4805   -4.3914   27.8097 C.ar    1  UNL1        0.1005
     13 N           6.6034   -4.8517   29.2320 N.ar    1  UNL1       -0.2399
     14 C           7.4006   -6.0803   29.5565 C.ar    1  UNL1        0.1284
     15 C           8.0747   -6.8485   28.4586 C.ar    1  UNL1        0.1593
     16 F           8.8719   -8.0771   28.7831 F       1  UNL1       -0.2025
     17 C           7.9518   -6.3882   27.0363 C.ar    1  UNL1        0.0344
     18 C           5.3554   -3.2713   18.7779 C.3     1  UNL1        0.1775
     19 C           0.9366    0.6057   19.5047 C.3     1  UNL1        0.1235
     20 N           2.3497    0.3175   19.0920 N.am    1  UNL1       -0.2203
     21 C           3.3390    1.3194   18.5748 C.2     1  UNL1        0.2524
     22 O           3.0889    2.7855   18.3797 O.2     1  UNL1       -0.2698
     23 C           4.6222    0.5980   18.2871 C.2     1  UNL1        0.0496
     24 C           4.4260   -0.8499   18.6264 C.2     1  UNL1        0.1032
     25 C           3.0215   -1.0233   19.1238 C.2     1  UNL1        0.2683
     26 O           2.3983   -2.3113   19.5741 O.2     1  UNL1       -0.2681
     27 N           5.5516   -1.8234   18.4386 N.pl3   1  UNL1       -0.2964
     28 C           6.8734   -1.3490   17.9115 C.3     1  UNL1        0.0917
     29 C           7.0696    0.0988   17.5722 C.3     1  UNL1        0.0263
     30 C           5.9439    1.0723   17.7600 C.3     1  UNL1        0.0342
@<TRIPOS>BOND
     1    19    20    1
     2    20    21   am
     3    21    22    2
     4    21    23    1
     5    23    24    2
     6    24    25    1
     7    25    26    2
     8    24    27    1
     9    27    18    1
    10    18     1    1
    11     1     2    2
    12     1     3   am
    13     3     5    1
    14     5     6   ar
    15     6     7   ar
    16     7     8   ar
    17     8    11    1
    18    11    12   ar
    19    12    13   ar
    20    13    14   ar
    21    14    15   ar
    22    15    16    1
    23    15    17   ar
    24     8     9   ar
    25     9    10   ar
    26    27    28    1
    27    28    29    1
    28    29    30    1
    29    25    20   am
    30    10     5   ar
    31    30    23    1
    32    17    11   ar
    33     3     4    1
