@<TRIPOS>MOLECULE
*****
 31 34 0 0 0
SMALL
GASTEIGER

@<TRIPOS>ATOM
      1 C          -8.6094  -16.0108   26.0267 C.ar    1  UNL1        0.1311
      2 C          -9.1352  -15.4221   24.7512 C.ar    1  UNL1        0.0339
      3 C          -9.9679  -16.2592   23.8262 C.ar    1  UNL1        0.0027
      4 C         -10.2748  -17.6851   24.1766 C.ar    1  UNL1        0.0283
      5 C          -9.7489  -18.2738   25.4521 C.ar    1  UNL1        0.2196
      6 F         -10.0558  -19.6996   25.8025 F       1  UNL1       -0.1835
      7 N          -8.9162  -17.4366   26.3771 N.ar    1  UNL1       -0.2035
      8 N          -7.7766  -15.1737   26.9518 N.pl3   1  UNL1       -0.3144
      9 H          -8.2069  -14.5043   27.5314 H       1  UNL1        0.1485
     10 C          -6.2884  -15.3565   26.9939 C.3     1  UNL1        0.1170
     11 C          -4.0369  -16.3545   23.2277 C.ar    1  UNL1        0.2533
     12 N          -4.8863  -15.1198   23.2888 N.ar    1  UNL1       -0.2085
     13 C          -5.6368  -14.7871   24.5442 C.ar    1  UNL1        0.0995
     14 C          -5.5379  -15.6893   25.7385 C.ar    1  UNL1        0.0190
     15 C          -4.6884  -16.9240   25.6774 C.ar    1  UNL1        0.0334
     16 C          -3.9379  -17.2567   24.4220 C.ar    1  UNL1        0.1927
     17 F          -3.0884  -18.4914   24.3609 F       1  UNL1       -0.1993
     18 C          -1.9361  -16.0831   21.7233 C.3     1  UNL1        0.2543
     19 O          -3.2863  -16.6873   21.9723 O.3     1  UNL1       -0.4546
     20 C         -11.1075  -18.5223   23.2514 C.3     1  UNL1        0.0582
     21 C         -10.6603  -18.7486   21.8376 C.ar    1  UNL1        0.0044
     22 C         -11.5327  -18.6994   20.6184 C.ar    1  UNL1        0.0966
     23 N         -10.6737  -18.9843   19.4221 N.ar    1  UNL1       -0.2273
     24 C          -9.2705  -19.2096   19.9021 C.ar    1  UNL1        0.1403
     25 N          -7.9993  -19.5285   19.1726 N.ar    1  UNL1       -0.3367
     26 C          -6.7198  -19.7018   19.9359 C.ar    1  UNL1        0.0850
     27 C          -6.7115  -19.5562   21.4288 C.ar    1  UNL1        0.0747
     28 CL         -5.4320  -19.7295   22.1922 Cl      1  UNL1       -0.0807
     29 C          -7.9828  -19.2372   22.1583 C.ar    1  UNL1        0.0156
     30 C          -9.2623  -19.0639   21.3949 C.ar    1  UNL1        0.0327
     31 H          -8.0047  -19.6241   18.1927 H       1  UNL1        0.1674
@<TRIPOS>BOND
     1    18    19    1
     2    19    11    1
     3    11    12   ar
     4    12    13   ar
     5    13    14   ar
     6    14    10    1
     7    10     8    1
     8     8     1    1
     9     1     2   ar
    10     2     3   ar
    11     3     4   ar
    12     4    20    1
    13    20    21    1
    14    21    22   ar
    15    22    23   ar
    16    23    24   ar
    17    24    25   ar
    18    25    26   ar
    19    26    27   ar
    20    27    28    1
    21    27    29   ar
    22    29    30   ar
    23     4     5   ar
    24     5     6    1
    25     5     7   ar
    26    14    15   ar
    27    15    16   ar
    28    16    17    1
    29    16    11   ar
    30     7     1   ar
    31    30    21   ar
    32    30    24    1
    33     8     9    1
    34    25    31    1
@<TRIPOS>MOLECULE
*****
 31 34 0 0 0
SMALL
GASTEIGER

@<TRIPOS>ATOM
      1 C          -6.2999  -15.9396   24.5569 C.ar    1  UNL1        0.1311
      2 C          -6.8020  -15.2508   23.3226 C.ar    1  UNL1        0.0339
      3 C          -8.2564  -15.3228   22.9628 C.ar    1  UNL1        0.0027
      4 C          -9.2087  -16.0835   23.8371 C.ar    1  UNL1        0.0283
      5 C          -8.7066  -16.7723   25.0714 C.ar    1  UNL1        0.2196
      6 F          -9.6588  -17.5329   25.9458 F       1  UNL1       -0.1835
      7 N          -7.2522  -16.7003   25.4313 N.ar    1  UNL1       -0.2035
      8 N          -4.8456  -15.8676   24.9169 N.pl3   1  UNL1       -0.3144
      9 H          -4.4780  -15.0477   25.3192 H       1  UNL1        0.1485
     10 C          -3.9511  -17.0449   24.6639 C.3     1  UNL1        0.1170
     11 C          -2.8753  -18.1879   20.4465 C.ar    1  UNL1        0.2533
     12 N          -2.5191  -16.8277   20.9690 N.ar    1  UNL1       -0.2085
     13 C          -2.8777  -16.4467   22.3748 C.ar    1  UNL1        0.0995
     14 C          -3.5925  -17.4260   23.2581 C.ar    1  UNL1        0.0190
     15 C          -3.9486  -18.7862   22.7356 C.ar    1  UNL1        0.0334
     16 C          -3.5900  -19.1671   21.3298 C.ar    1  UNL1        0.1927
     17 F          -3.9462  -20.5273   20.8074 F       1  UNL1       -0.1993
     18 C          -1.5300  -17.7442   18.2686 C.3     1  UNL1        0.2543
     19 O          -2.5167  -18.5689   19.0408 O.3     1  UNL1       -0.4546
     20 C         -10.6632  -16.1555   23.4772 C.3     1  UNL1        0.0582
     21 C         -11.0822  -16.7439   22.1626 C.ar    1  UNL1        0.0044
     22 C         -12.3502  -16.4357   21.4228 C.ar    1  UNL1        0.0966
     23 N         -12.3585  -17.2451   20.1600 N.ar    1  UNL1       -0.2273
     24 C         -11.0956  -18.0535   20.1192 C.ar    1  UNL1        0.1403
     25 N         -10.5620  -19.0317   19.1151 N.ar    1  UNL1       -0.3367
     26 C          -9.2397  -19.7000   19.3486 C.ar    1  UNL1        0.0850
     27 C          -8.4509  -19.3903   20.5863 C.ar    1  UNL1        0.0747
     28 CL         -7.1284  -20.0587   20.8197 Cl      1  UNL1       -0.0807
     29 C          -8.9845  -18.4121   21.5904 C.ar    1  UNL1        0.0156
     30 C         -10.3068  -17.7437   21.3569 C.ar    1  UNL1        0.0327
     31 H         -11.0797  -19.2350   18.3027 H       1  UNL1        0.1674
@<TRIPOS>BOND
     1    18    19    1
     2    19    11    1
     3    11    12   ar
     4    12    13   ar
     5    13    14   ar
     6    14    10    1
     7    10     8    1
     8     8     1    1
     9     1     2   ar
    10     2     3   ar
    11     3     4   ar
    12     4    20    1
    13    20    21    1
    14    21    22   ar
    15    22    23   ar
    16    23    24   ar
    17    24    25   ar
    18    25    26   ar
    19    26    27   ar
    20    27    28    1
    21    27    29   ar
    22    29    30   ar
    23     4     5   ar
    24     5     6    1
    25     5     7   ar
    26    14    15   ar
    27    15    16   ar
    28    16    17    1
    29    16    11   ar
    30     7     1   ar
    31    30    21   ar
    32    30    24    1
    33     8     9    1
    34    25    31    1
@<TRIPOS>MOLECULE
*****
 31 34 0 0 0
SMALL
GASTEIGER

@<TRIPOS>ATOM
      1 C          -5.7411  -15.7726   25.9867 C.ar    1  UNL1        0.1311
      2 C          -4.8999  -17.0146   25.9914 C.ar    1  UNL1        0.0339
      3 C          -4.0081  -17.3207   24.8248 C.ar    1  UNL1        0.0027
      4 C          -3.9575  -16.3849   23.6536 C.ar    1  UNL1        0.0283
      5 C          -4.7987  -15.1430   23.6489 C.ar    1  UNL1        0.2196
      6 F          -4.7480  -14.2072   22.4777 F       1  UNL1       -0.1835
      7 N          -5.6904  -14.8369   24.8155 N.ar    1  UNL1       -0.2035
      8 N          -6.6329  -15.4664   27.1533 N.pl3   1  UNL1       -0.3144
      9 H          -6.2439  -15.3256   28.0466 H       1  UNL1        0.1485
     10 C          -8.1175  -15.3748   26.9588 C.3     1  UNL1        0.1170
     11 C         -10.1347  -17.8881   23.8182 C.ar    1  UNL1        0.2533
     12 N          -9.7950  -16.4561   23.5286 N.ar    1  UNL1       -0.2085
     13 C          -9.1226  -15.6183   24.5755 C.ar    1  UNL1        0.0995
     14 C          -8.7899  -16.2126   25.9120 C.ar    1  UNL1        0.0190
     15 C          -9.1296  -17.6446   26.2016 C.ar    1  UNL1        0.0334
     16 C          -9.8020  -18.4824   25.1547 C.ar    1  UNL1        0.1927
     17 F         -10.1417  -19.9144   25.4442 F       1  UNL1       -0.1993
     18 C         -11.5298  -18.0673   21.6338 C.3     1  UNL1        0.2543
     19 O         -10.8071  -18.7259   22.7714 O.3     1  UNL1       -0.4546
     20 C          -3.0656  -16.6911   22.4869 C.3     1  UNL1        0.0582
     21 C          -3.0254  -18.0782   21.9173 C.ar    1  UNL1        0.0044
     22 C          -1.7993  -18.9246   21.7433 C.ar    1  UNL1        0.0966
     23 N          -2.2205  -20.2319   21.1402 N.ar    1  UNL1       -0.2273
     24 C          -3.7068  -20.1934   20.9415 C.ar    1  UNL1        0.1403
     25 N          -4.6714  -21.1984   20.3854 N.ar    1  UNL1       -0.3367
     26 C          -6.1335  -20.8723   20.3095 C.ar    1  UNL1        0.0850
     27 C          -6.6310  -19.5412   20.7898 C.ar    1  UNL1        0.0747
     28 CL         -8.0932  -19.2152   20.7139 Cl      1  UNL1       -0.0807
     29 C          -5.6664  -18.5362   21.3460 C.ar    1  UNL1        0.0156
     30 C          -4.2043  -18.8623   21.4219 C.ar    1  UNL1        0.0327
     31 H          -4.3449  -22.0720   20.0701 H       1  UNL1        0.1674
@<TRIPOS>BOND
     1    18    19    1
     2    19    11    1
     3    11    12   ar
     4    12    13   ar
     5    13    14   ar
     6    14    10    1
     7    10     8    1
     8     8     1    1
     9     1     2   ar
    10     2     3   ar
    11     3     4   ar
    12     4    20    1
    13    20    21    1
    14    21    22   ar
    15    22    23   ar
    16    23    24   ar
    17    24    25   ar
    18    25    26   ar
    19    26    27   ar
    20    27    28    1
    21    27    29   ar
    22    29    30   ar
    23     4     5   ar
    24     5     6    1
    25     5     7   ar
    26    14    15   ar
    27    15    16   ar
    28    16    17    1
    29    16    11   ar
    30     7     1   ar
    31    30    21   ar
    32    30    24    1
    33     8     9    1
    34    25    31    1
@<TRIPOS>MOLECULE
*****
 31 34 0 0 0
SMALL
GASTEIGER

@<TRIPOS>ATOM
      1 C          -0.7009    2.2507   20.3052 C.ar    1  UNL1        0.1311
      2 C           0.0825    3.0712   19.3237 C.ar    1  UNL1        0.0339
      3 C           1.2328    2.4572   18.5824 C.ar    1  UNL1        0.0027
      4 C           1.5998    1.0227   18.8224 C.ar    1  UNL1        0.0283
      5 C           0.8164    0.2022   19.8038 C.ar    1  UNL1        0.2196
      6 F           1.1834   -1.2322   20.0439 F       1  UNL1       -0.1835
      7 N          -0.3339    0.8163   20.5452 N.ar    1  UNL1       -0.2035
      8 N          -1.8513    2.8647   21.0465 N.pl3   1  UNL1       -0.3144
      9 H          -1.7885    3.0119   22.0180 H       1  UNL1        0.1485
     10 C          -3.0973    3.2545   20.3079 C.3     1  UNL1        0.1170
     11 C          -6.8511    4.2342   22.5880 C.ar    1  UNL1        0.2533
     12 N          -6.8065    4.4221   21.1004 N.ar    1  UNL1       -0.2085
     13 C          -5.5552    4.0955   20.3405 C.ar    1  UNL1        0.0995
     14 C          -4.3486    3.5810   21.0680 C.ar    1  UNL1        0.0190
     15 C          -4.3932    3.3932   22.5555 C.ar    1  UNL1        0.0334
     16 C          -5.6445    3.7198   23.3155 C.ar    1  UNL1        0.1927
     17 F          -5.6891    3.5319   24.8030 F       1  UNL1       -0.1993
     18 C          -8.1699    5.8057   24.1821 C.3     1  UNL1        0.2543
     19 O          -8.1024    4.5608   23.3480 O.3     1  UNL1       -0.4546
     20 C           2.7502    0.4087   18.0810 C.3     1  UNL1        0.0582
     21 C           4.0372    0.1233   18.7968 C.ar    1  UNL1        0.0044
     22 C           4.9844    1.1467   19.3494 C.ar    1  UNL1        0.0966
     23 N           6.1354    0.4203   19.9798 N.ar    1  UNL1       -0.2273
     24 C           5.8996   -1.0521   19.8168 C.ar    1  UNL1        0.1403
     25 N           6.6981   -2.2493   20.2397 N.ar    1  UNL1       -0.3367
     26 C           6.1998   -3.6301   19.9315 C.ar    1  UNL1        0.0850
     27 C           4.9030   -3.8137   19.2004 C.ar    1  UNL1        0.0747
     28 CL          4.4047   -5.1946   18.8921 Cl      1  UNL1       -0.0807
     29 C           4.1044   -2.6164   18.7775 C.ar    1  UNL1        0.0156
     30 C           4.6027   -1.2356   19.0857 C.ar    1  UNL1        0.0327
     31 H           7.5492   -2.1289   20.7196 H       1  UNL1        0.1674
@<TRIPOS>BOND
     1    18    19    1
     2    19    11    1
     3    11    12   ar
     4    12    13   ar
     5    13    14   ar
     6    14    10    1
     7    10     8    1
     8     8     1    1
     9     1     2   ar
    10     2     3   ar
    11     3     4   ar
    12     4    20    1
    13    20    21    1
    14    21    22   ar
    15    22    23   ar
    16    23    24   ar
    17    24    25   ar
    18    25    26   ar
    19    26    27   ar
    20    27    28    1
    21    27    29   ar
    22    29    30   ar
    23     4     5   ar
    24     5     6    1
    25     5     7   ar
    26    14    15   ar
    27    15    16   ar
    28    16    17    1
    29    16    11   ar
    30     7     1   ar
    31    30    21   ar
    32    30    24    1
    33     8     9    1
    34    25    31    1
@<TRIPOS>MOLECULE
*****
 31 34 0 0 0
SMALL
GASTEIGER

@<TRIPOS>ATOM
      1 C         -11.2316   -6.8653   18.2043 C.ar    1  UNL1        0.1311
      2 C         -11.4468   -7.5493   16.8868 C.ar    1  UNL1        0.0339
      3 C         -12.8314   -7.9393   16.4616 C.ar    1  UNL1        0.0027
      4 C         -14.0007   -7.6453   17.3538 C.ar    1  UNL1        0.0283
      5 C         -13.7856   -6.9613   18.6713 C.ar    1  UNL1        0.2196
      6 F         -14.9550   -6.6673   19.5635 F       1  UNL1       -0.1835
      7 N         -12.4010   -6.5713   19.0965 N.ar    1  UNL1       -0.2035
      8 N          -9.8471   -6.4753   18.6296 N.pl3   1  UNL1       -0.3144
      9 H          -9.1148   -7.1317   18.5836 H       1  UNL1        0.1485
     10 C          -9.5782   -5.0852   19.1249 C.3     1  UNL1        0.1170
     11 C         -11.4230   -1.5546   17.0318 C.ar    1  UNL1        0.2533
     12 N         -10.2665   -2.2769   16.4066 N.ar    1  UNL1       -0.2085
     13 C          -9.6516   -3.4537   17.1044 C.ar    1  UNL1        0.0995
     14 C         -10.1932   -3.9083   18.4273 C.ar    1  UNL1        0.0190
     15 C         -11.3497   -3.1860   19.0524 C.ar    1  UNL1        0.0334
     16 C         -11.9646   -2.0092   18.3547 C.ar    1  UNL1        0.1927
     17 F         -13.1211   -1.2869   18.9798 F       1  UNL1       -0.1993
     18 C         -11.8796    1.0000   16.9059 C.3     1  UNL1        0.2543
     19 O         -12.0380   -0.3777   16.3341 O.3     1  UNL1       -0.4546
     20 C         -15.3854   -8.0354   16.9285 C.3     1  UNL1        0.0582
     21 C         -16.2074   -8.9445   17.7932 C.ar    1  UNL1        0.0044
     22 C         -15.9105  -10.3843   18.0911 C.ar    1  UNL1        0.0966
     23 N         -16.9903  -10.9030   18.9939 N.ar    1  UNL1       -0.2273
     24 C         -17.9545   -9.7838   19.2539 C.ar    1  UNL1        0.1403
     25 N         -19.2106   -9.7106   20.0705 N.ar    1  UNL1       -0.3367
     26 C         -19.9828   -8.4268   20.1450 C.ar    1  UNL1        0.0850
     27 C         -19.4990   -7.2163   19.4030 C.ar    1  UNL1        0.0747
     28 CL        -20.2713   -5.9325   19.4775 Cl      1  UNL1       -0.0807
     29 C         -18.2429   -7.2896   18.5864 C.ar    1  UNL1        0.0156
     30 C         -17.4707   -8.5734   18.5118 C.ar    1  UNL1        0.0327
     31 H         -19.5282  -10.5050   20.5575 H       1  UNL1        0.1674
@<TRIPOS>BOND
     1    18    19    1
     2    19    11    1
     3    11    12   ar
     4    12    13   ar
     5    13    14   ar
     6    14    10    1
     7    10     8    1
     8     8     1    1
     9     1     2   ar
    10     2     3   ar
    11     3     4   ar
    12     4    20    1
    13    20    21    1
    14    21    22   ar
    15    22    23   ar
    16    23    24   ar
    17    24    25   ar
    18    25    26   ar
    19    26    27   ar
    20    27    28    1
    21    27    29   ar
    22    29    30   ar
    23     4     5   ar
    24     5     6    1
    25     5     7   ar
    26    14    15   ar
    27    15    16   ar
    28    16    17    1
    29    16    11   ar
    30     7     1   ar
    31    30    21   ar
    32    30    24    1
    33     8     9    1
    34    25    31    1
@<TRIPOS>MOLECULE
*****
 31 34 0 0 0
SMALL
GASTEIGER

@<TRIPOS>ATOM
      1 C         -12.9271   -7.7932   17.3459 C.ar    1  UNL1        0.1311
      2 C         -13.5862   -7.1910   16.1406 C.ar    1  UNL1        0.0339
      3 C         -15.0481   -6.8567   16.1737 C.ar    1  UNL1        0.0027
      4 C         -15.8509   -7.1245   17.4122 C.ar    1  UNL1        0.0283
      5 C         -15.1917   -7.7267   18.6176 C.ar    1  UNL1        0.2196
      6 F         -15.9945   -7.9945   19.8561 F       1  UNL1       -0.1835
      7 N         -13.7299   -8.0610   18.5844 N.ar    1  UNL1       -0.2035
      8 N         -11.4653   -8.1276   17.3129 N.pl3   1  UNL1       -0.3144
      9 H         -11.1450   -8.8812   16.7664 H       1  UNL1        0.1485
     10 C         -10.4913   -7.3137   18.1124 C.3     1  UNL1        0.1170
     11 C         -10.8781   -2.8323   18.2430 C.ar    1  UNL1        0.2533
     12 N          -9.9257   -3.4751   17.2788 N.ar    1  UNL1       -0.2085
     13 C          -9.7968   -4.9689   17.2353 C.ar    1  UNL1        0.0995
     14 C         -10.6203   -5.8199   18.1560 C.ar    1  UNL1        0.0190
     15 C         -11.5727   -5.1771   19.1202 C.ar    1  UNL1        0.0334
     16 C         -11.7016   -3.6833   19.1637 C.ar    1  UNL1        0.1927
     17 F         -12.6541   -3.0405   20.1279 F       1  UNL1       -0.1993
     18 C         -10.6281   -0.5178   17.0896 C.3     1  UNL1        0.2543
     19 O         -11.0071   -1.3385   18.2866 O.3     1  UNL1       -0.4546
     20 C         -17.3128   -6.7901   17.4453 C.3     1  UNL1        0.0582
     21 C         -17.8256   -5.7629   18.4106 C.ar    1  UNL1        0.0044
     22 C         -19.0280   -5.9073   19.2957 C.ar    1  UNL1        0.0966
     23 N         -19.1714   -4.6445   20.0924 N.ar    1  UNL1       -0.2273
     24 C         -18.0576   -3.7196   19.6998 C.ar    1  UNL1        0.1403
     25 N         -17.6934   -2.3374   20.1544 N.ar    1  UNL1       -0.3367
     26 C         -16.4974   -1.6464   19.5697 C.ar    1  UNL1        0.0850
     27 C         -15.6656   -2.3376   18.5303 C.ar    1  UNL1        0.0747
     28 CL        -14.4695   -1.6465   17.9455 Cl      1  UNL1       -0.0807
     29 C         -16.0298   -3.7198   18.0756 C.ar    1  UNL1        0.0156
     30 C         -17.2258   -4.4108   18.6604 C.ar    1  UNL1        0.0327
     31 H         -18.2393   -1.8837   20.8366 H       1  UNL1        0.1674
@<TRIPOS>BOND
     1    18    19    1
     2    19    11    1
     3    11    12   ar
     4    12    13   ar
     5    13    14   ar
     6    14    10    1
     7    10     8    1
     8     8     1    1
     9     1     2   ar
    10     2     3   ar
    11     3     4   ar
    12     4    20    1
    13    20    21    1
    14    21    22   ar
    15    22    23   ar
    16    23    24   ar
    17    24    25   ar
    18    25    26   ar
    19    26    27   ar
    20    27    28    1
    21    27    29   ar
    22    29    30   ar
    23     4     5   ar
    24     5     6    1
    25     5     7   ar
    26    14    15   ar
    27    15    16   ar
    28    16    17    1
    29    16    11   ar
    30     7     1   ar
    31    30    21   ar
    32    30    24    1
    33     8     9    1
    34    25    31    1
@<TRIPOS>MOLECULE
*****
 31 34 0 0 0
SMALL
GASTEIGER

@<TRIPOS>ATOM
      1 C           6.2399   -2.5080   24.7129 C.ar    1  UNL1        0.1311
      2 C           4.8140   -2.1996   24.3639 C.ar    1  UNL1        0.0339
      3 C           4.2428   -2.6695   23.0590 C.ar    1  UNL1        0.0027
      4 C           5.0974   -3.4478   22.1030 C.ar    1  UNL1        0.0283
      5 C           6.5233   -3.7563   22.4520 C.ar    1  UNL1        0.2196
      6 F           7.3779   -4.5346   21.4961 F       1  UNL1       -0.1835
      7 N           7.0945   -3.2864   23.7570 N.ar    1  UNL1       -0.2035
      8 N           6.8111   -2.0382   26.0179 N.pl3   1  UNL1       -0.3144
      9 H           7.7282   -1.6819   26.0539 H       1  UNL1        0.1485
     10 C           5.9852   -2.1112   27.2679 C.3     1  UNL1        0.1170
     11 C           6.8894   -5.2302   30.3830 C.ar    1  UNL1        0.2533
     12 N           6.7848   -5.6210   28.9386 N.ar    1  UNL1       -0.2085
     13 C           6.4834   -4.5813   27.9002 C.ar    1  UNL1        0.0995
     14 C           6.2866   -3.1508   28.3063 C.ar    1  UNL1        0.0190
     15 C           6.3912   -2.7600   29.7507 C.ar    1  UNL1        0.0334
     16 C           6.6926   -3.7997   30.7890 C.ar    1  UNL1        0.1927
     17 F           6.7972   -3.4089   32.2334 F       1  UNL1       -0.1993
     18 C           8.5993   -6.7466   31.6187 C.3     1  UNL1        0.2543
     19 O           7.1908   -6.2698   31.4214 O.3     1  UNL1       -0.4546
     20 C           4.5261   -3.9177   20.7980 C.3     1  UNL1        0.0582
     21 C           4.5042   -2.9970   19.6140 C.ar    1  UNL1        0.0044
     22 C           5.4662   -3.0174   18.4633 C.ar    1  UNL1        0.0966
     23 N           5.0729   -1.9272   17.5110 N.ar    1  UNL1       -0.2273
     24 C           3.8678   -1.2331   18.0732 C.ar    1  UNL1        0.1403
     25 N           3.0451   -0.0844   17.5695 N.ar    1  UNL1       -0.3367
     26 C           1.8710    0.4031   18.3655 C.ar    1  UNL1        0.0850
     27 C           1.5195   -0.2581   19.6653 C.ar    1  UNL1        0.0747
     28 CL          0.3453    0.2295   20.4613 Cl      1  UNL1       -0.0807
     29 C           2.3422   -1.4067   20.1690 C.ar    1  UNL1        0.0156
     30 C           3.5163   -1.8942   19.3729 C.ar    1  UNL1        0.0327
     31 H           3.2758    0.3495   16.7164 H       1  UNL1        0.1674
@<TRIPOS>BOND
     1    18    19    1
     2    19    11    1
     3    11    12   ar
     4    12    13   ar
     5    13    14   ar
     6    14    10    1
     7    10     8    1
     8     8     1    1
     9     1     2   ar
    10     2     3   ar
    11     3     4   ar
    12     4    20    1
    13    20    21    1
    14    21    22   ar
    15    22    23   ar
    16    23    24   ar
    17    24    25   ar
    18    25    26   ar
    19    26    27   ar
    20    27    28    1
    21    27    29   ar
    22    29    30   ar
    23     4     5   ar
    24     5     6    1
    25     5     7   ar
    26    14    15   ar
    27    15    16   ar
    28    16    17    1
    29    16    11   ar
    30     7     1   ar
    31    30    21   ar
    32    30    24    1
    33     8     9    1
    34    25    31    1
@<TRIPOS>MOLECULE
*****
 31 34 0 0 0
SMALL
GASTEIGER

@<TRIPOS>ATOM
      1 C          -0.6548    2.2754   20.5564 C.ar    1  UNL1        0.1311
      2 C           0.0244    3.0508   19.4667 C.ar    1  UNL1        0.0339
      3 C           1.0724    2.3925   18.6192 C.ar    1  UNL1        0.0027
      4 C           1.4412    0.9589   18.8613 C.ar    1  UNL1        0.0283
      5 C           0.7621    0.1835   19.9510 C.ar    1  UNL1        0.2196
      6 F           1.1309   -1.2502   20.1931 F       1  UNL1       -0.1835
      7 N          -0.2859    0.8417   20.7985 N.ar    1  UNL1       -0.2035
      8 N          -1.7028    2.9335   21.4040 N.pl3   1  UNL1       -0.3144
      9 H          -2.6566    2.7737   21.2198 H       1  UNL1        0.1485
     10 C          -1.2976    3.8353   22.5322 C.3     1  UNL1        0.1170
     11 C          -0.8327    2.1708   26.6871 C.ar    1  UNL1        0.2533
     12 N          -1.9498    3.1242   26.3817 N.ar    1  UNL1       -0.2085
     13 C          -2.1047    3.6790   24.9968 C.ar    1  UNL1        0.0995
     14 C          -1.1426    3.2804   23.9172 C.ar    1  UNL1        0.0190
     15 C          -0.0256    2.3270   24.2226 C.ar    1  UNL1        0.0334
     16 C           0.1293    1.7722   25.6075 C.ar    1  UNL1        0.1927
     17 F           1.2464    0.8188   25.9129 F       1  UNL1       -0.1993
     18 C          -1.0206    0.1820   28.3482 C.3     1  UNL1        0.2543
     19 O          -0.6777    1.6160   28.0720 O.3     1  UNL1       -0.4546
     20 C           2.4893    0.3007   18.0137 C.3     1  UNL1        0.0582
     21 C           3.8420    0.0035   18.5897 C.ar    1  UNL1        0.0044
     22 C           4.9211    1.0072   18.8695 C.ar    1  UNL1        0.0966
     23 N           6.0991    0.2744   19.4398 N.ar    1  UNL1       -0.2273
     24 C           5.7481   -1.1821   19.5126 C.ar    1  UNL1        0.1403
     25 N           6.5185   -2.3775   19.9894 N.ar    1  UNL1       -0.3367
     26 C           5.8939   -3.7404   19.9408 C.ar    1  UNL1        0.0850
     27 C           4.4990   -3.9079   19.4154 C.ar    1  UNL1        0.0747
     28 CL          3.8744   -5.2709   19.3669 Cl      1  UNL1       -0.0807
     29 C           3.7286   -2.7125   18.9386 C.ar    1  UNL1        0.0156
     30 C           4.3532   -1.3496   18.9872 C.ar    1  UNL1        0.0327
     31 H           7.4341   -2.2676   20.3343 H       1  UNL1        0.1674
@<TRIPOS>BOND
     1    18    19    1
     2    19    11    1
     3    11    12   ar
     4    12    13   ar
     5    13    14   ar
     6    14    10    1
     7    10     8    1
     8     8     1    1
     9     1     2   ar
    10     2     3   ar
    11     3     4   ar
    12     4    20    1
    13    20    21    1
    14    21    22   ar
    15    22    23   ar
    16    23    24   ar
    17    24    25   ar
    18    25    26   ar
    19    26    27   ar
    20    27    28    1
    21    27    29   ar
    22    29    30   ar
    23     4     5   ar
    24     5     6    1
    25     5     7   ar
    26    14    15   ar
    27    15    16   ar
    28    16    17    1
    29    16    11   ar
    30     7     1   ar
    31    30    21   ar
    32    30    24    1
    33     8     9    1
    34    25    31    1
@<TRIPOS>MOLECULE
*****
 31 34 0 0 0
SMALL
GASTEIGER

@<TRIPOS>ATOM
      1 C           4.8867   -3.9382   21.4611 C.ar    1  UNL1        0.1311
      2 C           4.2366   -3.1315   22.5459 C.ar    1  UNL1        0.0339
      3 C           5.0140   -2.7630   23.7746 C.ar    1  UNL1        0.0027
      4 C           6.4413   -3.2012   23.9187 C.ar    1  UNL1        0.0283
      5 C           7.0913   -4.0078   22.8339 C.ar    1  UNL1        0.2196
      6 F           8.5187   -4.4460   22.9779 F       1  UNL1       -0.1835
      7 N           6.3140   -4.3763   21.6051 N.ar    1  UNL1       -0.2035
      8 N           4.1094   -4.3067   20.2323 N.pl3   1  UNL1       -0.3144
      9 H           3.1840   -4.6326   20.3145 H       1  UNL1        0.1485
     10 C           4.7418   -4.1787   18.8782 C.3     1  UNL1        0.1170
     11 C           5.7172   -0.1082   17.2262 C.ar    1  UNL1        0.2533
     12 N           6.7926   -1.1472   17.3438 N.ar    1  UNL1       -0.2085
     13 C           6.4674   -2.5041   17.8945 C.ar    1  UNL1        0.0995
     14 C           5.0669   -2.8218   18.3275 C.ar    1  UNL1        0.0190
     15 C           3.9915   -1.7827   18.2099 C.ar    1  UNL1        0.0334
     16 C           4.3167   -0.4259   17.6592 C.ar    1  UNL1        0.1927
     17 F           3.2413    0.6132   17.5416 F       1  UNL1       -0.1993
     18 C           7.4344    1.5546   16.2082 C.3     1  UNL1        0.2543
     19 O           6.0423    1.2487   16.6755 O.3     1  UNL1       -0.4546
     20 C           7.2187   -2.8326   25.1475 C.3     1  UNL1        0.0582
     21 C           7.0212   -3.6034   26.4191 C.ar    1  UNL1        0.0044
     22 C           6.2705   -3.1312   27.6288 C.ar    1  UNL1        0.0966
     23 N           6.3252   -4.2177   28.6616 N.ar    1  UNL1       -0.2273
     24 C           7.1096   -5.3614   28.0901 C.ar    1  UNL1        0.1403
     25 N           7.4878   -6.6995   28.6527 N.ar    1  UNL1       -0.3367
     26 C           8.2961   -7.6579   27.8293 C.ar    1  UNL1        0.0850
     27 C           8.7263   -7.2782   26.4434 C.ar    1  UNL1        0.0747
     28 CL          9.5347   -8.2367   25.6200 Cl      1  UNL1       -0.0807
     29 C           8.3481   -5.9402   25.8808 C.ar    1  UNL1        0.0156
     30 C           7.5398   -4.9817   26.7042 C.ar    1  UNL1        0.0327
     31 H           7.2054   -6.9486   29.5623 H       1  UNL1        0.1674
@<TRIPOS>BOND
     1    18    19    1
     2    19    11    1
     3    11    12   ar
     4    12    13   ar
     5    13    14   ar
     6    14    10    1
     7    10     8    1
     8     8     1    1
     9     1     2   ar
    10     2     3   ar
    11     3     4   ar
    12     4    20    1
    13    20    21    1
    14    21    22   ar
    15    22    23   ar
    16    23    24   ar
    17    24    25   ar
    18    25    26   ar
    19    26    27   ar
    20    27    28    1
    21    27    29   ar
    22    29    30   ar
    23     4     5   ar
    24     5     6    1
    25     5     7   ar
    26    14    15   ar
    27    15    16   ar
    28    16    17    1
    29    16    11   ar
    30     7     1   ar
    31    30    21   ar
    32    30    24    1
    33     8     9    1
    34    25    31    1
