@<TRIPOS>MOLECULE
*****
 29 33 0 0 0
SMALL
GASTEIGER

@<TRIPOS>ATOM
      1 O           9.2026   -5.2308   20.6541 O.2     1  UNL1       -0.2638
      2 C           8.0581   -4.5487   21.3433 C.2     1  UNL1        0.3160
      3 N           7.1341   -3.6613   20.5632 N.am    1  UNL1       -0.1720
      4 C           5.9897   -2.9791   21.2524 C.ar    1  UNL1        0.0775
      5 C           5.0657   -2.0917   20.4722 C.ar    1  UNL1        0.0167
      6 C           3.9214   -1.4096   21.1615 C.ar    1  UNL1        0.0013
      7 C           3.7009   -1.6150   22.6309 C.ar    1  UNL1        0.0002
      8 C           4.6249   -2.5024   23.4111 C.ar    1  UNL1        0.0051
      9 C           5.7693   -3.1845   22.7218 C.ar    1  UNL1        0.0623
     10 C           6.6933   -4.0719   23.5020 C.2     1  UNL1        0.2419
     11 N           6.7259   -4.4612   24.9502 N.2     1  UNL1       -0.0302
     12 C           7.8905   -5.3839   25.1561 C.2     1  UNL1        0.3787
     13 N           8.5776   -5.5648   23.8351 N.2     1  UNL1       -0.0255
     14 C           7.8377   -4.7540   22.8128 C.2     1  UNL1        0.2907
     15 C           8.2967   -6.0148   26.4550 C.ar    1  UNL1        0.1263
     16 C           8.0080   -7.4650   26.7070 C.ar    1  UNL1        0.1484
     17 F           7.3131   -8.2843   25.6602 F       1  UNL1       -0.2039
     18 C           8.4142   -8.0958   28.0058 C.ar    1  UNL1        0.0300
     19 C           9.1091   -7.2765   29.0526 C.ar    1  UNL1        0.0032
     20 C           9.3978   -5.8263   28.8006 C.ar    1  UNL1        0.0118
     21 C           8.9916   -5.1955   27.5018 C.ar    1  UNL1        0.0673
     22 CL          9.2803   -3.7452   27.2497 Cl      1  UNL1       -0.0819
     23 C           2.9973   -0.5221   20.3813 C.ar    1  UNL1        0.0001
     24 C           1.5252   -0.5347   20.6685 C.ar    1  UNL1        0.0009
     25 C           0.6011    0.3527   19.8884 C.ar    1  UNL1        0.0114
     26 C           1.1493    1.2528   18.8209 C.ar    1  UNL1        0.0577
     27 CL          0.2253    2.1402   18.0408 Cl      1  UNL1       -0.0822
     28 C           2.6215    1.2654   18.5337 C.ar    1  UNL1        0.0114
     29 C           3.5455    0.3779   19.3139 C.ar    1  UNL1        0.0009
@<TRIPOS>BOND
     1     1     2    2
     2     2     3    1
     3     3     4    2
     4     4     5   ar
     5     5     6   ar
     6     6    23    1
     7    23    24   ar
     8    24    25   ar
     9    25    26   ar
    10    26    27    1
    11    26    28   ar
    12    28    29   ar
    13     6     7   ar
    14     7     8   ar
    15     8     9   ar
    16     9    10    2
    17    10    11    1
    18    11    12    2
    19    12    15    1
    20    15    16   ar
    21    16    17    1
    22    16    18   ar
    23    18    19   ar
    24    19    20   ar
    25    20    21   ar
    26    21    22    1
    27    12    13    1
    28    13    14    2
    29    14     2    1
    30     9     4   ar
    31    14    10    1
    32    29    23   ar
    33    21    15   ar
@<TRIPOS>MOLECULE
*****
 29 33 0 0 0
SMALL
GASTEIGER

@<TRIPOS>ATOM
      1 O           6.9293   -2.2739   17.3079 O.2     1  UNL1       -0.2638
      2 C           6.4206   -2.2238   18.7182 C.2     1  UNL1        0.3160
      3 N           6.9691   -3.1673   19.7472 N.am    1  UNL1       -0.1720
      4 C           6.4605   -3.1172   21.1575 C.ar    1  UNL1        0.0775
      5 C           7.0090   -4.0607   22.1866 C.ar    1  UNL1        0.0167
      6 C           6.5003   -4.0106   23.5968 C.ar    1  UNL1        0.0013
      7 C           5.4431   -3.0171   23.9779 C.ar    1  UNL1        0.0002
      8 C           4.8946   -2.0736   22.9489 C.ar    1  UNL1        0.0051
      9 C           5.4033   -2.1237   21.5387 C.ar    1  UNL1        0.0623
     10 C           4.8548   -1.1802   20.5096 C.2     1  UNL1        0.2419
     11 N           3.8160   -0.1011   20.5896 N.2     1  UNL1       -0.0302
     12 C           3.6826    0.5157   19.2288 C.2     1  UNL1        0.3787
     13 N           4.6390   -0.1821   18.3078 N.2     1  UNL1       -0.0255
     14 C           5.3635   -1.2303   19.0994 C.2     1  UNL1        0.2907
     15 C           2.7555    1.6341   18.8548 C.ar    1  UNL1        0.1263
     16 C           1.2833    1.3769   18.7269 C.ar    1  UNL1        0.1484
     17 F           0.7381    0.0013   18.9731 F       1  UNL1       -0.2039
     18 C           0.3563    2.4952   18.3529 C.ar    1  UNL1        0.0300
     19 C           0.9016    3.8708   18.1067 C.ar    1  UNL1        0.0032
     20 C           2.3738    4.1280   18.2346 C.ar    1  UNL1        0.0118
     21 C           3.3008    3.0096   18.6086 C.ar    1  UNL1        0.0673
     22 CL          4.7731    3.2668   18.7365 Cl      1  UNL1       -0.0819
     23 C           7.0488   -4.9541   24.6259 C.ar    1  UNL1        0.0001
     24 C           7.8420   -6.1529   24.1973 C.ar    1  UNL1        0.0009
     25 C           8.3905   -7.0964   25.2263 C.ar    1  UNL1        0.0114
     26 C           8.1458   -6.8411   26.6841 C.ar    1  UNL1        0.0577
     27 CL          8.6943   -7.7846   27.7131 Cl      1  UNL1       -0.0822
     28 C           7.3525   -5.6423   27.1127 C.ar    1  UNL1        0.0114
     29 C           6.8040   -4.6988   26.0836 C.ar    1  UNL1        0.0009
@<TRIPOS>BOND
     1     1     2    2
     2     2     3    1
     3     3     4    2
     4     4     5   ar
     5     5     6   ar
     6     6    23    1
     7    23    24   ar
     8    24    25   ar
     9    25    26   ar
    10    26    27    1
    11    26    28   ar
    12    28    29   ar
    13     6     7   ar
    14     7     8   ar
    15     8     9   ar
    16     9    10    2
    17    10    11    1
    18    11    12    2
    19    12    15    1
    20    15    16   ar
    21    16    17    1
    22    16    18   ar
    23    18    19   ar
    24    19    20   ar
    25    20    21   ar
    26    21    22    1
    27    12    13    1
    28    13    14    2
    29    14     2    1
    30     9     4   ar
    31    14    10    1
    32    29    23   ar
    33    21    15   ar
@<TRIPOS>MOLECULE
*****
 29 33 0 0 0
SMALL
GASTEIGER

@<TRIPOS>ATOM
      1 O           8.4134   -6.5582   29.8518 O.2     1  UNL1       -0.2638
      2 C           7.7344   -5.4569   29.0928 C.2     1  UNL1        0.3160
      3 N           7.5735   -5.5599   27.6050 N.am    1  UNL1       -0.1720
      4 C           6.8944   -4.4586   26.8460 C.ar    1  UNL1        0.0775
      5 C           6.7335   -4.5617   25.3583 C.ar    1  UNL1        0.0167
      6 C           6.0544   -3.4604   24.5993 C.ar    1  UNL1        0.0013
      7 C           5.5363   -2.2561   25.3281 C.ar    1  UNL1        0.0002
      8 C           5.6972   -2.1530   26.8159 C.ar    1  UNL1        0.0051
      9 C           6.3763   -3.2543   27.5748 C.ar    1  UNL1        0.0623
     10 C           6.5372   -3.1513   29.0626 C.2     1  UNL1        0.2419
     11 N           6.1312   -2.0931   30.0451 N.2     1  UNL1       -0.0302
     12 C           6.5594   -2.5404   31.4114 C.2     1  UNL1        0.3787
     13 N           7.2300   -3.8750   31.2732 N.2     1  UNL1       -0.0255
     14 C           7.2163   -4.2525   29.8216 C.2     1  UNL1        0.2907
     15 C           6.3532   -1.7855   32.6912 C.ar    1  UNL1        0.1263
     16 C           5.0452   -1.8857   33.4186 C.ar    1  UNL1        0.1484
     17 F           3.9434   -2.7407   32.8663 F       1  UNL1       -0.2039
     18 C           4.8390   -1.1309   34.6983 C.ar    1  UNL1        0.0300
     19 C           5.9408   -0.2758   35.2506 C.ar    1  UNL1        0.0032
     20 C           7.2488   -0.1757   34.5232 C.ar    1  UNL1        0.0118
     21 C           7.4549   -0.9305   33.2435 C.ar    1  UNL1        0.0673
     22 CL          8.7630   -0.8303   32.5160 Cl      1  UNL1       -0.0819
     23 C           5.8935   -3.5634   23.1115 C.ar    1  UNL1        0.0001
     24 C           4.5360   -3.4112   22.4917 C.ar    1  UNL1        0.0009
     25 C           4.3750   -3.5142   21.0039 C.ar    1  UNL1        0.0114
     26 C           5.5715   -3.7694   20.1359 C.ar    1  UNL1        0.0577
     27 CL          5.4105   -3.8724   18.6482 Cl      1  UNL1       -0.0822
     28 C           6.9290   -3.9216   20.7557 C.ar    1  UNL1        0.0114
     29 C           7.0899   -3.8186   22.2436 C.ar    1  UNL1        0.0009
@<TRIPOS>BOND
     1     1     2    2
     2     2     3    1
     3     3     4    2
     4     4     5   ar
     5     5     6   ar
     6     6    23    1
     7    23    24   ar
     8    24    25   ar
     9    25    26   ar
    10    26    27    1
    11    26    28   ar
    12    28    29   ar
    13     6     7   ar
    14     7     8   ar
    15     8     9   ar
    16     9    10    2
    17    10    11    1
    18    11    12    2
    19    12    15    1
    20    15    16   ar
    21    16    17    1
    22    16    18   ar
    23    18    19   ar
    24    19    20   ar
    25    20    21   ar
    26    21    22    1
    27    12    13    1
    28    13    14    2
    29    14     2    1
    30     9     4   ar
    31    14    10    1
    32    29    23   ar
    33    21    15   ar
@<TRIPOS>MOLECULE
*****
 29 33 0 0 0
SMALL
GASTEIGER

@<TRIPOS>ATOM
      1 O          -2.1780    5.3819   17.1539 O.2     1  UNL1       -0.2638
      2 C          -1.6397    4.3679   18.1195 C.2     1  UNL1        0.3160
      3 N          -0.4171    3.5731   17.7684 N.am    1  UNL1       -0.1720
      4 C           0.1212    2.5592   18.7340 C.ar    1  UNL1        0.0775
      5 C           1.3439    1.7643   18.3829 C.ar    1  UNL1        0.0167
      6 C           1.8821    0.7505   19.3485 C.ar    1  UNL1        0.0013
      7 C           1.1976    0.5314   20.6651 C.ar    1  UNL1        0.0002
      8 C          -0.0250    1.3263   21.0162 C.ar    1  UNL1        0.0051
      9 C          -0.5632    2.3401   20.0507 C.ar    1  UNL1        0.0623
     10 C          -1.7859    3.1351   20.4017 C.2     1  UNL1        0.2419
     11 N          -2.6667    3.1379   21.6159 N.2     1  UNL1       -0.0302
     12 C          -3.7494    4.1536   21.4007 C.2     1  UNL1        0.3787
     13 N          -3.5376    4.7784   20.0535 N.2     1  UNL1       -0.0255
     14 C          -2.3241    4.1489   19.4362 C.2     1  UNL1        0.2907
     15 C          -4.8505    4.4860   22.3636 C.ar    1  UNL1        0.1263
     16 C          -6.2821    4.2829   21.9650 C.ar    1  UNL1        0.1484
     17 F          -6.6128    3.7473   20.6034 F       1  UNL1       -0.2039
     18 C          -7.3831    4.6153   22.9279 C.ar    1  UNL1        0.0300
     19 C          -7.0524    5.1510   24.2894 C.ar    1  UNL1        0.0032
     20 C          -5.6208    5.3541   24.6880 C.ar    1  UNL1        0.0118
     21 C          -4.5198    5.0217   23.7251 C.ar    1  UNL1        0.0673
     22 CL         -3.0880    5.2248   24.1237 Cl      1  UNL1       -0.0819
     23 C           3.1048   -0.0445   18.9974 C.ar    1  UNL1        0.0001
     24 C           4.0358    0.4447   17.9279 C.ar    1  UNL1        0.0009
     25 C           5.2584   -0.3501   17.5768 C.ar    1  UNL1        0.0114
     26 C           5.5502   -1.6342   18.2953 C.ar    1  UNL1        0.0577
     27 CL          6.7728   -2.4290   17.9442 Cl      1  UNL1       -0.0822
     28 C           4.6192   -2.1234   19.3648 C.ar    1  UNL1        0.0114
     29 C           3.3964   -1.3284   19.7159 C.ar    1  UNL1        0.0009
@<TRIPOS>BOND
     1     1     2    2
     2     2     3    1
     3     3     4    2
     4     4     5   ar
     5     5     6   ar
     6     6    23    1
     7    23    24   ar
     8    24    25   ar
     9    25    26   ar
    10    26    27    1
    11    26    28   ar
    12    28    29   ar
    13     6     7   ar
    14     7     8   ar
    15     8     9   ar
    16     9    10    2
    17    10    11    1
    18    11    12    2
    19    12    15    1
    20    15    16   ar
    21    16    17    1
    22    16    18   ar
    23    18    19   ar
    24    19    20   ar
    25    20    21   ar
    26    21    22    1
    27    12    13    1
    28    13    14    2
    29    14     2    1
    30     9     4   ar
    31    14    10    1
    32    29    23   ar
    33    21    15   ar
@<TRIPOS>MOLECULE
*****
 29 33 0 0 0
SMALL
GASTEIGER

@<TRIPOS>ATOM
      1 O           0.8606    5.0958   17.2511 O.2     1  UNL1       -0.2638
      2 C           0.7619    3.8913   18.1397 C.2     1  UNL1        0.3160
      3 N           1.9115    2.9324   18.2339 N.am    1  UNL1       -0.1720
      4 C           1.8127    1.7280   19.1225 C.ar    1  UNL1        0.0775
      5 C           2.9623    0.7691   19.2167 C.ar    1  UNL1        0.0167
      6 C           2.8635   -0.4352   20.1053 C.ar    1  UNL1        0.0013
      7 C           1.6151   -0.6807   20.8998 C.ar    1  UNL1        0.0002
      8 C           0.4655    0.2782   20.8057 C.ar    1  UNL1        0.0051
      9 C           0.5643    1.4825   19.9170 C.ar    1  UNL1        0.0623
     10 C          -0.5854    2.4415   19.8228 C.2     1  UNL1        0.2419
     11 N          -1.9326    2.4610   20.4820 N.2     1  UNL1       -0.0302
     12 C          -2.6665    3.6775   20.0007 C.2     1  UNL1        0.3787
     13 N          -1.7728    4.4098   19.0442 N.2     1  UNL1       -0.0255
     14 C          -0.4866    3.6459   18.9342 C.2     1  UNL1        0.2907
     15 C          -4.0510    4.0894   20.4051 C.ar    1  UNL1        0.1263
     16 C          -5.2046    3.8561   19.4752 C.ar    1  UNL1        0.1484
     17 F          -4.9737    3.2110   18.1408 F       1  UNL1       -0.2039
     18 C          -6.5890    4.2680   19.8796 C.ar    1  UNL1        0.0300
     19 C          -6.8199    4.9132   21.2139 C.ar    1  UNL1        0.0032
     20 C          -5.6664    5.1464   22.1438 C.ar    1  UNL1        0.0118
     21 C          -4.2819    4.7346   21.7395 C.ar    1  UNL1        0.0673
     22 CL         -3.1283    4.9678   22.6694 Cl      1  UNL1       -0.0819
     23 C           4.0131   -1.3942   20.1995 C.ar    1  UNL1        0.0001
     24 C           5.1433   -1.3089   19.2170 C.ar    1  UNL1        0.0009
     25 C           6.2929   -2.2678   19.3111 C.ar    1  UNL1        0.0114
     26 C           6.3124   -3.3121   20.3878 C.ar    1  UNL1        0.0577
     27 CL          7.4619   -4.2709   20.4819 Cl      1  UNL1       -0.0822
     28 C           5.1821   -3.3974   21.3703 C.ar    1  UNL1        0.0114
     29 C           4.0325   -2.4384   21.2761 C.ar    1  UNL1        0.0009
@<TRIPOS>BOND
     1     1     2    2
     2     2     3    1
     3     3     4    2
     4     4     5   ar
     5     5     6   ar
     6     6    23    1
     7    23    24   ar
     8    24    25   ar
     9    25    26   ar
    10    26    27    1
    11    26    28   ar
    12    28    29   ar
    13     6     7   ar
    14     7     8   ar
    15     8     9   ar
    16     9    10    2
    17    10    11    1
    18    11    12    2
    19    12    15    1
    20    15    16   ar
    21    16    17    1
    22    16    18   ar
    23    18    19   ar
    24    19    20   ar
    25    20    21   ar
    26    21    22    1
    27    12    13    1
    28    13    14    2
    29    14     2    1
    30     9     4   ar
    31    14    10    1
    32    29    23   ar
    33    21    15   ar
@<TRIPOS>MOLECULE
*****
 29 33 0 0 0
SMALL
GASTEIGER

@<TRIPOS>ATOM
      1 O           0.7105    3.9613   24.6217 O.2     1  UNL1       -0.2638
      2 C           0.7878    2.9570   23.5102 C.2     1  UNL1        0.3160
      3 N           1.9440    2.0041   23.4394 N.am    1  UNL1       -0.1720
      4 C           2.0213    0.9998   22.3279 C.ar    1  UNL1        0.0775
      5 C           3.1775    0.0469   22.2571 C.ar    1  UNL1        0.0167
      6 C           3.2548   -0.9573   21.1456 C.ar    1  UNL1        0.0013
      7 C           2.1758   -1.0087   20.1048 C.ar    1  UNL1        0.0002
      8 C           1.0196   -0.0558   20.1756 C.ar    1  UNL1        0.0051
      9 C           0.9423    0.9485   21.2871 C.ar    1  UNL1        0.0623
     10 C          -0.2140    1.9015   21.3579 C.2     1  UNL1        0.2419
     11 N          -1.4174    2.0861   20.4818 N.2     1  UNL1       -0.0302
     12 C          -2.2384    3.2046   21.0518 C.2     1  UNL1        0.3787
     13 N          -1.5424    3.7111   22.2802 N.2     1  UNL1       -0.0255
     14 C          -0.2912    2.9057   22.4694 C.2     1  UNL1        0.2907
     15 C          -3.5290    3.7251   20.4918 C.ar    1  UNL1        0.1263
     16 C          -3.5419    4.4299   19.1677 C.ar    1  UNL1        0.1484
     17 F          -2.2643    4.6142   18.4037 F       1  UNL1       -0.2039
     18 C          -4.8324    4.9504   18.6077 C.ar    1  UNL1        0.0300
     19 C          -6.1100    4.7661   19.3718 C.ar    1  UNL1        0.0032
     20 C          -6.0971    4.0613   20.6958 C.ar    1  UNL1        0.0118
     21 C          -4.8066    3.5409   21.2558 C.ar    1  UNL1        0.0673
     22 CL         -4.7937    2.8360   22.5799 Cl      1  UNL1       -0.0819
     23 C           4.4111   -1.9103   21.0748 C.ar    1  UNL1        0.0001
     24 C           4.6407   -2.8945   22.1832 C.ar    1  UNL1        0.0009
     25 C           5.7969   -3.8475   22.1125 C.ar    1  UNL1        0.0114
     26 C           6.7235   -3.8163   20.9333 C.ar    1  UNL1        0.0577
     27 CL          7.8797   -4.7692   20.8625 Cl      1  UNL1       -0.0822
     28 C           6.4939   -2.8320   19.8249 C.ar    1  UNL1        0.0114
     29 C           5.3376   -1.8790   19.8956 C.ar    1  UNL1        0.0009
@<TRIPOS>BOND
     1     1     2    2
     2     2     3    1
     3     3     4    2
     4     4     5   ar
     5     5     6   ar
     6     6    23    1
     7    23    24   ar
     8    24    25   ar
     9    25    26   ar
    10    26    27    1
    11    26    28   ar
    12    28    29   ar
    13     6     7   ar
    14     7     8   ar
    15     8     9   ar
    16     9    10    2
    17    10    11    1
    18    11    12    2
    19    12    15    1
    20    15    16   ar
    21    16    17    1
    22    16    18   ar
    23    18    19   ar
    24    19    20   ar
    25    20    21   ar
    26    21    22    1
    27    12    13    1
    28    13    14    2
    29    14     2    1
    30     9     4   ar
    31    14    10    1
    32    29    23   ar
    33    21    15   ar
@<TRIPOS>MOLECULE
*****
 29 33 0 0 0
SMALL
GASTEIGER

@<TRIPOS>ATOM
      1 O           1.5630    1.3411   28.4705 O.2     1  UNL1       -0.2638
      2 C           1.2176    1.4124   27.0125 C.2     1  UNL1        0.3160
      3 N           2.0315    0.6484   26.0107 N.am    1  UNL1       -0.1720
      4 C           1.6861    0.7197   24.5527 C.ar    1  UNL1        0.0775
      5 C           2.5000   -0.0443   23.5508 C.ar    1  UNL1        0.0167
      6 C           2.1546    0.0270   22.0929 C.ar    1  UNL1        0.0013
      7 C           0.9953    0.8625   21.6369 C.ar    1  UNL1        0.0002
      8 C           0.1814    1.6265   22.6387 C.ar    1  UNL1        0.0051
      9 C           0.5268    1.5551   24.0966 C.ar    1  UNL1        0.0623
     10 C          -0.2872    2.3192   25.0985 C.2     1  UNL1        0.2419
     11 N          -1.4774    3.2195   24.9476 N.2     1  UNL1       -0.0302
     12 C          -1.8676    3.7046   26.3124 C.2     1  UNL1        0.3787
     13 N          -0.9185    3.1041   27.3066 N.2     1  UNL1       -0.0255
     14 C           0.0583    2.2478   26.5564 C.2     1  UNL1        0.2907
     15 C          -3.0069    4.6281   26.6274 C.ar    1  UNL1        0.1263
     16 C          -4.3863    4.3147   26.1286 C.ar    1  UNL1        0.1484
     17 F          -4.6266    3.0778   25.3147 F       1  UNL1       -0.2039
     18 C          -5.5256    5.2381   26.4437 C.ar    1  UNL1        0.0300
     19 C          -5.2853    6.4750   27.2576 C.ar    1  UNL1        0.0032
     20 C          -3.9059    6.7884   27.7565 C.ar    1  UNL1        0.0118
     21 C          -2.7667    5.8649   27.4414 C.ar    1  UNL1        0.0673
     22 CL         -1.3871    6.1783   27.9402 Cl      1  UNL1       -0.0819
     23 C           2.9685   -0.7370   21.0910 C.ar    1  UNL1        0.0001
     24 C           3.8236   -1.8853   21.5385 C.ar    1  UNL1        0.0009
     25 C           4.6375   -2.6494   20.5367 C.ar    1  UNL1        0.0114
     26 C           4.5964   -2.2652   19.0873 C.ar    1  UNL1        0.0577
     27 CL          5.4103   -3.0292   18.0854 Cl      1  UNL1       -0.0822
     28 C           3.7413   -1.1169   18.6397 C.ar    1  UNL1        0.0114
     29 C           2.9274   -0.3528   19.6417 C.ar    1  UNL1        0.0009
@<TRIPOS>BOND
     1     1     2    2
     2     2     3    1
     3     3     4    2
     4     4     5   ar
     5     5     6   ar
     6     6    23    1
     7    23    24   ar
     8    24    25   ar
     9    25    26   ar
    10    26    27    1
    11    26    28   ar
    12    28    29   ar
    13     6     7   ar
    14     7     8   ar
    15     8     9   ar
    16     9    10    2
    17    10    11    1
    18    11    12    2
    19    12    15    1
    20    15    16   ar
    21    16    17    1
    22    16    18   ar
    23    18    19   ar
    24    19    20   ar
    25    20    21   ar
    26    21    22    1
    27    12    13    1
    28    13    14    2
    29    14     2    1
    30     9     4   ar
    31    14    10    1
    32    29    23   ar
    33    21    15   ar
@<TRIPOS>MOLECULE
*****
 29 33 0 0 0
SMALL
GASTEIGER

@<TRIPOS>ATOM
      1 O           5.9634   -4.6538   19.8338 O.2     1  UNL1       -0.2638
      2 C           5.7518   -3.9113   21.1199 C.2     1  UNL1        0.3160
      3 N           6.3286   -4.4450   22.3976 N.am    1  UNL1       -0.1720
      4 C           6.1170   -3.7025   23.6837 C.ar    1  UNL1        0.0775
      5 C           6.6937   -4.2362   24.9614 C.ar    1  UNL1        0.0167
      6 C           6.4821   -3.4937   26.2475 C.ar    1  UNL1        0.0013
      7 C           5.6938   -2.2176   26.2558 C.ar    1  UNL1        0.0002
      8 C           5.1171   -1.6839   24.9781 C.ar    1  UNL1        0.0051
      9 C           5.3287   -2.4264   23.6921 C.ar    1  UNL1        0.0623
     10 C           4.7519   -1.8927   22.4143 C.2     1  UNL1        0.2419
     11 N           3.9370   -0.6696   22.1147 N.2     1  UNL1       -0.0302
     12 C           3.6450   -0.6561   20.6435 C.2     1  UNL1        0.3787
     13 N           4.2794   -1.8709   20.0338 N.2     1  UNL1       -0.0255
     14 C           4.9635   -2.6352   21.1282 C.2     1  UNL1        0.2907
     15 C           2.8569    0.3888   19.9106 C.ar    1  UNL1        0.1263
     16 C           1.3661    0.2644   19.8012 C.ar    1  UNL1        0.1484
     17 F           0.6633   -0.9050   20.4247 F       1  UNL1       -0.2039
     18 C           0.5780    1.3092   19.0683 C.ar    1  UNL1        0.0300
     19 C           1.2808    2.4786   18.4448 C.ar    1  UNL1        0.0032
     20 C           2.7716    2.6031   18.5542 C.ar    1  UNL1        0.0118
     21 C           3.5596    1.5582   19.2871 C.ar    1  UNL1        0.0673
     22 CL          5.0505    1.6827   19.3965 Cl      1  UNL1       -0.0819
     23 C           7.0588   -4.0273   27.5253 C.ar    1  UNL1        0.0001
     24 C           6.2714   -4.9965   28.3563 C.ar    1  UNL1        0.0009
     25 C           6.8480   -5.5301   29.6341 C.ar    1  UNL1        0.0114
     26 C           8.2122   -5.0946   30.0808 C.ar    1  UNL1        0.0577
     27 CL          8.7888   -5.6283   31.3585 Cl      1  UNL1       -0.0822
     28 C           8.9996   -4.1254   29.2497 C.ar    1  UNL1        0.0114
     29 C           8.4229   -3.5918   27.9719 C.ar    1  UNL1        0.0009
@<TRIPOS>BOND
     1     1     2    2
     2     2     3    1
     3     3     4    2
     4     4     5   ar
     5     5     6   ar
     6     6    23    1
     7    23    24   ar
     8    24    25   ar
     9    25    26   ar
    10    26    27    1
    11    26    28   ar
    12    28    29   ar
    13     6     7   ar
    14     7     8   ar
    15     8     9   ar
    16     9    10    2
    17    10    11    1
    18    11    12    2
    19    12    15    1
    20    15    16   ar
    21    16    17    1
    22    16    18   ar
    23    18    19   ar
    24    19    20   ar
    25    20    21   ar
    26    21    22    1
    27    12    13    1
    28    13    14    2
    29    14     2    1
    30     9     4   ar
    31    14    10    1
    32    29    23   ar
    33    21    15   ar
@<TRIPOS>MOLECULE
*****
 29 33 0 0 0
SMALL
GASTEIGER

@<TRIPOS>ATOM
      1 O           5.5557   -0.5432   27.2753 O.2     1  UNL1       -0.2638
      2 C           5.1064   -0.8904   25.8869 C.2     1  UNL1        0.3160
      3 N           4.1447    0.0053   25.1638 N.am    1  UNL1       -0.1720
      4 C           3.6955   -0.3419   23.7754 C.ar    1  UNL1        0.0775
      5 C           2.7338    0.5538   23.0523 C.ar    1  UNL1        0.0167
      6 C           2.2846    0.2066   21.6639 C.ar    1  UNL1        0.0013
      7 C           2.7971   -1.0362   20.9986 C.ar    1  UNL1        0.0002
      8 C           3.7588   -1.9319   21.7217 C.ar    1  UNL1        0.0051
      9 C           4.2080   -1.5847   23.1100 C.ar    1  UNL1        0.0623
     10 C           5.1697   -2.4804   23.8332 C.2     1  UNL1        0.2419
     11 N           5.8404   -3.7619   23.4358 N.2     1  UNL1       -0.0302
     12 C           6.7041   -4.2068   24.5787 C.2     1  UNL1        0.3787
     13 N           6.5672   -3.2002   25.6823 N.2     1  UNL1       -0.0255
     14 C           5.6189   -2.1333   25.2216 C.2     1  UNL1        0.2907
     15 C           7.5552   -5.4415   24.6120 C.ar    1  UNL1        0.1263
     16 C           7.3212   -6.4856   25.6632 C.ar    1  UNL1        0.1484
     17 F           6.2361   -6.2951   26.6811 F       1  UNL1       -0.2039
     18 C           8.1724   -7.7203   25.6964 C.ar    1  UNL1        0.0300
     19 C           9.2575   -7.9108   24.6785 C.ar    1  UNL1        0.0032
     20 C           9.4915   -6.8667   23.6273 C.ar    1  UNL1        0.0118
     21 C           8.6404   -5.6321   23.5941 C.ar    1  UNL1        0.0673
     22 CL          8.8744   -4.5879   22.5428 Cl      1  UNL1       -0.0819
     23 C           1.3228    1.1023   20.9408 C.ar    1  UNL1        0.0001
     24 C           0.1883    1.7413   21.6854 C.ar    1  UNL1        0.0009
     25 C          -0.7735    2.6369   20.9624 C.ar    1  UNL1        0.0114
     26 C          -0.6006    2.8937   19.4946 C.ar    1  UNL1        0.0577
     27 CL         -1.5624    3.7893   18.7716 Cl      1  UNL1       -0.0822
     28 C           0.5339    2.2547   18.7500 C.ar    1  UNL1        0.0114
     29 C           1.4957    1.3590   19.4731 C.ar    1  UNL1        0.0009
@<TRIPOS>BOND
     1     1     2    2
     2     2     3    1
     3     3     4    2
     4     4     5   ar
     5     5     6   ar
     6     6    23    1
     7    23    24   ar
     8    24    25   ar
     9    25    26   ar
    10    26    27    1
    11    26    28   ar
    12    28    29   ar
    13     6     7   ar
    14     7     8   ar
    15     8     9   ar
    16     9    10    2
    17    10    11    1
    18    11    12    2
    19    12    15    1
    20    15    16   ar
    21    16    17    1
    22    16    18   ar
    23    18    19   ar
    24    19    20   ar
    25    20    21   ar
    26    21    22    1
    27    12    13    1
    28    13    14    2
    29    14     2    1
    30     9     4   ar
    31    14    10    1
    32    29    23   ar
    33    21    15   ar
