@<TRIPOS>MOLECULE
*****
 17 19 0 0 0
SMALL
GASTEIGER

@<TRIPOS>ATOM
      1 C          -6.3408  -19.2829   20.9700 C.ar    1  UNL1        0.1241
      2 C          -5.2662  -19.6361   21.9552 C.ar    1  UNL1        0.0360
      3 C          -3.9432  -19.2760   21.3470 C.ar    1  UNL1        0.0372
      4 C          -2.5378  -19.3980   21.8567 C.ar    1  UNL1        0.0031
      5 C          -1.3892  -18.9443   21.0054 C.ar    1  UNL1        0.0002
      6 C          -1.6460  -18.3686   19.6443 C.ar    1  UNL1        0.0031
      7 C          -3.0514  -18.2466   19.1345 C.ar    1  UNL1        0.0375
      8 C          -4.2000  -18.7003   19.9859 C.ar    1  UNL1        0.1448
      9 O          -5.6818  -18.7046   19.7529 O.2     1  UNL1       -0.4577
     10 C          -9.7597  -20.1536   24.5810 C.3     1  UNL1        0.0899
     11 N          -9.6458  -19.9406   23.1005 N.3     1  UNL1       -0.2673
     12 C         -10.9358  -19.9814   22.3361 C.3     1  UNL1        0.0986
     13 C         -11.1556  -19.8066   20.8626 C.2     1  UNL1       -0.0134
     14 C         -10.1397  -19.5479   19.7897 C.2     1  UNL1       -0.0288
     15 C          -8.6532  -19.4001   19.9252 C.3     1  UNL1        0.0347
     16 C          -7.8154  -19.4744   21.1672 C.3     1  UNL1        0.0777
     17 C          -8.2571  -19.7150   22.5804 C.3     1  UNL1        0.0803
@<TRIPOS>BOND
     1    10    11    1
     2    11    12    1
     3    12    13    1
     4    13    14    2
     5    14    15    1
     6    15    16    1
     7    16     1    1
     8     1     2   ar
     9     2     3   ar
    10     3     4   ar
    11     4     5   ar
    12     5     6   ar
    13     6     7   ar
    14     7     8   ar
    15     8     9   ar
    16    16    17    1
    17    17    11    1
    18     9     1   ar
    19     8     3   ar
@<TRIPOS>MOLECULE
*****
 17 19 0 0 0
SMALL
GASTEIGER

@<TRIPOS>ATOM
      1 C          -8.0130  -18.7650   21.9714 C.ar    1  UNL1        0.1241
      2 C          -8.8475  -19.4513   23.0119 C.ar    1  UNL1        0.0360
      3 C         -10.1868  -18.7770   23.0510 C.ar    1  UNL1        0.0372
      4 C         -11.4115  -19.0249   23.8807 C.ar    1  UNL1        0.0031
      5 C         -12.6296  -18.1697   23.6940 C.ar    1  UNL1        0.0002
      6 C         -12.6229  -17.0665   22.6777 C.ar    1  UNL1        0.0031
      7 C         -11.3981  -16.8186   21.8479 C.ar    1  UNL1        0.0375
      8 C         -10.1801  -17.6738   22.0346 C.ar    1  UNL1        0.1448
      9 O          -8.8366  -17.6664   21.3674 O.2     1  UNL1       -0.4577
     10 C          -3.2372  -17.4071   22.8847 C.3     1  UNL1        0.0899
     11 N          -4.0457  -18.3886   22.0891 N.3     1  UNL1       -0.2673
     12 C          -3.2593  -19.3404   21.2372 C.3     1  UNL1        0.0986
     13 C          -3.7666  -20.4272   20.3364 C.2     1  UNL1       -0.0134
     14 C          -5.1857  -20.8306   20.0650 C.2     1  UNL1       -0.0288
     15 C          -6.4478  -20.2470   20.6274 C.3     1  UNL1        0.0347
     16 C          -6.6026  -19.1156   21.6001 C.3     1  UNL1        0.0777
     17 C          -5.5336  -18.2885   22.2507 C.3     1  UNL1        0.0803
@<TRIPOS>BOND
     1    10    11    1
     2    11    12    1
     3    12    13    1
     4    13    14    2
     5    14    15    1
     6    15    16    1
     7    16     1    1
     8     1     2   ar
     9     2     3   ar
    10     3     4   ar
    11     4     5   ar
    12     5     6   ar
    13     6     7   ar
    14     7     8   ar
    15     8     9   ar
    16    16    17    1
    17    17    11    1
    18     9     1   ar
    19     8     3   ar
@<TRIPOS>MOLECULE
*****
 17 19 0 0 0
SMALL
GASTEIGER

@<TRIPOS>ATOM
      1 C          -7.8786  -18.7840   21.9688 C.ar    1  UNL1        0.1241
      2 C          -7.3641  -19.6599   20.8652 C.ar    1  UNL1        0.0360
      3 C          -5.8689  -19.7117   20.9733 C.ar    1  UNL1        0.0372
      4 C          -4.8275  -20.4182   20.1571 C.ar    1  UNL1        0.0031
      5 C          -3.3764  -20.2809   20.5115 C.ar    1  UNL1        0.0002
      6 C          -2.9668  -19.4370   21.6819 C.ar    1  UNL1        0.0031
      7 C          -4.0083  -18.7304   22.4981 C.ar    1  UNL1        0.0375
      8 C          -5.4593  -18.8677   22.1437 C.ar    1  UNL1        0.1448
      9 O          -6.7014  -18.2944   22.7590 O.2     1  UNL1       -0.4577
     10 C         -11.7475  -16.1618   20.0604 C.3     1  UNL1        0.0899
     11 N         -11.3891  -17.0515   21.2137 N.3     1  UNL1       -0.2673
     12 C         -12.4898  -17.3166   22.1977 C.3     1  UNL1        0.0986
     13 C         -12.4506  -18.1541   23.4415 C.2     1  UNL1       -0.0134
     14 C         -11.3010  -18.9332   24.0085 C.2     1  UNL1       -0.0288
     15 C          -9.9067  -19.0673   23.4718 C.3     1  UNL1        0.0347
     16 C          -9.3177  -18.4553   22.2355 C.3     1  UNL1        0.0777
     17 C          -9.9773  -17.5582   21.2305 C.3     1  UNL1        0.0803
@<TRIPOS>BOND
     1    10    11    1
     2    11    12    1
     3    12    13    1
     4    13    14    2
     5    14    15    1
     6    15    16    1
     7    16     1    1
     8     1     2   ar
     9     2     3   ar
    10     3     4   ar
    11     4     5   ar
    12     5     6   ar
    13     6     7   ar
    14     7     8   ar
    15     8     9   ar
    16    16    17    1
    17    17    11    1
    18     9     1   ar
    19     8     3   ar
@<TRIPOS>MOLECULE
*****
 17 19 0 0 0
SMALL
GASTEIGER

@<TRIPOS>ATOM
      1 C          -4.5622  -16.7626   23.3541 C.ar    1  UNL1        0.1241
      2 C          -4.2589  -18.1656   22.9187 C.ar    1  UNL1        0.0360
      3 C          -3.0663  -18.1214   22.0099 C.ar    1  UNL1        0.0372
      4 C          -2.3194  -19.1988   21.2811 C.ar    1  UNL1        0.0031
      5 C          -1.1386  -18.8459   20.4260 C.ar    1  UNL1        0.0002
      6 C          -0.7048  -17.4155   20.2998 C.ar    1  UNL1        0.0031
      7 C          -1.4518  -16.3381   21.0286 C.ar    1  UNL1        0.0375
      8 C          -2.6325  -16.6911   21.8837 C.ar    1  UNL1        0.1448
      9 O          -3.5570  -15.8513   22.7144 O.2     1  UNL1       -0.4577
     10 C          -9.5939  -16.3964   23.5367 C.3     1  UNL1        0.0899
     11 N          -8.3691  -16.1483   24.3663 N.3     1  UNL1       -0.2673
     12 C          -8.6145  -15.6031   25.7421 C.3     1  UNL1        0.0986
     13 C          -7.6123  -15.2531   26.8018 C.2     1  UNL1       -0.0134
     14 C          -6.1172  -15.3620   26.7475 C.2     1  UNL1       -0.0288
     15 C          -5.2550  -15.8476   25.6202 C.3     1  UNL1        0.0347
     16 C          -5.6752  -16.3444   24.2686 C.3     1  UNL1        0.0777
     17 C          -7.0611  -16.4782   23.7105 C.3     1  UNL1        0.0803
@<TRIPOS>BOND
     1    10    11    1
     2    11    12    1
     3    12    13    1
     4    13    14    2
     5    14    15    1
     6    15    16    1
     7    16     1    1
     8     1     2   ar
     9     2     3   ar
    10     3     4   ar
    11     4     5   ar
    12     5     6   ar
    13     6     7   ar
    14     7     8   ar
    15     8     9   ar
    16    16    17    1
    17    17    11    1
    18     9     1   ar
    19     8     3   ar
@<TRIPOS>MOLECULE
*****
 17 19 0 0 0
SMALL
GASTEIGER

@<TRIPOS>ATOM
      1 C          -8.7415  -16.8898   23.4758 C.ar    1  UNL1        0.1241
      2 C          -9.2398  -16.6890   24.8763 C.ar    1  UNL1        0.0360
      3 C          -8.1389  -16.0545   25.6735 C.ar    1  UNL1        0.0372
      4 C          -8.0574  -15.6263   27.1087 C.ar    1  UNL1        0.0031
      5 C          -6.7973  -15.0068   27.6361 C.ar    1  UNL1        0.0002
      6 C          -5.6186  -14.8155   26.7283 C.ar    1  UNL1        0.0031
      7 C          -5.7001  -15.2437   25.2931 C.ar    1  UNL1        0.0375
      8 C          -6.9602  -15.8632   24.7657 C.ar    1  UNL1        0.1448
      9 O          -7.3327  -16.3794   23.4074 O.2     1  UNL1       -0.4577
     10 C         -11.3696  -15.6046   19.3614 C.3     1  UNL1        0.0899
     11 N         -10.9231  -16.8067   20.1398 N.3     1  UNL1       -0.2673
     12 C         -11.3535  -18.1344   19.5903 C.3     1  UNL1        0.0986
     13 C         -11.0724  -19.5054   20.1301 C.2     1  UNL1       -0.0134
     14 C         -10.2915  -19.8872   21.3526 C.2     1  UNL1       -0.0288
     15 C          -9.5989  -18.9924   22.3373 C.3     1  UNL1        0.0347
     16 C          -9.5161  -17.4947   22.3426 C.3     1  UNL1        0.0777
     17 C         -10.1054  -16.5219   21.3646 C.3     1  UNL1        0.0803
@<TRIPOS>BOND
     1    10    11    1
     2    11    12    1
     3    12    13    1
     4    13    14    2
     5    14    15    1
     6    15    16    1
     7    16     1    1
     8     1     2   ar
     9     2     3   ar
    10     3     4   ar
    11     4     5   ar
    12     5     6   ar
    13     6     7   ar
    14     7     8   ar
    15     8     9   ar
    16    16    17    1
    17    17    11    1
    18     9     1   ar
    19     8     3   ar
@<TRIPOS>MOLECULE
*****
 17 19 0 0 0
SMALL
GASTEIGER

@<TRIPOS>ATOM
      1 C          -8.1387  -17.7462   22.7070 C.ar    1  UNL1        0.1241
      2 C          -8.9562  -16.6145   22.1584 C.ar    1  UNL1        0.0360
      3 C         -10.3938  -16.8733   22.4993 C.ar    1  UNL1        0.0372
      4 C         -11.6474  -16.0997   22.2164 C.ar    1  UNL1        0.0031
      5 C         -12.9720  -16.6177   22.6928 C.ar    1  UNL1        0.0002
      6 C         -13.0430  -17.9094   23.4522 C.ar    1  UNL1        0.0031
      7 C         -11.7895  -18.6830   23.7351 C.ar    1  UNL1        0.0375
      8 C         -10.4649  -18.1650   23.2586 C.ar    1  UNL1        0.1448
      9 O          -9.0711  -18.7044   23.3870 O.2     1  UNL1       -0.4577
     10 C          -4.6084  -20.4249   20.2888 C.3     1  UNL1        0.0899
     11 N          -4.7601  -19.3279   21.3005 N.3     1  UNL1       -0.2673
     12 C          -3.4814  -18.7628   21.8443 C.3     1  UNL1        0.0986
     13 C          -3.2972  -17.6713   22.8566 C.2     1  UNL1       -0.0134
     14 C          -4.3462  -16.8754   23.5751 C.2     1  UNL1       -0.0288
     15 C          -5.8384  -16.9744   23.4588 C.3     1  UNL1        0.0347
     16 C          -6.6502  -17.8938   22.5952 C.3     1  UNL1        0.0777
     17 C          -6.1703  -18.9412   21.6347 C.3     1  UNL1        0.0803
@<TRIPOS>BOND
     1    10    11    1
     2    11    12    1
     3    12    13    1
     4    13    14    2
     5    14    15    1
     6    15    16    1
     7    16     1    1
     8     1     2   ar
     9     2     3   ar
    10     3     4   ar
    11     4     5   ar
    12     5     6   ar
    13     6     7   ar
    14     7     8   ar
    15     8     9   ar
    16    16    17    1
    17    17    11    1
    18     9     1   ar
    19     8     3   ar
@<TRIPOS>MOLECULE
*****
 17 19 0 0 0
SMALL
GASTEIGER

@<TRIPOS>ATOM
      1 C          -6.8278  -18.4052   22.1244 C.ar    1  UNL1        0.1241
      2 C          -6.1659  -19.4096   21.2283 C.ar    1  UNL1        0.0360
      3 C          -4.6818  -19.2808   21.4042 C.ar    1  UNL1        0.0372
      4 C          -3.5300  -20.0106   20.7792 C.ar    1  UNL1        0.0031
      5 C          -2.1228  -19.6563   21.1590 C.ar    1  UNL1        0.0002
      6 C          -1.8675  -18.5723   22.1639 C.ar    1  UNL1        0.0031
      7 C          -3.0194  -17.8425   22.7889 C.ar    1  UNL1        0.0375
      8 C          -4.4265  -18.1968   22.4090 C.ar    1  UNL1        0.1448
      9 O          -5.7528  -17.6557   22.8541 O.2     1  UNL1       -0.4577
     10 C         -11.1477  -18.8568   19.5513 C.3     1  UNL1        0.0899
     11 N         -10.6182  -18.4302   20.8883 N.3     1  UNL1       -0.2673
     12 C         -11.6450  -17.9570   21.8741 C.3     1  UNL1        0.0986
     13 C         -11.4390  -17.4700   23.2778 C.2     1  UNL1       -0.0134
     14 C         -10.1554  -17.3358   24.0423 C.2     1  UNL1       -0.0288
     15 C          -8.7608  -17.6555   23.5921 C.3     1  UNL1        0.0347
     16 C          -8.3053  -18.1884   22.2659 C.3     1  UNL1        0.0777
     17 C          -9.1319  -18.5332   21.0626 C.3     1  UNL1        0.0803
@<TRIPOS>BOND
     1    10    11    1
     2    11    12    1
     3    12    13    1
     4    13    14    2
     5    14    15    1
     6    15    16    1
     7    16     1    1
     8     1     2   ar
     9     2     3   ar
    10     3     4   ar
    11     4     5   ar
    12     5     6   ar
    13     6     7   ar
    14     7     8   ar
    15     8     9   ar
    16    16    17    1
    17    17    11    1
    18     9     1   ar
    19     8     3   ar
@<TRIPOS>MOLECULE
*****
 17 19 0 0 0
SMALL
GASTEIGER

@<TRIPOS>ATOM
      1 C         -13.8652   -7.1203   18.8899 C.ar    1  UNL1        0.1241
      2 C         -15.1679   -6.7384   19.5279 C.ar    1  UNL1        0.0360
      3 C         -16.1248   -7.8793   19.3470 C.ar    1  UNL1        0.0372
      4 C         -17.5519   -8.0687   19.7681 C.ar    1  UNL1        0.0031
      5 C         -18.2677   -9.3452   19.4395 C.ar    1  UNL1        0.0002
      6 C         -17.5563  -10.4324   18.6898 C.ar    1  UNL1        0.0031
      7 C         -16.1292  -10.2430   18.2686 C.ar    1  UNL1        0.0375
      8 C         -15.4134   -8.9664   18.5972 C.ar    1  UNL1        0.1448
      9 O         -14.0169   -8.4973   18.3148 O.2     1  UNL1       -0.4577
     10 C         -12.3583   -2.3103   19.1716 C.3     1  UNL1        0.0899
     11 N         -11.8212   -3.6987   18.9873 N.3     1  UNL1       -0.2673
     12 C         -10.3342   -3.8043   18.8201 C.3     1  UNL1        0.0986
     13 C          -9.5009   -5.0352   18.6189 C.2     1  UNL1       -0.0134
     14 C          -9.9487   -6.4644   18.5352 C.2     1  UNL1       -0.0288
     15 C         -11.3403   -7.0157   18.6320 C.3     1  UNL1        0.0347
     16 C         -12.6279   -6.2739   18.8365 C.3     1  UNL1        0.0777
     17 C         -12.8420   -4.7977   18.9946 C.3     1  UNL1        0.0803
@<TRIPOS>BOND
     1    10    11    1
     2    11    12    1
     3    12    13    1
     4    13    14    2
     5    14    15    1
     6    15    16    1
     7    16     1    1
     8     1     2   ar
     9     2     3   ar
    10     3     4   ar
    11     4     5   ar
    12     5     6   ar
    13     6     7   ar
    14     7     8   ar
    15     8     9   ar
    16    16    17    1
    17    17    11    1
    18     9     1   ar
    19     8     3   ar
@<TRIPOS>MOLECULE
*****
 17 19 0 0 0
SMALL
GASTEIGER

@<TRIPOS>ATOM
      1 C         -14.3602   -6.8294   19.0476 C.ar    1  UNL1        0.1241
      2 C         -13.9229   -5.4069   19.2351 C.ar    1  UNL1        0.0360
      3 C         -12.4347   -5.3518   19.0553 C.ar    1  UNL1        0.0372
      4 C         -11.4566   -4.2168   19.1248 C.ar    1  UNL1        0.0031
      5 C          -9.9961   -4.4702   18.8958 C.ar    1  UNL1        0.0002
      6 C          -9.5136   -5.8588   18.5971 C.ar    1  UNL1        0.0031
      7 C         -10.4917   -6.9939   18.5275 C.ar    1  UNL1        0.0375
      8 C         -11.9523   -6.7404   18.7566 C.ar    1  UNL1        0.1448
      9 O         -13.1423   -7.6535   18.7519 O.2     1  UNL1       -0.4577
     10 C         -17.0519  -11.0836   18.6701 C.3     1  UNL1        0.0899
     11 N         -17.2093   -9.6161   18.9376 N.3     1  UNL1       -0.2673
     12 C         -18.6112   -9.1480   19.1938 C.3     1  UNL1        0.0986
     13 C         -19.0941   -7.7589   19.4891 C.2     1  UNL1       -0.0134
     14 C         -18.2942   -6.4949   19.6013 C.2     1  UNL1       -0.0288
     15 C         -16.8141   -6.3076   19.4458 C.3     1  UNL1        0.0347
     16 C         -15.7682   -7.3384   19.1397 C.3     1  UNL1        0.0777
     17 C         -15.9440   -8.8108   18.9135 C.3     1  UNL1        0.0803
@<TRIPOS>BOND
     1    10    11    1
     2    11    12    1
     3    12    13    1
     4    13    14    2
     5    14    15    1
     6    15    16    1
     7    16     1    1
     8     1     2   ar
     9     2     3   ar
    10     3     4   ar
    11     4     5   ar
    12     5     6   ar
    13     6     7   ar
    14     7     8   ar
    15     8     9   ar
    16    16    17    1
    17    17    11    1
    18     9     1   ar
    19     8     3   ar
