@<TRIPOS>MOLECULE
*****
 33 36 0 0 0
SMALL
GASTEIGER

@<TRIPOS>ATOM
      1 C         -10.0184  -19.8977   24.1643 C.3     1  UNL1        0.1697
      2 O         -10.2528  -20.4086   25.5550 O.3     1  UNL1       -0.3793
      3 H         -11.0576  -20.0052   25.9163 H       1  UNL1        0.2106
      4 C          -8.8298  -20.3715   23.3816 C.3     1  UNL1        0.1020
      5 N          -8.3706  -19.6044   22.1772 N.3     1  UNL1       -0.2972
      6 H          -9.0048  -19.8451   21.4154 H       1  UNL1        0.1233
      7 C          -7.1965  -18.6816   20.6706 C.3     1  UNL1        0.0161
      8 C          -6.9767  -19.7913   21.6555 C.3     1  UNL1        0.0462
      9 C          -6.7569  -20.9011   22.6404 C.3     1  UNL1        0.0161
     10 C          -5.5828  -19.9783   21.1339 C.3     1  UNL1        0.0424
     11 C          -4.4860  -19.0562   21.5775 C.2     1  UNL1       -0.0006
     12 C          -4.3305  -18.4663   22.9478 C.2     1  UNL1        0.0942
     13 N          -3.1005  -17.6076   22.9460 N.2     1  UNL1       -0.2482
     14 C          -2.4959  -17.6670   21.5745 C.2     1  UNL1        0.0631
     15 C          -1.2763  -17.0214   20.9864 C.3     1  UNL1        0.0717
     16 C          -0.9129  -17.2711   19.5528 C.2     1  UNL1       -0.0198
     17 C          -1.7692  -18.1664   18.7070 C.2     1  UNL1       -0.0042
     18 C          -2.9888  -18.8119   19.2950 C.2     1  UNL1        0.0006
     19 C          -3.3522  -18.5622   20.7287 C.2     1  UNL1        0.0114
     20 C         -10.9727  -18.9129   23.5563 C.3     1  UNL1        0.2358
     21 O         -10.9064  -17.4658   23.9457 O.3     1  UNL1       -0.4721
     22 C          -9.6287  -16.6998   23.7707 C.ar    1  UNL1        0.1481
     23 C          -9.2338  -16.1999   22.4127 C.ar    1  UNL1        0.1023
     24 C          -7.9561  -15.4339   22.2378 C.ar    1  UNL1        0.0133
     25 C          -7.0732  -15.1678   23.4208 C.ar    1  UNL1        0.0009
     26 C          -7.4680  -15.6677   24.7789 C.ar    1  UNL1        0.0030
     27 C          -6.5850  -15.4015   25.9619 C.ar    1  UNL1        0.0001
     28 C          -6.9798  -15.9014   27.3199 C.ar    1  UNL1        0.0000
     29 C          -8.2576  -16.6674   27.4948 C.ar    1  UNL1        0.0001
     30 C          -9.1405  -16.9336   26.3118 C.ar    1  UNL1        0.0030
     31 C          -8.7457  -16.4337   24.9538 C.ar    1  UNL1        0.0347
     32 C         -10.1168  -16.4661   21.2296 C.1     1  UNL1        0.1035
     33 N         -10.9997  -16.7321   20.0466 N.1     1  UNL1       -0.1907
@<TRIPOS>BOND
     1     7     8    1
     2     8     9    1
     3     8    10    1
     4    10    11    1
     5    11    12    2
     6    12    13    1
     7    13    14    2
     8    14    15    1
     9    15    16    1
    10    16    17    2
    11    17    18    1
    12    18    19    2
    13     8     5    1
    14     5     4    1
    15     4     1    1
    16     1     2    1
    17     1    20    1
    18    20    21    1
    19    21    22    1
    20    22    23   ar
    21    23    32    1
    22    32    33    3
    23    23    24   ar
    24    24    25   ar
    25    25    26   ar
    26    26    27   ar
    27    27    28   ar
    28    28    29   ar
    29    29    30   ar
    30    30    31   ar
    31    19    11    1
    32    31    22   ar
    33    19    14    1
    34    31    26   ar
    35     5     6    1
    36     2     3    1
@<TRIPOS>MOLECULE
*****
 33 36 0 0 0
SMALL
GASTEIGER

@<TRIPOS>ATOM
      1 C         -11.2329  -18.7867   22.0947 C.3     1  UNL1        0.1697
      2 O         -12.4384  -18.3555   21.3131 O.3     1  UNL1       -0.3793
      3 H         -13.0080  -17.8063   21.8741 H       1  UNL1        0.2106
      4 C         -10.1901  -19.6504   21.4494 C.3     1  UNL1        0.1020
      5 N          -8.8950  -19.0475   20.9921 N.3     1  UNL1       -0.2972
      6 H          -9.0074  -18.8233   20.0034 H       1  UNL1        0.1233
      7 C          -7.4423  -19.7754   19.6284 C.3     1  UNL1        0.0161
      8 C          -7.6195  -19.8269   21.1169 C.3     1  UNL1        0.0462
      9 C          -7.7966  -19.8784   22.6055 C.3     1  UNL1        0.0161
     10 C          -6.3439  -20.6063   21.2419 C.3     1  UNL1        0.0424
     11 C          -5.0398  -19.9786   20.8478 C.2     1  UNL1       -0.0006
     12 C          -4.2023  -20.3561   19.6620 C.2     1  UNL1        0.0942
     13 N          -2.9891  -19.4741   19.6517 N.2     1  UNL1       -0.2482
     14 C          -3.0768  -18.5514   20.8312 C.2     1  UNL1        0.0631
     15 C          -2.1663  -17.4676   21.3276 C.3     1  UNL1        0.0717
     16 C          -2.5231  -16.6957   22.5631 C.2     1  UNL1       -0.0198
     17 C          -3.7906  -17.0075   23.3024 C.2     1  UNL1       -0.0042
     18 C          -4.7010  -18.0913   22.8060 C.2     1  UNL1        0.0006
     19 C          -4.3442  -18.8633   21.5704 C.2     1  UNL1        0.0114
     20 C         -11.0703  -18.3542   23.5218 C.3     1  UNL1        0.2358
     21 O         -10.8752  -16.9031   23.8481 O.3     1  UNL1       -0.4721
     22 C          -9.5161  -16.2816   23.7194 C.ar    1  UNL1        0.1481
     23 C          -9.0538  -15.7573   22.3922 C.ar    1  UNL1        0.1023
     24 C          -7.6947  -15.1358   22.2635 C.ar    1  UNL1        0.0133
     25 C          -6.7979  -15.0386   23.4619 C.ar    1  UNL1        0.0009
     26 C          -7.2602  -15.5629   24.7891 C.ar    1  UNL1        0.0030
     27 C          -6.3633  -15.4657   25.9875 C.ar    1  UNL1        0.0001
     28 C          -6.8256  -15.9899   27.3147 C.ar    1  UNL1        0.0000
     29 C          -8.1847  -16.6114   27.4434 C.ar    1  UNL1        0.0001
     30 C          -9.0816  -16.7087   26.2450 C.ar    1  UNL1        0.0030
     31 C          -8.6193  -16.1844   24.9179 C.ar    1  UNL1        0.0347
     32 C          -9.9506  -15.8546   21.1937 C.1     1  UNL1        0.1035
     33 N         -10.8474  -15.9517   19.9953 N.1     1  UNL1       -0.1907
@<TRIPOS>BOND
     1     7     8    1
     2     8     9    1
     3     8    10    1
     4    10    11    1
     5    11    12    2
     6    12    13    1
     7    13    14    2
     8    14    15    1
     9    15    16    1
    10    16    17    2
    11    17    18    1
    12    18    19    2
    13     8     5    1
    14     5     4    1
    15     4     1    1
    16     1     2    1
    17     1    20    1
    18    20    21    1
    19    21    22    1
    20    22    23   ar
    21    23    32    1
    22    32    33    3
    23    23    24   ar
    24    24    25   ar
    25    25    26   ar
    26    26    27   ar
    27    27    28   ar
    28    28    29   ar
    29    29    30   ar
    30    30    31   ar
    31    19    11    1
    32    31    22   ar
    33    19    14    1
    34    31    26   ar
    35     5     6    1
    36     2     3    1
@<TRIPOS>MOLECULE
*****
 33 36 0 0 0
SMALL
GASTEIGER

@<TRIPOS>ATOM
      1 C          -7.3223  -15.0315   23.7029 C.3     1  UNL1        0.1697
      2 O          -7.4630  -14.7574   22.2349 O.3     1  UNL1       -0.3793
      3 H          -8.4035  -14.7384   21.9982 H       1  UNL1        0.2106
      4 C          -5.9591  -15.1116   24.3237 C.3     1  UNL1        0.1020
      5 N          -4.7428  -15.2131   23.4518 N.3     1  UNL1       -0.2972
      6 H          -5.0527  -15.0500   22.4938 H       1  UNL1        0.1233
      7 C          -3.2323  -16.0120   22.1948 C.3     1  UNL1        0.0161
      8 C          -3.9345  -16.4765   23.4362 C.3     1  UNL1        0.0462
      9 C          -4.6367  -16.9411   24.6775 C.3     1  UNL1        0.0161
     10 C          -3.1262  -17.7401   23.4206 C.3     1  UNL1        0.0424
     11 C          -3.3463  -18.7580   22.3411 C.2     1  UNL1       -0.0006
     12 C          -2.2782  -19.5396   21.6352 C.2     1  UNL1        0.0942
     13 N          -2.9449  -20.4377   20.6357 N.2     1  UNL1       -0.2482
     14 C          -4.4251  -20.2111   20.7239 C.2     1  UNL1        0.0631
     15 C          -5.5791  -20.8159   19.9807 C.3     1  UNL1        0.0717
     16 C          -6.9811  -20.3828   20.2913 C.2     1  UNL1       -0.0198
     17 C          -7.2293  -19.3446   21.3453 C.2     1  UNL1       -0.0042
     18 C          -6.0752  -18.7398   22.0886 C.2     1  UNL1        0.0006
     19 C          -4.6731  -19.1730   21.7779 C.2     1  UNL1        0.0114
     20 C          -8.5448  -15.2255   24.5502 C.3     1  UNL1        0.2358
     21 O          -9.7966  -15.7866   23.9433 O.3     1  UNL1       -0.4721
     22 C          -9.9537  -17.2699   23.7852 C.ar    1  UNL1        0.1481
     23 C          -9.6811  -18.1809   24.9453 C.ar    1  UNL1        0.1023
     24 C          -9.8382  -19.6642   24.7872 C.ar    1  UNL1        0.0133
     25 C         -10.2680  -20.2366   23.4690 C.ar    1  UNL1        0.0009
     26 C         -10.5406  -19.3257   22.3089 C.ar    1  UNL1        0.0030
     27 C         -10.9704  -19.8981   20.9907 C.ar    1  UNL1        0.0001
     28 C         -11.2430  -18.9871   19.8306 C.ar    1  UNL1        0.0000
     29 C         -11.0859  -17.5038   19.9887 C.ar    1  UNL1        0.0001
     30 C         -10.6561  -16.9314   21.3069 C.ar    1  UNL1        0.0030
     31 C         -10.3835  -17.8423   22.4670 C.ar    1  UNL1        0.0347
     32 C          -9.2513  -17.6085   26.2636 C.1     1  UNL1        0.1035
     33 N          -8.8215  -17.0361   27.5817 N.1     1  UNL1       -0.1907
@<TRIPOS>BOND
     1     7     8    1
     2     8     9    1
     3     8    10    1
     4    10    11    1
     5    11    12    2
     6    12    13    1
     7    13    14    2
     8    14    15    1
     9    15    16    1
    10    16    17    2
    11    17    18    1
    12    18    19    2
    13     8     5    1
    14     5     4    1
    15     4     1    1
    16     1     2    1
    17     1    20    1
    18    20    21    1
    19    21    22    1
    20    22    23   ar
    21    23    32    1
    22    32    33    3
    23    23    24   ar
    24    24    25   ar
    25    25    26   ar
    26    26    27   ar
    27    27    28   ar
    28    28    29   ar
    29    29    30   ar
    30    30    31   ar
    31    19    11    1
    32    31    22   ar
    33    19    14    1
    34    31    26   ar
    35     5     6    1
    36     2     3    1
@<TRIPOS>MOLECULE
*****
 33 36 0 0 0
SMALL
GASTEIGER

@<TRIPOS>ATOM
      1 C          -4.5818  -15.6314   23.6682 C.3     1  UNL1        0.1697
      2 O          -4.6596  -14.4167   22.7914 O.3     1  UNL1       -0.3793
      3 H          -4.0256  -14.5030   22.0624 H       1  UNL1        0.2106
      4 C          -5.4673  -15.7442   24.8737 C.3     1  UNL1        0.1020
      5 N          -6.6118  -14.7918   25.0553 N.3     1  UNL1       -0.2972
      6 H          -6.5345  -14.4153   26.0002 H       1  UNL1        0.1233
      7 C          -8.1611  -15.3626   26.3871 C.3     1  UNL1        0.0161
      8 C          -8.0226  -15.2756   24.8961 C.3     1  UNL1        0.0462
      9 C          -7.8841  -15.1887   23.4050 C.3     1  UNL1        0.0161
     10 C          -9.4335  -15.7595   24.7367 C.3     1  UNL1        0.0424
     11 C          -9.7091  -17.2236   24.5618 C.2     1  UNL1       -0.0006
     12 C          -9.5306  -18.2853   25.6063 C.2     1  UNL1        0.0942
     13 N          -9.9226  -19.6009   25.0017 N.2     1  UNL1       -0.2482
     14 C         -10.3435  -19.3522   23.5836 C.2     1  UNL1        0.0631
     15 C         -10.8298  -20.2738   22.5046 C.3     1  UNL1        0.0717
     16 C         -11.1842  -19.7263   21.1539 C.2     1  UNL1       -0.0198
     17 C         -11.0522  -18.2570   20.8820 C.2     1  UNL1       -0.0042
     18 C         -10.5658  -17.3354   21.9609 C.2     1  UNL1        0.0006
     19 C         -10.2115  -17.8830   23.3117 C.2     1  UNL1        0.0114
     20 C          -3.6186  -16.7332   23.3394 C.3     1  UNL1        0.2358
     21 O          -3.1266  -16.9043   21.9327 O.3     1  UNL1       -0.4721
     22 C          -3.3657  -18.1948   21.2063 C.ar    1  UNL1        0.1481
     23 C          -2.2811  -18.7902   20.3584 C.ar    1  UNL1        0.1023
     24 C          -2.5202  -20.0807   19.6321 C.ar    1  UNL1        0.0133
     25 C          -3.8439  -20.7756   19.7536 C.ar    1  UNL1        0.0009
     26 C          -4.9285  -20.1801   20.6015 C.ar    1  UNL1        0.0030
     27 C          -6.2522  -20.8751   20.7231 C.ar    1  UNL1        0.0001
     28 C          -7.3368  -20.2796   21.5710 C.ar    1  UNL1        0.0000
     29 C          -7.0977  -18.9892   22.2974 C.ar    1  UNL1        0.0001
     30 C          -5.7740  -18.2942   22.1758 C.ar    1  UNL1        0.0030
     31 C          -4.6894  -18.8897   21.3279 C.ar    1  UNL1        0.0347
     32 C          -0.9573  -18.0953   20.2369 C.1     1  UNL1        0.1035
     33 N           0.3665  -17.4004   20.1153 N.1     1  UNL1       -0.1907
@<TRIPOS>BOND
     1     7     8    1
     2     8     9    1
     3     8    10    1
     4    10    11    1
     5    11    12    2
     6    12    13    1
     7    13    14    2
     8    14    15    1
     9    15    16    1
    10    16    17    2
    11    17    18    1
    12    18    19    2
    13     8     5    1
    14     5     4    1
    15     4     1    1
    16     1     2    1
    17     1    20    1
    18    20    21    1
    19    21    22    1
    20    22    23   ar
    21    23    32    1
    22    32    33    3
    23    23    24   ar
    24    24    25   ar
    25    25    26   ar
    26    26    27   ar
    27    27    28   ar
    28    28    29   ar
    29    29    30   ar
    30    30    31   ar
    31    19    11    1
    32    31    22   ar
    33    19    14    1
    34    31    26   ar
    35     5     6    1
    36     2     3    1
@<TRIPOS>MOLECULE
*****
 33 36 0 0 0
SMALL
GASTEIGER

@<TRIPOS>ATOM
      1 C          -8.8399  -16.8116   24.9957 C.3     1  UNL1        0.1697
      2 O          -8.2051  -15.6573   25.7134 O.3     1  UNL1       -0.3793
      3 H          -7.6905  -15.1286   25.0837 H       1  UNL1        0.2106
      4 C          -9.6939  -17.7862   25.7511 C.3     1  UNL1        0.1020
      5 N          -9.6106  -19.2520   25.4433 N.3     1  UNL1       -0.2972
      6 H          -8.6239  -19.4671   25.2999 H       1  UNL1        0.1233
      7 C          -9.0874  -20.4553   23.7766 C.3     1  UNL1        0.0161
      8 C         -10.3519  -19.8147   24.2671 C.3     1  UNL1        0.0462
      9 C         -11.6164  -19.1741   24.7576 C.3     1  UNL1        0.0161
     10 C         -11.0934  -20.3775   23.0908 C.3     1  UNL1        0.0424
     11 C         -10.9644  -19.7306   21.7436 C.2     1  UNL1       -0.0006
     12 C         -10.3623  -20.3549   20.5198 C.2     1  UNL1        0.0942
     13 N         -10.4406  -19.3561   19.4035 N.2     1  UNL1       -0.2482
     14 C         -11.0912  -18.1144   19.9375 C.2     1  UNL1        0.0631
     15 C         -11.4306  -16.8028   19.2936 C.3     1  UNL1        0.0717
     16 C         -12.0937  -15.7227   20.0959 C.2     1  UNL1       -0.0198
     17 C         -12.4174  -15.9542   21.5422 C.2     1  UNL1       -0.0042
     18 C         -12.0780  -17.2658   22.1860 C.2     1  UNL1        0.0006
     19 C         -11.4149  -18.3459   21.3837 C.2     1  UNL1        0.0114
     20 C          -8.6205  -16.9910   23.5227 C.3     1  UNL1        0.2358
     21 O          -7.3853  -16.4382   22.8756 O.3     1  UNL1       -0.4721
     22 C          -6.1201  -17.2439   22.8636 C.ar    1  UNL1        0.1481
     23 C          -4.9895  -16.8784   23.7790 C.ar    1  UNL1        0.1023
     24 C          -3.7243  -17.6841   23.7671 C.ar    1  UNL1        0.0133
     25 C          -3.5898  -18.8553   22.8397 C.ar    1  UNL1        0.0009
     26 C          -4.7204  -19.2209   21.9242 C.ar    1  UNL1        0.0030
     27 C          -4.5859  -20.3921   20.9968 C.ar    1  UNL1        0.0001
     28 C          -5.7165  -20.7576   20.0814 C.ar    1  UNL1        0.0000
     29 C          -6.9817  -19.9519   20.0934 C.ar    1  UNL1        0.0001
     30 C          -7.1162  -18.7807   21.0207 C.ar    1  UNL1        0.0030
     31 C          -5.9856  -18.4152   21.9362 C.ar    1  UNL1        0.0347
     32 C          -5.1240  -15.7071   24.7065 C.1     1  UNL1        0.1035
     33 N          -5.2585  -14.5359   25.6339 N.1     1  UNL1       -0.1907
@<TRIPOS>BOND
     1     7     8    1
     2     8     9    1
     3     8    10    1
     4    10    11    1
     5    11    12    2
     6    12    13    1
     7    13    14    2
     8    14    15    1
     9    15    16    1
    10    16    17    2
    11    17    18    1
    12    18    19    2
    13     8     5    1
    14     5     4    1
    15     4     1    1
    16     1     2    1
    17     1    20    1
    18    20    21    1
    19    21    22    1
    20    22    23   ar
    21    23    32    1
    22    32    33    3
    23    23    24   ar
    24    24    25   ar
    25    25    26   ar
    26    26    27   ar
    27    27    28   ar
    28    28    29   ar
    29    29    30   ar
    30    30    31   ar
    31    19    11    1
    32    31    22   ar
    33    19    14    1
    34    31    26   ar
    35     5     6    1
    36     2     3    1
@<TRIPOS>MOLECULE
*****
 33 36 0 0 0
SMALL
GASTEIGER

@<TRIPOS>ATOM
      1 C          -9.3353  -19.3260   20.4590 C.3     1  UNL1        0.1697
      2 O          -9.3718  -19.5902   18.9828 O.3     1  UNL1       -0.3793
      3 H          -8.5103  -19.3722   18.5939 H       1  UNL1        0.2106
      4 C         -10.5518  -19.5845   21.2975 C.3     1  UNL1        0.1020
      5 N         -11.4868  -18.4594   21.6295 N.3     1  UNL1       -0.2972
      6 H         -11.7328  -18.0110   20.7470 H       1  UNL1        0.1233
      7 C         -11.3562  -16.3456   21.5096 C.3     1  UNL1        0.0161
      8 C         -11.0474  -17.3694   22.5614 C.3     1  UNL1        0.0462
      9 C         -10.7387  -18.3931   23.6133 C.3     1  UNL1        0.0161
     10 C         -10.6081  -16.2792   23.4935 C.3     1  UNL1        0.0424
     11 C          -9.1546  -15.9241   23.6001 C.2     1  UNL1       -0.0006
     12 C          -8.2422  -15.5913   22.4570 C.2     1  UNL1        0.0942
     13 N          -6.8821  -15.3009   23.0189 N.2     1  UNL1       -0.2482
     14 C          -6.9539  -15.4544   24.5093 C.2     1  UNL1        0.0631
     15 C          -5.9219  -15.2931   25.5858 C.3     1  UNL1        0.0717
     16 C          -6.2942  -15.5170   27.0215 C.2     1  UNL1       -0.0198
     17 C          -7.6988  -15.9022   27.3807 C.2     1  UNL1       -0.0042
     18 C          -8.7308  -16.0634   26.3042 C.2     1  UNL1        0.0006
     19 C          -8.3584  -15.8395   24.8685 C.2     1  UNL1        0.0114
     20 C          -8.0821  -18.8033   21.0965 C.3     1  UNL1        0.2358
     21 O          -7.1257  -19.7509   21.7581 O.3     1  UNL1       -0.4721
     22 C          -5.7189  -19.8716   21.2519 C.ar    1  UNL1        0.1481
     23 C          -5.4172  -20.7562   20.0787 C.ar    1  UNL1        0.1023
     24 C          -4.0103  -20.8768   19.5726 C.ar    1  UNL1        0.0133
     25 C          -2.9051  -20.1129   20.2396 C.ar    1  UNL1        0.0009
     26 C          -3.2068  -19.2282   21.4129 C.ar    1  UNL1        0.0030
     27 C          -2.1017  -18.4643   22.0799 C.ar    1  UNL1        0.0001
     28 C          -2.4034  -17.5797   23.2531 C.ar    1  UNL1        0.0000
     29 C          -3.8102  -17.4590   23.7592 C.ar    1  UNL1        0.0001
     30 C          -4.9154  -18.2229   23.0922 C.ar    1  UNL1        0.0030
     31 C          -4.6137  -19.1076   21.9190 C.ar    1  UNL1        0.0347
     32 C          -6.5223  -21.5202   19.4116 C.1     1  UNL1        0.1035
     33 N          -7.6275  -22.2841   18.7446 N.1     1  UNL1       -0.1907
@<TRIPOS>BOND
     1     7     8    1
     2     8     9    1
     3     8    10    1
     4    10    11    1
     5    11    12    2
     6    12    13    1
     7    13    14    2
     8    14    15    1
     9    15    16    1
    10    16    17    2
    11    17    18    1
    12    18    19    2
    13     8     5    1
    14     5     4    1
    15     4     1    1
    16     1     2    1
    17     1    20    1
    18    20    21    1
    19    21    22    1
    20    22    23   ar
    21    23    32    1
    22    32    33    3
    23    23    24   ar
    24    24    25   ar
    25    25    26   ar
    26    26    27   ar
    27    27    28   ar
    28    28    29   ar
    29    29    30   ar
    30    30    31   ar
    31    19    11    1
    32    31    22   ar
    33    19    14    1
    34    31    26   ar
    35     5     6    1
    36     2     3    1
@<TRIPOS>MOLECULE
*****
 33 36 0 0 0
SMALL
GASTEIGER

@<TRIPOS>ATOM
      1 C          -9.1448  -16.8795   24.8345 C.3     1  UNL1        0.1697
      2 O         -10.0394  -16.1828   23.8524 O.3     1  UNL1       -0.3793
      3 H         -10.6386  -16.8286   23.4464 H       1  UNL1        0.2106
      4 C          -8.1202  -16.0974   25.6016 C.3     1  UNL1        0.1020
      5 N          -7.3835  -14.9724   24.9371 N.3     1  UNL1       -0.2972
      6 H          -7.9473  -14.6826   24.1380 H       1  UNL1        0.1233
      7 C          -6.4919  -15.1102   23.0172 C.3     1  UNL1        0.0161
      8 C          -5.9888  -15.1862   24.4282 C.3     1  UNL1        0.0462
      9 C          -5.4857  -15.2623   25.8393 C.3     1  UNL1        0.0161
     10 C          -4.5940  -15.4001   23.9194 C.3     1  UNL1        0.0424
     11 C          -4.1893  -16.7404   23.3811 C.2     1  UNL1       -0.0006
     12 C          -4.8088  -18.0585   23.7403 C.2     1  UNL1        0.0942
     13 N          -4.0964  -19.1306   22.9702 N.2     1  UNL1       -0.2482
     14 C          -3.0367  -18.4752   22.1351 C.2     1  UNL1        0.0631
     15 C          -2.0269  -19.0326   21.1762 C.3     1  UNL1        0.0717
     16 C          -1.0745  -18.1129   20.4712 C.2     1  UNL1       -0.0198
     17 C          -1.1319  -16.6356   20.7251 C.2     1  UNL1       -0.0042
     18 C          -2.1417  -16.0782   21.6840 C.2     1  UNL1        0.0006
     19 C          -3.0941  -16.9979   22.3890 C.2     1  UNL1        0.0114
     20 C          -9.2747  -18.3584   25.0493 C.3     1  UNL1        0.2358
     21 O         -10.3089  -19.1382   24.2926 O.3     1  UNL1       -0.4721
     22 C         -10.4388  -18.9678   22.8079 C.ar    1  UNL1        0.1481
     23 C         -11.7232  -18.4629   22.2205 C.ar    1  UNL1        0.1023
     24 C         -11.8531  -18.2925   20.7359 C.ar    1  UNL1        0.0133
     25 C         -10.6986  -18.6271   19.8387 C.ar    1  UNL1        0.0009
     26 C          -9.4140  -19.1321   20.4261 C.ar    1  UNL1        0.0030
     27 C          -8.2594  -19.4666   19.5289 C.ar    1  UNL1        0.0001
     28 C          -6.9750  -19.9716   20.1164 C.ar    1  UNL1        0.0000
     29 C          -6.8451  -20.1419   21.6010 C.ar    1  UNL1        0.0001
     30 C          -7.9996  -19.8074   22.4982 C.ar    1  UNL1        0.0030
     31 C          -9.2841  -19.3024   21.9107 C.ar    1  UNL1        0.0347
     32 C         -12.8779  -18.1283   23.1177 C.1     1  UNL1        0.1035
     33 N         -14.0324  -17.7936   24.0149 N.1     1  UNL1       -0.1907
@<TRIPOS>BOND
     1     7     8    1
     2     8     9    1
     3     8    10    1
     4    10    11    1
     5    11    12    2
     6    12    13    1
     7    13    14    2
     8    14    15    1
     9    15    16    1
    10    16    17    2
    11    17    18    1
    12    18    19    2
    13     8     5    1
    14     5     4    1
    15     4     1    1
    16     1     2    1
    17     1    20    1
    18    20    21    1
    19    21    22    1
    20    22    23   ar
    21    23    32    1
    22    32    33    3
    23    23    24   ar
    24    24    25   ar
    25    25    26   ar
    26    26    27   ar
    27    27    28   ar
    28    28    29   ar
    29    29    30   ar
    30    30    31   ar
    31    19    11    1
    32    31    22   ar
    33    19    14    1
    34    31    26   ar
    35     5     6    1
    36     2     3    1
@<TRIPOS>MOLECULE
*****
 33 36 0 0 0
SMALL
GASTEIGER

@<TRIPOS>ATOM
      1 C          -5.1710  -15.5582   23.8398 C.3     1  UNL1        0.1697
      2 O          -4.6492  -14.5141   22.8977 O.3     1  UNL1       -0.3793
      3 H          -4.6446  -14.8671   21.9942 H       1  UNL1        0.2106
      4 C          -5.2787  -15.2592   25.3057 C.3     1  UNL1        0.1020
      5 N          -6.5540  -14.7027   25.8660 N.3     1  UNL1       -0.2972
      6 H          -6.5125  -14.8316   26.8769 H       1  UNL1        0.1233
      7 C          -7.8596  -14.3190   24.2387 C.3     1  UNL1        0.0161
      8 C          -7.8745  -15.2517   25.4133 C.3     1  UNL1        0.0462
      9 C          -7.8894  -16.1843   26.5880 C.3     1  UNL1        0.0161
     10 C          -9.1951  -15.8007   24.9608 C.3     1  UNL1        0.0424
     11 C          -9.3186  -16.4381   23.6086 C.2     1  UNL1       -0.0006
     12 C          -8.8705  -15.8404   22.3078 C.2     1  UNL1        0.0942
     13 N          -9.1868  -16.8180   21.2150 N.2     1  UNL1       -0.2482
     14 C          -9.8304  -18.0199   21.8405 C.2     1  UNL1        0.0631
     15 C         -10.3529  -19.2979   21.2541 C.3     1  UNL1        0.0717
     16 C         -10.9568  -20.3410   22.1468 C.2     1  UNL1       -0.0198
     17 C         -11.0382  -20.1063   23.6262 C.2     1  UNL1       -0.0042
     18 C         -10.5158  -18.8283   24.2125 C.2     1  UNL1        0.0006
     19 C          -9.9119  -17.7851   23.3197 C.2     1  UNL1        0.0114
     20 C          -5.5851  -16.9014   23.3160 C.3     1  UNL1        0.2358
     21 O          -4.5939  -18.0263   23.2692 O.3     1  UNL1       -0.4721
     22 C          -4.2212  -18.6432   21.9537 C.ar    1  UNL1        0.1481
     23 C          -5.0643  -19.7401   21.3740 C.ar    1  UNL1        0.1023
     24 C          -4.6916  -20.3570   20.0585 C.ar    1  UNL1        0.0133
     25 C          -3.4758  -19.8771   19.3227 C.ar    1  UNL1        0.0009
     26 C          -2.6326  -18.7802   19.9024 C.ar    1  UNL1        0.0030
     27 C          -1.4167  -18.3003   19.1666 C.ar    1  UNL1        0.0001
     28 C          -0.5736  -17.2035   19.7463 C.ar    1  UNL1        0.0000
     29 C          -0.9463  -16.5866   21.0618 C.ar    1  UNL1        0.0001
     30 C          -2.1621  -17.0665   21.7976 C.ar    1  UNL1        0.0030
     31 C          -3.0053  -18.1633   21.2179 C.ar    1  UNL1        0.0347
     32 C          -6.2802  -20.2200   22.1098 C.1     1  UNL1        0.1035
     33 N          -7.4960  -20.7000   22.8455 N.1     1  UNL1       -0.1907
@<TRIPOS>BOND
     1     7     8    1
     2     8     9    1
     3     8    10    1
     4    10    11    1
     5    11    12    2
     6    12    13    1
     7    13    14    2
     8    14    15    1
     9    15    16    1
    10    16    17    2
    11    17    18    1
    12    18    19    2
    13     8     5    1
    14     5     4    1
    15     4     1    1
    16     1     2    1
    17     1    20    1
    18    20    21    1
    19    21    22    1
    20    22    23   ar
    21    23    32    1
    22    32    33    3
    23    23    24   ar
    24    24    25   ar
    25    25    26   ar
    26    26    27   ar
    27    27    28   ar
    28    28    29   ar
    29    29    30   ar
    30    30    31   ar
    31    19    11    1
    32    31    22   ar
    33    19    14    1
    34    31    26   ar
    35     5     6    1
    36     2     3    1
@<TRIPOS>MOLECULE
*****
 33 36 0 0 0
SMALL
GASTEIGER

@<TRIPOS>ATOM
      1 C         -10.3976  -17.5096   20.5726 C.3     1  UNL1        0.1697
      2 O         -11.6716  -17.1720   19.8563 O.3     1  UNL1       -0.3793
      3 H         -12.0357  -16.3477   20.2152 H       1  UNL1        0.2106
      4 C          -9.6335  -18.7459   20.2016 C.3     1  UNL1        0.1020
      5 N          -8.9129  -19.5280   21.2594 N.3     1  UNL1       -0.2972
      6 H          -9.0120  -19.0062   22.1302 H       1  UNL1        0.1233
      7 C          -7.3992  -20.3085   22.5240 C.3     1  UNL1        0.0161
      8 C          -7.4530  -19.8344   21.1020 C.3     1  UNL1        0.0462
      9 C          -7.5069  -19.3602   19.6799 C.3     1  UNL1        0.0161
     10 C          -5.9931  -20.1408   20.9445 C.3     1  UNL1        0.0424
     11 C          -4.9648  -19.1621   21.4290 C.2     1  UNL1       -0.0006
     12 C          -4.9591  -18.4774   22.7636 C.2     1  UNL1        0.0942
     13 N          -3.7525  -17.5884   22.8234 N.2     1  UNL1       -0.2482
     14 C          -3.0124  -17.7236   21.5257 C.2     1  UNL1        0.0631
     15 C          -1.7530  -17.0868   21.0174 C.3     1  UNL1        0.0717
     16 C          -1.2428  -17.4224   19.6474 C.2     1  UNL1       -0.0198
     17 C          -1.9921  -18.3950   18.7855 C.2     1  UNL1       -0.0042
     18 C          -3.2515  -19.0318   19.2938 C.2     1  UNL1        0.0006
     19 C          -3.7617  -18.6962   20.6639 C.2     1  UNL1        0.0114
     20 C          -9.8878  -16.6109   21.6600 C.3     1  UNL1        0.2358
     21 O          -8.6343  -16.9683   22.4023 O.3     1  UNL1       -0.4721
     22 C          -8.6292  -16.9829   23.9023 C.ar    1  UNL1        0.1481
     23 C          -9.7003  -17.7215   24.6487 C.ar    1  UNL1        0.1023
     24 C          -9.6953  -17.7361   26.1486 C.ar    1  UNL1        0.0133
     25 C          -8.6192  -17.0121   26.9021 C.ar    1  UNL1        0.0009
     26 C          -7.5480  -16.2735   26.1556 C.ar    1  UNL1        0.0030
     27 C          -6.4719  -15.5495   26.9091 C.ar    1  UNL1        0.0001
     28 C          -5.4008  -14.8109   26.1627 C.ar    1  UNL1        0.0000
     29 C          -5.4058  -14.7963   24.6627 C.ar    1  UNL1        0.0001
     30 C          -6.4819  -15.5203   23.9093 C.ar    1  UNL1        0.0030
     31 C          -7.5530  -16.2589   24.6557 C.ar    1  UNL1        0.0347
     32 C         -10.7765  -18.4455   23.8953 C.1     1  UNL1        0.1035
     33 N         -11.8527  -19.1695   23.1418 N.1     1  UNL1       -0.1907
@<TRIPOS>BOND
     1     7     8    1
     2     8     9    1
     3     8    10    1
     4    10    11    1
     5    11    12    2
     6    12    13    1
     7    13    14    2
     8    14    15    1
     9    15    16    1
    10    16    17    2
    11    17    18    1
    12    18    19    2
    13     8     5    1
    14     5     4    1
    15     4     1    1
    16     1     2    1
    17     1    20    1
    18    20    21    1
    19    21    22    1
    20    22    23   ar
    21    23    32    1
    22    32    33    3
    23    23    24   ar
    24    24    25   ar
    25    25    26   ar
    26    26    27   ar
    27    27    28   ar
    28    28    29   ar
    29    29    30   ar
    30    30    31   ar
    31    19    11    1
    32    31    22   ar
    33    19    14    1
    34    31    26   ar
    35     5     6    1
    36     2     3    1
