@<TRIPOS>MOLECULE
*****
 34 38 0 0 0
SMALL
GASTEIGER

@<TRIPOS>ATOM
      1 N           0.2440    2.3567   22.1848 N.3     1  UNL1       -0.2703
      2 C          -0.9800    3.1652   21.8717 C.3     1  UNL1        0.0727
      3 C          -1.9137    3.5698   22.9737 C.3     1  UNL1        0.0260
      4 C          -1.6234    3.1658   24.3888 C.3     1  UNL1        0.0737
      5 C          -0.3994    2.3573   24.7019 C.3     1  UNL1        0.0260
      6 C           0.5343    1.9527   23.5999 C.3     1  UNL1        0.0727
      7 C          -1.4649    2.8373   25.8438 C.3     1  UNL1        0.0306
      8 C          -2.6231    3.4384   26.5836 C.3     1  UNL1        0.1001
      9 N          -3.4974    4.1385   25.5858 N.am    1  UNL1       -0.2425
     10 C          -2.8796    3.9701   24.2294 C.2     1  UNL1        0.2296
     11 O          -3.4225    4.5108   22.9399 O.2     1  UNL1       -0.2745
     12 C          -4.7666    4.8773   25.8909 C.ar    1  UNL1        0.1574
     13 C          -4.8695    5.7099   27.1343 C.ar    1  UNL1        0.0414
     14 C          -6.1388    6.4487   27.4394 C.ar    1  UNL1        0.0651
     15 C          -7.3052    6.3550   26.5010 C.ar    1  UNL1        0.2766
     16 O          -8.5745    7.0938   26.8061 O.2     1  UNL1       -0.2655
     17 N          -7.2024    5.5223   25.2575 N.ar    1  UNL1       -0.2134
     18 C          -8.3689    5.4285   24.3191 C.3     1  UNL1        0.1571
     19 N          -5.9331    4.7835   24.9525 N.ar    1  UNL1       -0.1513
     20 C           1.1777    1.9520   21.0827 C.3     1  UNL1        0.1063
     21 C           1.1034    0.5691   20.5067 C.3     1  UNL1        0.1483
     22 O          -0.2034   -0.1670   20.4894 O.3     1  UNL1       -0.3786
     23 H          -0.0774   -1.0402   20.0862 H       1  UNL1        0.2108
     24 C           2.9258   -0.9921   22.3072 C.3     1  UNL1        0.0306
     25 C           3.2472   -0.8584   20.8481 C.ar    1  UNL1       -0.0238
     26 C           2.3361   -0.0779   19.9479 C.ar    1  UNL1        0.0015
     27 C           2.6574    0.0558   18.4888 C.ar    1  UNL1       -0.0020
     28 C           3.8900   -0.5912   17.9300 C.ar    1  UNL1        0.0060
     29 C           4.8011   -1.3717   18.8303 C.ar    1  UNL1        0.0748
     30 C           4.4797   -1.5053   20.2893 C.ar    1  UNL1        0.0233
     31 C           5.5576   -2.3305   20.9277 C.3     1  UNL1        0.2352
     32 O           6.5451   -2.7068   19.8632 O.3     1  UNL1       -0.4404
     33 C           6.0776   -2.1143   18.5669 C.2     1  UNL1        0.3413
     34 O           6.7657   -2.2418   17.2402 O.2     1  UNL1       -0.2449
@<TRIPOS>BOND
     1    24    25    1
     2    25    26   ar
     3    26    21    1
     4    21    22    1
     5    21    20    1
     6    20     1    1
     7     1     2    1
     8     2     3    1
     9     3     4    1
    10     4     5    1
    11     5     6    1
    12     4     7    1
    13     7     8    1
    14     8     9    1
    15     9    12    1
    16    12    13   ar
    17    13    14   ar
    18    14    15   ar
    19    15    16    2
    20    15    17   ar
    21    17    18    1
    22    17    19   ar
    23     9    10   am
    24    10    11    2
    25    26    27   ar
    26    27    28   ar
    27    28    29   ar
    28    29    30   ar
    29    30    31    1
    30    31    32    1
    31    32    33    1
    32    33    34    2
    33    30    25   ar
    34     6     1    1
    35    19    12   ar
    36    33    29    1
    37    10     4    1
    38    22    23    1
@<TRIPOS>MOLECULE
*****
 34 38 0 0 0
SMALL
GASTEIGER

@<TRIPOS>ATOM
      1 N           1.1844    1.9108   23.6900 N.3     1  UNL1       -0.2703
      2 C           2.3756    1.6352   24.5589 C.3     1  UNL1        0.0727
      3 C           2.1906    1.3737   26.0242 C.3     1  UNL1        0.0260
      4 C           0.8144    1.3879   26.6207 C.3     1  UNL1        0.0737
      5 C          -0.3768    1.6635   25.7518 C.3     1  UNL1        0.0260
      6 C          -0.1918    1.9250   24.2865 C.3     1  UNL1        0.0727
      7 C          -0.4936    1.3695   27.3548 C.3     1  UNL1        0.0306
      8 C          -0.2115    1.0691   28.7972 C.3     1  UNL1        0.1001
      9 N           1.2709    0.9018   28.9545 N.am    1  UNL1       -0.2425
     10 C           1.9049    1.0988   27.6094 C.2     1  UNL1        0.2296
     11 O           3.3718    1.0205   27.3061 O.2     1  UNL1       -0.2745
     12 C           1.9925    0.5920   30.2324 C.ar    1  UNL1        0.1574
     13 C           2.8470   -0.6367   30.3322 C.ar    1  UNL1        0.0414
     14 C           3.5686   -0.9466   31.6102 C.ar    1  UNL1        0.0651
     15 C           3.4357   -0.0278   32.7884 C.ar    1  UNL1        0.2766
     16 O           4.1574   -0.3376   34.0664 O.2     1  UNL1       -0.2655
     17 N           2.5812    1.2011   32.6885 N.ar    1  UNL1       -0.2134
     18 C           2.4483    2.1199   33.8667 C.3     1  UNL1        0.1571
     19 N           1.8596    1.5108   31.4105 N.ar    1  UNL1       -0.1513
     20 C           1.3694    2.1723   22.2245 C.3     1  UNL1        0.1063
     21 C           0.9119    1.1585   21.2182 C.3     1  UNL1        0.1483
     22 O          -0.5392    1.0704   20.8487 O.3     1  UNL1       -0.3786
     23 H          -0.6633    0.3687   20.1906 H       1  UNL1        0.2108
     24 C           1.6802    1.5313   18.3423 C.3     1  UNL1        0.0306
     25 C           2.2897    0.4191   19.1433 C.ar    1  UNL1       -0.0238
     26 C           1.9056    0.2327   20.5812 C.ar    1  UNL1        0.0015
     27 C           2.5150   -0.8795   21.3822 C.ar    1  UNL1       -0.0020
     28 C           3.5086   -1.8052   20.7453 C.ar    1  UNL1        0.0060
     29 C           3.8927   -1.6188   19.3074 C.ar    1  UNL1        0.0748
     30 C           3.2833   -0.5067   18.5064 C.ar    1  UNL1        0.0233
     31 C           3.8515   -0.5690   17.1195 C.3     1  UNL1        0.2352
     32 O           4.8121   -1.7197   17.0634 O.3     1  UNL1       -0.4404
     33 C           4.8376   -2.3685   18.4156 C.2     1  UNL1        0.3413
     34 O           5.6630   -3.5582   18.8072 O.2     1  UNL1       -0.2449
@<TRIPOS>BOND
     1    24    25    1
     2    25    26   ar
     3    26    21    1
     4    21    22    1
     5    21    20    1
     6    20     1    1
     7     1     2    1
     8     2     3    1
     9     3     4    1
    10     4     5    1
    11     5     6    1
    12     4     7    1
    13     7     8    1
    14     8     9    1
    15     9    12    1
    16    12    13   ar
    17    13    14   ar
    18    14    15   ar
    19    15    16    2
    20    15    17   ar
    21    17    18    1
    22    17    19   ar
    23     9    10   am
    24    10    11    2
    25    26    27   ar
    26    27    28   ar
    27    28    29   ar
    28    29    30   ar
    29    30    31    1
    30    31    32    1
    31    32    33    1
    32    33    34    2
    33    30    25   ar
    34     6     1    1
    35    19    12   ar
    36    33    29    1
    37    10     4    1
    38    22    23    1
@<TRIPOS>MOLECULE
*****
 34 38 0 0 0
SMALL
GASTEIGER

@<TRIPOS>ATOM
      1 N           6.6922   -3.4787   29.6245 N.3     1  UNL1       -0.2703
      2 C           6.0089   -2.1774   29.3256 C.3     1  UNL1        0.0727
      3 C           5.3099   -1.4284   30.4212 C.3     1  UNL1        0.0260
      4 C           5.2942   -1.9809   31.8157 C.3     1  UNL1        0.0737
      5 C           5.9775   -3.2823   32.1146 C.3     1  UNL1        0.0260
      6 C           6.6766   -4.0312   31.0190 C.3     1  UNL1        0.0727
      7 C           5.1952   -2.4065   33.2506 C.3     1  UNL1        0.0306
      8 C           4.4112   -1.3634   33.9906 C.3     1  UNL1        0.1001
      9 N           4.0257   -0.2931   33.0129 N.am    1  UNL1       -0.2425
     10 C           4.5714   -0.6747   31.6688 C.2     1  UNL1        0.2296
     11 O           4.4208    0.1118   30.4004 O.2     1  UNL1       -0.2745
     12 C           3.2336    0.9419   33.3246 C.ar    1  UNL1        0.1574
     13 C           3.4792    1.6878   34.6026 C.ar    1  UNL1        0.0414
     14 C           2.6871    2.9229   34.9143 C.ar    1  UNL1        0.0651
     15 C           1.6493    3.4120   33.9480 C.ar    1  UNL1        0.2766
     16 O           0.8571    4.6471   34.2597 O.2     1  UNL1       -0.2655
     17 N           1.4036    2.6661   32.6699 N.ar    1  UNL1       -0.2134
     18 C           0.3658    3.1553   31.7036 C.3     1  UNL1        0.1571
     19 N           2.1958    1.4311   32.3583 N.ar    1  UNL1       -0.1513
     20 C           7.3913   -4.2278   28.5289 C.3     1  UNL1        0.1063
     21 C           6.5923   -4.9821   27.5079 C.3     1  UNL1        0.1483
     22 O           5.4525   -5.8548   27.9429 O.3     1  UNL1       -0.3786
     23 H           5.0454   -6.2668   27.1648 H       1  UNL1        0.2108
     24 C           8.0143   -7.2254   26.1131 C.3     1  UNL1        0.0306
     25 C           7.6440   -5.9855   25.3545 C.ar    1  UNL1       -0.0238
     26 C           6.9330   -4.8639   26.0519 C.ar    1  UNL1        0.0015
     27 C           6.5627   -3.6239   25.2933 C.ar    1  UNL1       -0.0020
     28 C           6.9034   -3.5056   23.8373 C.ar    1  UNL1        0.0060
     29 C           7.6144   -4.6272   23.1399 C.ar    1  UNL1        0.0748
     30 C           7.9847   -5.8672   23.8985 C.ar    1  UNL1        0.0233
     31 C           8.6767   -6.8012   22.9505 C.3     1  UNL1        0.2352
     32 O           8.7340   -6.1386   21.6060 O.3     1  UNL1       -0.4404
     33 C           8.0775   -4.7950   21.7231 C.2     1  UNL1        0.3413
     34 O           7.9130   -3.7947   20.6175 O.2     1  UNL1       -0.2449
@<TRIPOS>BOND
     1    24    25    1
     2    25    26   ar
     3    26    21    1
     4    21    22    1
     5    21    20    1
     6    20     1    1
     7     1     2    1
     8     2     3    1
     9     3     4    1
    10     4     5    1
    11     5     6    1
    12     4     7    1
    13     7     8    1
    14     8     9    1
    15     9    12    1
    16    12    13   ar
    17    13    14   ar
    18    14    15   ar
    19    15    16    2
    20    15    17   ar
    21    17    18    1
    22    17    19   ar
    23     9    10   am
    24    10    11    2
    25    26    27   ar
    26    27    28   ar
    27    28    29   ar
    28    29    30   ar
    29    30    31    1
    30    31    32    1
    31    32    33    1
    32    33    34    2
    33    30    25   ar
    34     6     1    1
    35    19    12   ar
    36    33    29    1
    37    10     4    1
    38    22    23    1
@<TRIPOS>MOLECULE
*****
 34 38 0 0 0
SMALL
GASTEIGER

@<TRIPOS>ATOM
      1 N           2.4185    0.4996   27.1533 N.3     1  UNL1       -0.2703
      2 C           2.0366    1.0207   25.7996 C.3     1  UNL1        0.0727
      3 C           2.5954    0.3793   24.5641 C.3     1  UNL1        0.0260
      4 C           3.5360   -0.7831   24.6824 C.3     1  UNL1        0.0737
      5 C           3.9179   -1.3042   26.0361 C.3     1  UNL1        0.0260
      6 C           3.3591   -0.6628   27.2716 C.3     1  UNL1        0.0727
      7 C           4.4822   -1.9464   24.6437 C.3     1  UNL1        0.0306
      8 C           4.7777   -2.2560   23.2060 C.3     1  UNL1        0.1001
      9 N           4.0141   -1.2840   22.3561 N.am    1  UNL1       -0.2425
     10 C           3.2467   -0.3737   23.2685 C.2     1  UNL1        0.2296
     11 O           2.3479    0.7488   22.8421 O.2     1  UNL1       -0.2745
     12 C           4.0173   -1.2316   20.8571 C.ar    1  UNL1        0.1574
     13 C           3.6810   -2.4589   20.0630 C.ar    1  UNL1        0.0414
     14 C           3.6842   -2.4064   18.5639 C.ar    1  UNL1        0.0651
     15 C           4.0237   -1.1266   17.8589 C.ar    1  UNL1        0.2766
     16 O           4.0270   -1.0742   16.3598 O.2     1  UNL1       -0.2655
     17 N           4.3601    0.1007   18.6531 N.ar    1  UNL1       -0.2134
     18 C           4.6996    1.3805   17.9481 C.3     1  UNL1        0.1571
     19 N           4.3568    0.0482   20.1522 N.ar    1  UNL1       -0.1513
     20 C           1.8597    1.1409   28.3889 C.3     1  UNL1        0.1063
     21 C           1.4043    0.2885   29.5359 C.3     1  UNL1        0.1483
     22 O           0.1472   -0.5211   29.4159 O.3     1  UNL1       -0.3786
     23 H          -0.0019   -1.0108   30.2399 H       1  UNL1        0.2108
     24 C           0.9986    2.3887   31.6394 C.3     1  UNL1        0.0306
     25 C           2.0031    1.2956   31.8548 C.ar    1  UNL1       -0.0238
     26 C           2.2059    0.2455   30.8031 C.ar    1  UNL1        0.0015
     27 C           3.2103   -0.8475   31.0185 C.ar    1  UNL1       -0.0020
     28 C           4.0119   -0.8905   32.2856 C.ar    1  UNL1        0.0060
     29 C           3.8091    0.1596   33.3373 C.ar    1  UNL1        0.0748
     30 C           2.8046    1.2527   33.1219 C.ar    1  UNL1        0.0233
     31 C           2.8231    2.1434   34.3286 C.3     1  UNL1        0.2352
     32 O           3.8388    1.6010   35.2898 O.3     1  UNL1       -0.4404
     33 C           4.4482    0.3749   34.6771 C.2     1  UNL1        0.3413
     34 O           5.5103   -0.4850   35.2957 O.2     1  UNL1       -0.2449
@<TRIPOS>BOND
     1    24    25    1
     2    25    26   ar
     3    26    21    1
     4    21    22    1
     5    21    20    1
     6    20     1    1
     7     1     2    1
     8     2     3    1
     9     3     4    1
    10     4     5    1
    11     5     6    1
    12     4     7    1
    13     7     8    1
    14     8     9    1
    15     9    12    1
    16    12    13   ar
    17    13    14   ar
    18    14    15   ar
    19    15    16    2
    20    15    17   ar
    21    17    18    1
    22    17    19   ar
    23     9    10   am
    24    10    11    2
    25    26    27   ar
    26    27    28   ar
    27    28    29   ar
    28    29    30   ar
    29    30    31    1
    30    31    32    1
    31    32    33    1
    32    33    34    2
    33    30    25   ar
    34     6     1    1
    35    19    12   ar
    36    33    29    1
    37    10     4    1
    38    22    23    1
@<TRIPOS>MOLECULE
*****
 34 38 0 0 0
SMALL
GASTEIGER

@<TRIPOS>ATOM
      1 N           7.0961   -4.8759   26.1668 N.3     1  UNL1       -0.2703
      2 C           6.6891   -3.5531   26.7452 C.3     1  UNL1        0.0727
      3 C           6.5671   -3.3899   28.2312 C.3     1  UNL1        0.0260
      4 C           6.8521   -4.5496   29.1390 C.3     1  UNL1        0.0737
      5 C           7.2591   -5.8724   28.5606 C.3     1  UNL1        0.0260
      6 C           7.3811   -6.0355   27.0746 C.3     1  UNL1        0.0727
      7 C           7.1036   -5.6132   30.1663 C.3     1  UNL1        0.0306
      8 C           6.8641   -5.0151   31.5210 C.3     1  UNL1        0.1001
      9 N           6.4646   -3.5818   31.3308 N.am    1  UNL1       -0.2425
     10 C           6.4572   -3.2941   29.8587 C.2     1  UNL1        0.2296
     11 O           6.1149   -1.9815   29.2185 O.2     1  UNL1       -0.2745
     12 C           6.1310   -2.6074   32.4212 C.ar    1  UNL1        0.1574
     13 C           4.7529   -2.5869   33.0131 C.ar    1  UNL1        0.0414
     14 C           4.4194   -1.6124   34.1036 C.ar    1  UNL1        0.0651
     15 C           5.4640   -0.6584   34.6022 C.ar    1  UNL1        0.2766
     16 O           5.1304    0.3161   35.6927 O.2     1  UNL1       -0.2655
     17 N           6.8422   -0.6789   34.0104 N.ar    1  UNL1       -0.2134
     18 C           7.8868    0.2751   34.5091 C.3     1  UNL1        0.1571
     19 N           7.1756   -1.6534   32.9199 N.ar    1  UNL1       -0.1513
     20 C           7.2182   -5.0391   24.6807 C.3     1  UNL1        0.1063
     21 C           7.4383   -3.8378   23.8098 C.3     1  UNL1        0.1483
     22 O           8.7508   -3.1128   23.8499 O.3     1  UNL1       -0.3786
     23 H           8.7267   -2.3660   23.2313 H       1  UNL1        0.2108
     24 C           7.6839   -4.2216   20.8446 C.3     1  UNL1        0.0306
     25 C           6.4687   -3.5534   21.4163 C.ar    1  UNL1       -0.0238
     26 C           6.3459   -3.3615   22.8988 C.ar    1  UNL1        0.0015
     27 C           5.1307   -2.6933   23.4705 C.ar    1  UNL1       -0.0020
     28 C           4.0383   -2.2170   22.5596 C.ar    1  UNL1        0.0060
     29 C           4.1611   -2.4089   21.0770 C.ar    1  UNL1        0.0748
     30 C           5.3763   -3.0771   20.5054 C.ar    1  UNL1        0.0233
     31 C           5.2194   -3.1274   19.0144 C.3     1  UNL1        0.2352
     32 O           3.9073   -2.4903   18.6646 O.3     1  UNL1       -0.4404
     33 C           3.2532   -2.0463   19.9394 C.2     1  UNL1        0.3413
     34 O           1.9245   -1.3601   20.0561 O.2     1  UNL1       -0.2449
@<TRIPOS>BOND
     1    24    25    1
     2    25    26   ar
     3    26    21    1
     4    21    22    1
     5    21    20    1
     6    20     1    1
     7     1     2    1
     8     2     3    1
     9     3     4    1
    10     4     5    1
    11     5     6    1
    12     4     7    1
    13     7     8    1
    14     8     9    1
    15     9    12    1
    16    12    13   ar
    17    13    14   ar
    18    14    15   ar
    19    15    16    2
    20    15    17   ar
    21    17    18    1
    22    17    19   ar
    23     9    10   am
    24    10    11    2
    25    26    27   ar
    26    27    28   ar
    27    28    29   ar
    28    29    30   ar
    29    30    31    1
    30    31    32    1
    31    32    33    1
    32    33    34    2
    33    30    25   ar
    34     6     1    1
    35    19    12   ar
    36    33    29    1
    37    10     4    1
    38    22    23    1
@<TRIPOS>MOLECULE
*****
 34 38 0 0 0
SMALL
GASTEIGER

@<TRIPOS>ATOM
      1 N          -1.2172    3.3268   20.8684 N.3     1  UNL1       -0.2703
      2 C          -0.4866    2.3698   21.7630 C.3     1  UNL1        0.0727
      3 C           0.5793    1.4790   21.1972 C.3     1  UNL1        0.0260
      4 C           0.9147    1.5453   19.7366 C.3     1  UNL1        0.0737
      5 C           0.1841    2.5022   18.8420 C.3     1  UNL1        0.0260
      6 C          -0.8818    3.3930   19.4079 C.3     1  UNL1        0.0727
      7 C           1.3566    1.4996   18.3039 C.3     1  UNL1        0.0306
      8 C           2.4410    0.4698   18.1859 C.3     1  UNL1        0.1001
      9 N           2.6692   -0.1209   19.5457 N.am    1  UNL1       -0.2425
     10 C           1.7259    0.5437   20.5041 C.2     1  UNL1        0.2296
     11 O           1.6135    0.2572   21.9721 O.2     1  UNL1       -0.2745
     12 C           3.6657   -1.1888   19.8871 C.ar    1  UNL1        0.1574
     13 C           4.7573   -0.9072   20.8766 C.ar    1  UNL1        0.0414
     14 C           5.7538   -1.9751   21.2180 C.ar    1  UNL1        0.0651
     15 C           5.6587   -3.3246   20.5700 C.ar    1  UNL1        0.2766
     16 O           6.6552   -4.3925   20.9115 O.2     1  UNL1       -0.2655
     17 N           4.5670   -3.6062   19.5806 N.ar    1  UNL1       -0.2134
     18 C           4.4718   -4.9557   18.9326 C.3     1  UNL1        0.1571
     19 N           3.5705   -2.5382   19.2392 N.ar    1  UNL1       -0.1513
     20 C          -2.2832    4.2176   21.4343 C.3     1  UNL1        0.1063
     21 C          -3.6101    3.6411   21.8303 C.3     1  UNL1        0.1483
     22 O          -4.1822    2.4828   21.0680 O.3     1  UNL1       -0.3786
     23 H          -5.0383    2.2350   21.4508 H       1  UNL1        0.2108
     24 C          -2.6009    3.2478   24.6280 C.3     1  UNL1        0.0306
     25 C          -3.8604    4.0262   24.3875 C.ar    1  UNL1       -0.0238
     26 C          -4.3650    4.2228   22.9887 C.ar    1  UNL1        0.0015
     27 C          -5.6245    5.0012   22.7482 C.ar    1  UNL1       -0.0020
     28 C          -6.3794    5.5829   23.9065 C.ar    1  UNL1        0.0060
     29 C          -5.8748    5.3863   25.3053 C.ar    1  UNL1        0.0748
     30 C          -4.6153    4.6079   25.5458 C.ar    1  UNL1        0.0233
     31 C          -4.3635    4.5789   27.0242 C.3     1  UNL1        0.2352
     32 O          -5.4674    5.3392   27.6975 O.3     1  UNL1       -0.4404
     33 C          -6.4014    5.8382   26.6351 C.2     1  UNL1        0.3413
     34 O          -7.6439    6.6472   26.8626 O.2     1  UNL1       -0.2449
@<TRIPOS>BOND
     1    24    25    1
     2    25    26   ar
     3    26    21    1
     4    21    22    1
     5    21    20    1
     6    20     1    1
     7     1     2    1
     8     2     3    1
     9     3     4    1
    10     4     5    1
    11     5     6    1
    12     4     7    1
    13     7     8    1
    14     8     9    1
    15     9    12    1
    16    12    13   ar
    17    13    14   ar
    18    14    15   ar
    19    15    16    2
    20    15    17   ar
    21    17    18    1
    22    17    19   ar
    23     9    10   am
    24    10    11    2
    25    26    27   ar
    26    27    28   ar
    27    28    29   ar
    28    29    30   ar
    29    30    31    1
    30    31    32    1
    31    32    33    1
    32    33    34    2
    33    30    25   ar
    34     6     1    1
    35    19    12   ar
    36    33    29    1
    37    10     4    1
    38    22    23    1
@<TRIPOS>MOLECULE
*****
 34 38 0 0 0
SMALL
GASTEIGER

@<TRIPOS>ATOM
      1 N           6.3436   -1.5321   20.3096 N.3     1  UNL1       -0.2703
      2 C           6.8814   -2.9204   20.4920 C.3     1  UNL1        0.0727
      3 C           6.9910   -3.5075   21.8679 C.3     1  UNL1        0.0260
      4 C           6.5626   -2.7063   23.0615 C.3     1  UNL1        0.0737
      5 C           6.0248   -1.3180   22.8791 C.3     1  UNL1        0.0260
      6 C           5.9152   -0.7309   21.5032 C.3     1  UNL1        0.0727
      7 C           6.1757   -2.0287   24.3426 C.3     1  UNL1        0.0306
      8 C           6.4523   -2.9778   25.4709 C.3     1  UNL1        0.1001
      9 N           7.0101   -4.2419   24.8870 N.am    1  UNL1       -0.2425
     10 C           7.0783   -4.0742   23.3980 C.2     1  UNL1        0.2296
     11 O           7.5750   -5.0949   22.4175 O.2     1  UNL1       -0.2745
     12 C           7.4266   -5.4599   25.6570 C.ar    1  UNL1        0.1574
     13 C           7.7428   -6.7341   24.9314 C.ar    1  UNL1        0.0414
     14 C           8.1593   -7.9521   25.7015 C.ar    1  UNL1        0.0651
     15 C           8.2597   -7.8960   27.1971 C.ar    1  UNL1        0.2766
     16 O           8.6762   -9.1140   27.9671 O.2     1  UNL1       -0.2655
     17 N           7.9435   -6.6217   27.9227 N.ar    1  UNL1       -0.2134
     18 C           8.0439   -6.5656   29.4183 C.3     1  UNL1        0.1571
     19 N           7.5270   -5.4037   27.1526 N.ar    1  UNL1       -0.1513
     20 C           6.2340   -0.9450   18.9336 C.3     1  UNL1        0.1063
     21 C           4.9390   -1.0323   18.1818 C.3     1  UNL1        0.1483
     22 O           4.7896   -2.0127   17.0565 O.3     1  UNL1       -0.3786
     23 H           3.8982   -1.9404   16.6808 H       1  UNL1        0.2108
     24 C           2.7546   -2.0600   19.9629 C.3     1  UNL1        0.0306
     25 C           2.7010   -0.6530   19.4459 C.ar    1  UNL1       -0.0238
     26 C           3.7932   -0.1391   18.5554 C.ar    1  UNL1        0.0015
     27 C           3.7396    1.2680   18.0384 C.ar    1  UNL1       -0.0020
     28 C           2.5939    2.1611   18.4119 C.ar    1  UNL1        0.0060
     29 C           1.5018    1.6473   19.3024 C.ar    1  UNL1        0.0748
     30 C           1.5553    0.2402   19.8195 C.ar    1  UNL1        0.0233
     31 C           0.3431    0.0137   20.6733 C.3     1  UNL1        0.2352
     32 O          -0.4597    1.2807   20.6841 O.3     1  UNL1       -0.4404
     33 C           0.2564    2.2903   19.8368 C.2     1  UNL1        0.3413
     34 O          -0.1938    3.6962   19.5706 O.2     1  UNL1       -0.2449
@<TRIPOS>BOND
     1    24    25    1
     2    25    26   ar
     3    26    21    1
     4    21    22    1
     5    21    20    1
     6    20     1    1
     7     1     2    1
     8     2     3    1
     9     3     4    1
    10     4     5    1
    11     5     6    1
    12     4     7    1
    13     7     8    1
    14     8     9    1
    15     9    12    1
    16    12    13   ar
    17    13    14   ar
    18    14    15   ar
    19    15    16    2
    20    15    17   ar
    21    17    18    1
    22    17    19   ar
    23     9    10   am
    24    10    11    2
    25    26    27   ar
    26    27    28   ar
    27    28    29   ar
    28    29    30   ar
    29    30    31    1
    30    31    32    1
    31    32    33    1
    32    33    34    2
    33    30    25   ar
    34     6     1    1
    35    19    12   ar
    36    33    29    1
    37    10     4    1
    38    22    23    1
@<TRIPOS>MOLECULE
*****
 34 38 0 0 0
SMALL
GASTEIGER

@<TRIPOS>ATOM
      1 N          -0.9383    3.1331   21.2029 N.3     1  UNL1       -0.2703
      2 C          -0.1342    2.1880   22.0456 C.3     1  UNL1        0.0727
      3 C           0.8535    1.2622   21.3996 C.3     1  UNL1        0.0260
      4 C           1.0369    1.2814   19.9109 C.3     1  UNL1        0.0737
      5 C           0.2328    2.2265   19.0683 C.3     1  UNL1        0.0260
      6 C          -0.7549    3.1523   19.7143 C.3     1  UNL1        0.0727
      7 C           1.3275    1.1877   18.4423 C.3     1  UNL1        0.0306
      8 C           2.3777    0.1350   18.2438 C.3     1  UNL1        0.1001
      9 N           2.7361   -0.4217   19.5898 N.am    1  UNL1       -0.2425
     10 C           1.9075    0.2867   20.6201 C.2     1  UNL1        0.2296
     11 O           1.9431    0.0434   22.0998 O.2     1  UNL1       -0.2745
     12 C           3.7457   -1.4980   19.8583 C.ar    1  UNL1        0.1574
     13 C           3.4215   -2.9272   19.5386 C.ar    1  UNL1        0.0414
     14 C           4.4312   -4.0035   19.8071 C.ar    1  UNL1        0.0651
     15 C           5.7652   -3.6506   20.3954 C.ar    1  UNL1        0.2766
     16 O           6.7749   -4.7269   20.6639 O.2     1  UNL1       -0.2655
     17 N           6.0894   -2.2213   20.7152 N.ar    1  UNL1       -0.2134
     18 C           7.4233   -1.8684   21.3035 C.3     1  UNL1        0.1571
     19 N           5.0796   -1.1451   20.4466 N.ar    1  UNL1       -0.1513
     20 C          -1.9261    4.0590   21.8489 C.3     1  UNL1        0.1063
     21 C          -3.3301    3.5975   22.1051 C.3     1  UNL1        0.1483
     22 O          -3.9757    2.6097   21.1791 O.3     1  UNL1       -0.3786
     23 H          -4.8761    2.4196   21.4858 H       1  UNL1        0.2108
     24 C          -5.5330    5.5945   21.7058 C.3     1  UNL1        0.0306
     25 C          -5.1901    5.1223   23.0876 C.ar    1  UNL1       -0.0238
     26 C          -4.0887    4.1239   23.2873 C.ar    1  UNL1        0.0015
     27 C          -3.7458    3.6518   24.6692 C.ar    1  UNL1       -0.0020
     28 C          -4.5043    4.1781   25.8513 C.ar    1  UNL1        0.0060
     29 C          -5.6057    5.1765   25.6517 C.ar    1  UNL1        0.0748
     30 C          -5.9486    5.6487   24.2698 C.ar    1  UNL1        0.0233
     31 C          -7.0759    6.6318   24.3823 C.3     1  UNL1        0.2352
     32 O          -7.4297    6.7674   25.8337 O.3     1  UNL1       -0.4404
     33 C          -6.5211    5.8679   26.6181 C.2     1  UNL1        0.3413
     34 O          -6.5268    5.6909   28.1077 O.2     1  UNL1       -0.2449
@<TRIPOS>BOND
     1    24    25    1
     2    25    26   ar
     3    26    21    1
     4    21    22    1
     5    21    20    1
     6    20     1    1
     7     1     2    1
     8     2     3    1
     9     3     4    1
    10     4     5    1
    11     5     6    1
    12     4     7    1
    13     7     8    1
    14     8     9    1
    15     9    12    1
    16    12    13   ar
    17    13    14   ar
    18    14    15   ar
    19    15    16    2
    20    15    17   ar
    21    17    18    1
    22    17    19   ar
    23     9    10   am
    24    10    11    2
    25    26    27   ar
    26    27    28   ar
    27    28    29   ar
    28    29    30   ar
    29    30    31    1
    30    31    32    1
    31    32    33    1
    32    33    34    2
    33    30    25   ar
    34     6     1    1
    35    19    12   ar
    36    33    29    1
    37    10     4    1
    38    22    23    1
@<TRIPOS>MOLECULE
*****
 34 38 0 0 0
SMALL
GASTEIGER

@<TRIPOS>ATOM
      1 N           3.5348   -1.2371   18.5704 N.3     1  UNL1       -0.2703
      2 C           2.4433   -1.3951   19.5870 C.3     1  UNL1        0.0727
      3 C           1.5469   -0.2369   19.9111 C.3     1  UNL1        0.0260
      4 C           1.7421    1.0793   19.2187 C.3     1  UNL1        0.0737
      5 C           2.8337    1.2373   18.2021 C.3     1  UNL1        0.0260
      6 C           3.7300    0.0791   17.8779 C.3     1  UNL1        0.0727
      7 C           1.8163    2.4487   18.6110 C.3     1  UNL1        0.0306
      8 C           0.7342    3.2873   19.2242 C.3     1  UNL1        0.1001
      9 N          -0.0087    2.4361   20.2110 N.am    1  UNL1       -0.2425
     10 C           0.6142    1.0715   20.2076 C.2     1  UNL1        0.2296
     11 O           0.1847   -0.0959   21.0458 O.2     1  UNL1       -0.2745
     12 C          -1.1705    2.8727   21.0532 C.ar    1  UNL1        0.1574
     13 C          -0.9491    3.2950   22.4754 C.ar    1  UNL1        0.0414
     14 C          -2.1110    3.7317   23.3176 C.ar    1  UNL1        0.0651
     15 C          -3.4943    3.7462   22.7377 C.ar    1  UNL1        0.2766
     16 O          -4.6561    4.1829   23.5800 O.2     1  UNL1       -0.2655
     17 N          -3.7157    3.3239   21.3154 N.ar    1  UNL1       -0.2134
     18 C          -5.0990    3.3383   20.7355 C.3     1  UNL1        0.1571
     19 N          -2.5538    2.8872   20.4733 N.ar    1  UNL1       -0.1513
     20 C           4.4312   -2.3953   18.2461 C.3     1  UNL1        0.1063
     21 C           5.8987   -2.3149   18.5461 C.3     1  UNL1        0.1483
     22 O           6.8787   -2.0721   17.4368 O.3     1  UNL1       -0.3786
     23 H           7.7781   -2.0486   17.7993 H       1  UNL1        0.2108
     24 C           6.4311    0.1051   20.2373 C.3     1  UNL1        0.0306
     25 C           6.6524   -1.2672   20.8010 C.ar    1  UNL1       -0.0238
     26 C           6.3862   -2.4772   19.9554 C.ar    1  UNL1        0.0015
     27 C           6.6075   -3.8495   20.5190 C.ar    1  UNL1       -0.0020
     28 C           7.0950   -4.0119   21.9282 C.ar    1  UNL1        0.0060
     29 C           7.3611   -2.8019   22.7738 C.ar    1  UNL1        0.0748
     30 C           7.1398   -1.4296   22.2102 C.ar    1  UNL1        0.0233
     31 C           7.4853   -0.4303   23.2742 C.3     1  UNL1        0.2352
     32 O           7.9201   -1.1850   24.4954 O.3     1  UNL1       -0.4404
     33 C           7.8434   -2.6507   24.1861 C.2     1  UNL1        0.3413
     34 O           8.1883   -3.7690   25.1245 O.2     1  UNL1       -0.2449
@<TRIPOS>BOND
     1    24    25    1
     2    25    26   ar
     3    26    21    1
     4    21    22    1
     5    21    20    1
     6    20     1    1
     7     1     2    1
     8     2     3    1
     9     3     4    1
    10     4     5    1
    11     5     6    1
    12     4     7    1
    13     7     8    1
    14     8     9    1
    15     9    12    1
    16    12    13   ar
    17    13    14   ar
    18    14    15   ar
    19    15    16    2
    20    15    17   ar
    21    17    18    1
    22    17    19   ar
    23     9    10   am
    24    10    11    2
    25    26    27   ar
    26    27    28   ar
    27    28    29   ar
    28    29    30   ar
    29    30    31    1
    30    31    32    1
    31    32    33    1
    32    33    34    2
    33    30    25   ar
    34     6     1    1
    35    19    12   ar
    36    33    29    1
    37    10     4    1
    38    22    23    1
