@<TRIPOS>MOLECULE
*****
 33 36 0 0 0
SMALL
GASTEIGER

@<TRIPOS>ATOM
      1 C           6.8705   -4.6733   31.1095 C.2     1  UNL1        0.2494
      2 O           6.7921   -6.0175   31.7706 O.2     1  UNL1       -0.2699
      3 N           6.8785   -4.5729   29.6129 N.am    1  UNL1       -0.2660
      4 C           6.9570   -3.2287   28.9518 C.3     1  UNL1        0.1160
      5 C           6.9650   -3.1284   27.4552 C.3     1  UNL1        0.1197
      6 N           6.8944   -4.3721   26.6197 N.am    1  UNL1       -0.2555
      7 C           6.8160   -5.7163   27.2807 C.2     1  UNL1        0.2497
      8 O           6.7454   -6.9600   26.4452 O.2     1  UNL1       -0.2727
      9 C           6.8080   -5.8167   28.7774 C.3     1  UNL1        0.1799
     10 C           7.0821   -0.9421   33.6161 C.ar    1  UNL1        0.0685
     11 C           5.7493   -1.5180   33.2394 C.ar    1  UNL1        0.0104
     12 C           5.6788   -2.7617   32.4039 C.ar    1  UNL1        0.0052
     13 C           6.9411   -3.4296   31.9450 C.ar    1  UNL1        0.0536
     14 C           8.2739   -2.8537   32.3217 C.ar    1  UNL1        0.0052
     15 C           8.3444   -1.6099   33.1572 C.ar    1  UNL1        0.0104
     16 N           7.2232    1.5454   35.2871 N.1     1  UNL1       -0.1908
     17 C           7.1527    0.3017   34.4516 C.1     1  UNL1        0.1004
     18 C           6.9024   -4.2717   25.1230 C.ar    1  UNL1        0.0541
     19 C           8.0013   -4.9193   24.3337 C.ar    1  UNL1        0.0180
     20 C           8.0092   -4.8188   22.8371 C.ar    1  UNL1        0.0382
     21 C           6.9183   -4.0707   22.1299 C.ar    1  UNL1        0.1386
     22 C           5.8194   -3.4231   22.9192 C.ar    1  UNL1        0.0382
     23 C           5.8115   -3.5235   24.4157 C.ar    1  UNL1        0.0180
     24 O           6.9262   -3.9703   20.6332 O.3     1  UNL1       -0.4754
     25 C           7.4386   -2.7275   19.9676 C.3     1  UNL1        0.2068
     26 C           6.9397   -2.3462   18.6054 C.3     1  UNL1        0.0646
     27 C           5.5593   -2.7443   18.1736 C.3     1  UNL1        0.0759
     28 N           4.3877   -1.8688   18.5064 N.3     1  UNL1       -0.2726
     29 C           3.5778   -2.1365   19.7403 C.3     1  UNL1        0.0721
     30 C           2.4062   -1.2610   20.0730 C.3     1  UNL1        0.0174
     31 C           2.0444   -0.1178   19.1719 C.3     1  UNL1        0.0029
     32 C           2.8541    0.1499   17.9380 C.3     1  UNL1        0.0174
     33 C           4.0259   -0.7256   17.6052 C.3     1  UNL1        0.0721
@<TRIPOS>BOND
     1    16    17    3
     2    17    10    1
     3    10    11   ar
     4    11    12   ar
     5    12    13   ar
     6    13     1    1
     7     1     2    2
     8     1     3   am
     9     3     4    1
    10     4     5    1
    11     5     6    1
    12     6    18    1
    13    18    19   ar
    14    19    20   ar
    15    20    21   ar
    16    21    24    1
    17    24    25    1
    18    25    26    1
    19    26    27    1
    20    27    28    1
    21    28    29    1
    22    29    30    1
    23    30    31    1
    24    31    32    1
    25    32    33    1
    26    21    22   ar
    27    22    23   ar
    28     6     7   am
    29     7     8    2
    30     7     9    1
    31    13    14   ar
    32    14    15   ar
    33    15    10   ar
    34     9     3    1
    35    23    18   ar
    36    33    28    1
@<TRIPOS>MOLECULE
*****
 33 36 0 0 0
SMALL
GASTEIGER

@<TRIPOS>ATOM
      1 C          -0.5674    2.6554   21.2462 C.2     1  UNL1        0.2494
      2 O          -1.6605    3.5099   20.6762 O.2     1  UNL1       -0.2699
      3 N          -0.4257    2.5115   22.7325 N.am    1  UNL1       -0.2660
      4 C           0.6675    1.6570   23.3025 C.3     1  UNL1        0.1160
      5 C           0.8092    1.5131   24.7888 C.3     1  UNL1        0.1197
      6 N          -0.1422    2.2238   25.7052 N.am    1  UNL1       -0.2555
      7 C          -1.2353    3.0783   25.1353 C.2     1  UNL1        0.2497
      8 O          -2.1867    3.7890   26.0517 O.2     1  UNL1       -0.2727
      9 C          -1.3771    3.2222   23.6489 C.3     1  UNL1        0.1799
     10 C           2.2868    0.5233   18.4970 C.ar    1  UNL1        0.0685
     11 C           2.3130    2.0201   18.5911 C.ar    1  UNL1        0.0104
     12 C           1.3616    2.7308   19.5075 C.ar    1  UNL1        0.0052
     13 C           0.3840    1.9447   20.3298 C.ar    1  UNL1        0.0536
     14 C           0.3578    0.4479   20.2357 C.ar    1  UNL1        0.0052
     15 C           1.3092   -0.2628   19.3193 C.ar    1  UNL1        0.0104
     16 N           4.1896   -0.8980   16.6642 N.1     1  UNL1       -0.1908
     17 C           3.2382   -0.1873   17.5806 C.1     1  UNL1        0.1004
     18 C          -0.0005    2.0799   27.1916 C.ar    1  UNL1        0.0541
     19 C          -0.5407    0.8630   27.8822 C.ar    1  UNL1        0.0180
     20 C          -0.3989    0.7191   29.3685 C.ar    1  UNL1        0.0382
     21 C           0.2831    1.7923   30.1642 C.ar    1  UNL1        0.1386
     22 C           0.8233    3.0093   29.4736 C.ar    1  UNL1        0.0382
     23 C           0.6816    3.1531   27.9873 C.ar    1  UNL1        0.0180
     24 O           0.4249    1.6484   31.6506 O.3     1  UNL1       -0.4754
     25 C           1.7172    2.0123   32.3195 C.3     1  UNL1        0.2068
     26 C           2.7886    0.9772   32.4942 C.3     1  UNL1        0.0646
     27 C           3.9606    0.9454   31.5584 C.3     1  UNL1        0.0759
     28 N           3.7434    0.7157   30.0921 N.3     1  UNL1       -0.2726
     29 C           3.0946   -0.5515   29.6194 C.3     1  UNL1        0.0721
     30 C           2.8775   -0.7811   28.1531 C.3     1  UNL1        0.0174
     31 C           3.3092    0.2563   27.1595 C.3     1  UNL1        0.0029
     32 C           3.9579    1.5234   27.6321 C.3     1  UNL1        0.0174
     33 C           4.1751    1.7532   29.0984 C.3     1  UNL1        0.0721
@<TRIPOS>BOND
     1    16    17    3
     2    17    10    1
     3    10    11   ar
     4    11    12   ar
     5    12    13   ar
     6    13     1    1
     7     1     2    2
     8     1     3   am
     9     3     4    1
    10     4     5    1
    11     5     6    1
    12     6    18    1
    13    18    19   ar
    14    19    20   ar
    15    20    21   ar
    16    21    24    1
    17    24    25    1
    18    25    26    1
    19    26    27    1
    20    27    28    1
    21    28    29    1
    22    29    30    1
    23    30    31    1
    24    31    32    1
    25    32    33    1
    26    21    22   ar
    27    22    23   ar
    28     6     7   am
    29     7     8    2
    30     7     9    1
    31    13    14   ar
    32    14    15   ar
    33    15    10   ar
    34     9     3    1
    35    23    18   ar
    36    33    28    1
@<TRIPOS>MOLECULE
*****
 33 36 0 0 0
SMALL
GASTEIGER

@<TRIPOS>ATOM
      1 C          -0.6541    2.5518   25.1397 C.2     1  UNL1        0.2494
      2 O          -1.8940    3.3182   24.7859 O.2     1  UNL1       -0.2699
      3 N           0.1925    1.9531   24.0558 N.am    1  UNL1       -0.2660
      4 C           1.4325    1.1867   24.4097 C.3     1  UNL1        0.1160
      5 C           2.2791    0.5880   23.3258 C.3     1  UNL1        0.1197
      6 N           1.8858    0.7558   21.8880 N.am    1  UNL1       -0.2555
      7 C           0.6459    1.5222   21.5341 C.2     1  UNL1        0.2497
      8 O           0.2526    1.6900   20.0964 O.2     1  UNL1       -0.2727
      9 C          -0.2008    2.1209   22.6181 C.3     1  UNL1        0.1799
     10 C           0.5258    2.0485   29.4530 C.ar    1  UNL1        0.0685
     11 C          -0.2759    0.9833   28.7656 C.ar    1  UNL1        0.0104
     12 C          -0.6692    1.1510   27.3278 C.ar    1  UNL1        0.0052
     13 C          -0.2608    2.3840   26.5775 C.ar    1  UNL1        0.0536
     14 C           0.5409    3.4492   27.2650 C.ar    1  UNL1        0.0052
     15 C           0.9342    3.2814   28.7027 C.ar    1  UNL1        0.0104
     16 N           1.3124    1.7129   32.3286 N.1     1  UNL1       -0.1908
     17 C           0.9191    1.8807   30.8908 C.1     1  UNL1        0.1004
     18 C           2.7324    0.1571   20.8041 C.ar    1  UNL1        0.0541
     19 C           3.7372    1.0054   20.0824 C.ar    1  UNL1        0.0180
     20 C           4.5838    0.4067   18.9986 C.ar    1  UNL1        0.0382
     21 C           4.4256   -1.0403   18.6364 C.ar    1  UNL1        0.1386
     22 C           3.4209   -1.8886   19.3581 C.ar    1  UNL1        0.0382
     23 C           2.5743   -1.2899   20.4419 C.ar    1  UNL1        0.0180
     24 O           5.2723   -1.6390   17.5525 O.3     1  UNL1       -0.4754
     25 C           6.5272   -2.3813   17.9048 C.3     1  UNL1        0.2068
     26 C           7.4639   -1.8242   18.9354 C.3     1  UNL1        0.0646
     27 C           7.6634   -2.5454   20.2355 C.3     1  UNL1        0.0759
     28 N           6.6184   -2.4604   21.3083 N.3     1  UNL1       -0.2726
     29 C           5.7712   -3.6567   21.6264 C.3     1  UNL1        0.0721
     30 C           4.7262   -3.5718   22.6992 C.3     1  UNL1        0.0174
     31 C           4.5285   -2.2907   23.4539 C.3     1  UNL1        0.0029
     32 C           5.3758   -1.0944   23.1358 C.3     1  UNL1        0.0174
     33 C           6.4208   -1.1793   22.0630 C.3     1  UNL1        0.0721
@<TRIPOS>BOND
     1    16    17    3
     2    17    10    1
     3    10    11   ar
     4    11    12   ar
     5    12    13   ar
     6    13     1    1
     7     1     2    2
     8     1     3   am
     9     3     4    1
    10     4     5    1
    11     5     6    1
    12     6    18    1
    13    18    19   ar
    14    19    20   ar
    15    20    21   ar
    16    21    24    1
    17    24    25    1
    18    25    26    1
    19    26    27    1
    20    27    28    1
    21    28    29    1
    22    29    30    1
    23    30    31    1
    24    31    32    1
    25    32    33    1
    26    21    22   ar
    27    22    23   ar
    28     6     7   am
    29     7     8    2
    30     7     9    1
    31    13    14   ar
    32    14    15   ar
    33    15    10   ar
    34     9     3    1
    35    23    18   ar
    36    33    28    1
@<TRIPOS>MOLECULE
*****
 33 36 0 0 0
SMALL
GASTEIGER

@<TRIPOS>ATOM
      1 C          -1.0582    2.9074   25.3390 C.2     1  UNL1        0.2494
      2 O          -2.3731    3.5999   25.1350 O.2     1  UNL1       -0.2699
      3 N          -0.2489    2.4704   24.1541 N.am    1  UNL1       -0.2660
      4 C           1.0660    1.7779   24.3581 C.3     1  UNL1        0.1160
      5 C           1.8753    1.3410   23.1732 C.3     1  UNL1        0.1197
      6 N           1.3697    1.5965   21.7842 N.am    1  UNL1       -0.2555
      7 C           0.0549    2.2890   21.5802 C.2     1  UNL1        0.2497
      8 O          -0.4506    2.5445   20.1913 O.2     1  UNL1       -0.2727
      9 C          -0.7545    2.7259   22.7651 C.3     1  UNL1        0.1799
     10 C           0.4583    2.1409   29.5058 C.ar    1  UNL1        0.0685
     11 C           0.7462    3.4496   28.8318 C.ar    1  UNL1        0.0104
     12 C           0.2407    3.7051   27.4429 C.ar    1  UNL1        0.0052
     13 C          -0.5527    2.6519   26.7279 C.ar    1  UNL1        0.0536
     14 C          -0.8406    1.3432   27.4019 C.ar    1  UNL1        0.0052
     15 C          -0.3351    1.0877   28.7909 C.ar    1  UNL1        0.0104
     16 N           1.4694    1.6298   32.2837 N.1     1  UNL1       -0.1908
     17 C           0.9639    1.8853   30.8948 C.1     1  UNL1        0.1004
     18 C           2.1791    1.1595   20.5993 C.ar    1  UNL1        0.0541
     19 C           2.2346   -0.2914   20.2228 C.ar    1  UNL1        0.0180
     20 C           3.0439   -0.7283   19.0379 C.ar    1  UNL1        0.0382
     21 C           3.7978    0.2856   18.2295 C.ar    1  UNL1        0.1386
     22 C           3.7423    1.7365   18.6059 C.ar    1  UNL1        0.0382
     23 C           2.9329    2.1735   19.7908 C.ar    1  UNL1        0.0180
     24 O           4.6072   -0.1514   17.0446 O.3     1  UNL1       -0.4754
     25 C           6.0987    0.0067   17.0557 C.3     1  UNL1        0.2068
     26 C           6.8683   -0.2276   18.3217 C.3     1  UNL1        0.0646
     27 C           7.2209   -1.6251   18.7374 C.3     1  UNL1        0.0759
     28 N           6.1577   -2.5407   19.2675 N.3     1  UNL1       -0.2726
     29 C           5.3772   -3.4086   18.3253 C.3     1  UNL1        0.0721
     30 C           4.3140   -4.3242   18.8554 C.3     1  UNL1        0.0174
     31 C           4.0311   -4.3720   20.3278 C.3     1  UNL1        0.0029
     32 C           4.8116   -3.5042   21.2700 C.3     1  UNL1        0.0174
     33 C           5.8749   -2.5885   20.7398 C.3     1  UNL1        0.0721
@<TRIPOS>BOND
     1    16    17    3
     2    17    10    1
     3    10    11   ar
     4    11    12   ar
     5    12    13   ar
     6    13     1    1
     7     1     2    2
     8     1     3   am
     9     3     4    1
    10     4     5    1
    11     5     6    1
    12     6    18    1
    13    18    19   ar
    14    19    20   ar
    15    20    21   ar
    16    21    24    1
    17    24    25    1
    18    25    26    1
    19    26    27    1
    20    27    28    1
    21    28    29    1
    22    29    30    1
    23    30    31    1
    24    31    32    1
    25    32    33    1
    26    21    22   ar
    27    22    23   ar
    28     6     7   am
    29     7     8    2
    30     7     9    1
    31    13    14   ar
    32    14    15   ar
    33    15    10   ar
    34     9     3    1
    35    23    18   ar
    36    33    28    1
@<TRIPOS>MOLECULE
*****
 33 36 0 0 0
SMALL
GASTEIGER

@<TRIPOS>ATOM
      1 C          -0.3971    2.6175   21.2899 C.2     1  UNL1        0.2494
      2 O          -1.4693    3.4950   20.7152 O.2     1  UNL1       -0.2699
      3 N          -0.2654    2.4703   22.7768 N.am    1  UNL1       -0.2660
      4 C           0.8068    1.5927   23.3516 C.3     1  UNL1        0.1160
      5 C           0.9386    1.4456   24.8385 C.3     1  UNL1        0.1197
      6 N          -0.0018    2.1761   25.7507 N.am    1  UNL1       -0.2555
      7 C          -1.0739    3.0537   25.1760 C.2     1  UNL1        0.2497
      8 O          -2.0143    3.7841   26.0883 O.2     1  UNL1       -0.2727
      9 C          -1.2057    3.2008   23.6891 C.3     1  UNL1        0.1799
     10 C           2.4239    0.4261   18.5533 C.ar    1  UNL1        0.0685
     11 C           1.3379   -0.3231   19.2668 C.ar    1  UNL1        0.0104
     12 C           0.3975    0.4074   20.1790 C.ar    1  UNL1        0.0052
     13 C           0.5432    1.8870   20.3777 C.ar    1  UNL1        0.0536
     14 C           1.6293    2.6361   19.6642 C.ar    1  UNL1        0.0052
     15 C           2.5697    1.9057   18.7520 C.ar    1  UNL1        0.0104
     16 N           4.3047   -1.0349   16.7288 N.1     1  UNL1       -0.1908
     17 C           3.3643   -0.3044   17.6411 C.1     1  UNL1        0.1004
     18 C           0.1301    2.0289   27.2377 C.ar    1  UNL1        0.0541
     19 C          -0.4659    0.8389   27.9294 C.ar    1  UNL1        0.0180
     20 C          -0.3341    0.6918   29.4163 C.ar    1  UNL1        0.0382
     21 C           0.3938    1.7347   30.2115 C.ar    1  UNL1        0.1386
     22 C           0.9898    2.9248   29.5199 C.ar    1  UNL1        0.0382
     23 C           0.8579    3.0719   28.0330 C.ar    1  UNL1        0.0180
     24 O           0.5256    1.5876   31.6985 O.3     1  UNL1       -0.4754
     25 C           1.8262    1.9115   32.3718 C.3     1  UNL1        0.2068
     26 C           2.8958    0.8655   32.4795 C.3     1  UNL1        0.0646
     27 C           2.9989   -0.2116   31.4406 C.3     1  UNL1        0.0759
     28 N           4.1758   -1.1417   31.4387 N.3     1  UNL1       -0.2726
     29 C           5.0950   -1.1858   30.2541 C.3     1  UNL1        0.0721
     30 C           6.2718   -2.1158   30.2522 C.3     1  UNL1        0.0174
     31 C           6.5295   -3.0018   31.4348 C.3     1  UNL1        0.0029
     32 C           5.6104   -2.9577   32.6194 C.3     1  UNL1        0.0174
     33 C           4.4335   -2.0276   32.6213 C.3     1  UNL1        0.0721
@<TRIPOS>BOND
     1    16    17    3
     2    17    10    1
     3    10    11   ar
     4    11    12   ar
     5    12    13   ar
     6    13     1    1
     7     1     2    2
     8     1     3   am
     9     3     4    1
    10     4     5    1
    11     5     6    1
    12     6    18    1
    13    18    19   ar
    14    19    20   ar
    15    20    21   ar
    16    21    24    1
    17    24    25    1
    18    25    26    1
    19    26    27    1
    20    27    28    1
    21    28    29    1
    22    29    30    1
    23    30    31    1
    24    31    32    1
    25    32    33    1
    26    21    22   ar
    27    22    23   ar
    28     6     7   am
    29     7     8    2
    30     7     9    1
    31    13    14   ar
    32    14    15   ar
    33    15    10   ar
    34     9     3    1
    35    23    18   ar
    36    33    28    1
@<TRIPOS>MOLECULE
*****
 33 36 0 0 0
SMALL
GASTEIGER

@<TRIPOS>ATOM
      1 C           7.2194   -4.8498   30.0858 C.2     1  UNL1        0.2494
      2 O           7.6512   -5.8626   31.1045 O.2     1  UNL1       -0.2699
      3 N           6.5520   -3.5807   30.5262 N.am    1  UNL1       -0.2660
      4 C           6.1201   -2.5678   29.5076 C.3     1  UNL1        0.1160
      5 C           5.4527   -1.2987   29.9480 C.3     1  UNL1        0.1197
      6 N           5.2171   -1.0425   31.4070 N.am    1  UNL1       -0.2555
      7 C           5.6489   -2.0553   32.4257 C.2     1  UNL1        0.2497
      8 O           5.4133   -1.7991   33.8847 O.2     1  UNL1       -0.2727
      9 C           6.3164   -3.3245   31.9853 C.3     1  UNL1        0.1799
     10 C           7.9262   -5.6185   25.7087 C.ar    1  UNL1        0.0685
     11 C           6.6333   -6.0361   26.3443 C.ar    1  UNL1        0.0104
     12 C           6.3977   -5.7799   27.8034 C.ar    1  UNL1        0.0052
     13 C           7.4550   -5.1060   28.6268 C.ar    1  UNL1        0.0536
     14 C           8.7478   -4.6884   27.9912 C.ar    1  UNL1        0.0052
     15 C           8.9834   -4.9447   26.5321 C.ar    1  UNL1        0.0104
     16 N           8.3974   -6.1310   22.7906 N.1     1  UNL1       -0.1908
     17 C           8.1618   -5.8747   24.2496 C.1     1  UNL1        0.1004
     18 C           4.5497    0.2267   31.8474 C.ar    1  UNL1        0.0541
     19 C           3.0698    0.2503   32.0910 C.ar    1  UNL1        0.0180
     20 C           2.4025    1.5194   32.5314 C.ar    1  UNL1        0.0382
     21 C           3.2150    2.7649   32.7281 C.ar    1  UNL1        0.1386
     22 C           4.6948    2.7412   32.4845 C.ar    1  UNL1        0.0382
     23 C           5.3622    1.4721   32.0442 C.ar    1  UNL1        0.0180
     24 O           2.5475    4.0340   33.1685 O.3     1  UNL1       -0.4754
     25 C           1.6717    4.0373   34.3862 C.3     1  UNL1        0.2068
     26 C           2.2296    4.4690   35.7100 C.3     1  UNL1        0.0646
     27 C           1.3997    4.3370   36.9526 C.3     1  UNL1        0.0759
     28 N           1.4778    3.0864   37.7772 N.3     1  UNL1       -0.2726
     29 C           0.4624    2.8319   38.8517 C.3     1  UNL1        0.0721
     30 C           0.5404    1.5813   39.6762 C.3     1  UNL1        0.0174
     31 C           1.6338    0.5853   39.4265 C.3     1  UNL1        0.0029
     32 C           2.6491    0.8397   38.3521 C.3     1  UNL1        0.0174
     33 C           2.5711    2.0903   37.5275 C.3     1  UNL1        0.0721
@<TRIPOS>BOND
     1    16    17    3
     2    17    10    1
     3    10    11   ar
     4    11    12   ar
     5    12    13   ar
     6    13     1    1
     7     1     2    2
     8     1     3   am
     9     3     4    1
    10     4     5    1
    11     5     6    1
    12     6    18    1
    13    18    19   ar
    14    19    20   ar
    15    20    21   ar
    16    21    24    1
    17    24    25    1
    18    25    26    1
    19    26    27    1
    20    27    28    1
    21    28    29    1
    22    29    30    1
    23    30    31    1
    24    31    32    1
    25    32    33    1
    26    21    22   ar
    27    22    23   ar
    28     6     7   am
    29     7     8    2
    30     7     9    1
    31    13    14   ar
    32    14    15   ar
    33    15    10   ar
    34     9     3    1
    35    23    18   ar
    36    33    28    1
@<TRIPOS>MOLECULE
*****
 33 36 0 0 0
SMALL
GASTEIGER

@<TRIPOS>ATOM
      1 C           1.0917    0.9353   21.9832 C.2     1  UNL1        0.2494
      2 O          -0.1966    1.4613   21.4234 O.2     1  UNL1       -0.2699
      3 N           1.3127    0.9168   23.4667 N.am    1  UNL1       -0.2660
      4 C           2.6010    0.3907   24.0266 C.3     1  UNL1        0.1160
      5 C           2.8220    0.3722   25.5101 C.3     1  UNL1        0.1197
      6 N           1.7546    0.8796   26.4337 N.am    1  UNL1       -0.2555
      7 C           0.4662    1.4056   25.8739 C.2     1  UNL1        0.2497
      8 O          -0.6012    1.9130   26.7976 O.2     1  UNL1       -0.2727
      9 C           0.2452    1.4242   24.3903 C.3     1  UNL1        0.1799
     10 C           4.2940   -0.5869   19.2122 C.ar    1  UNL1        0.0685
     11 C           4.3304    0.8338   19.6918 C.ar    1  UNL1        0.0104
     12 C           3.2630    1.3412   20.6155 C.ar    1  UNL1        0.0052
     13 C           2.1591    0.4279   21.0595 C.ar    1  UNL1        0.0536
     14 C           2.1227   -0.9928   20.5799 C.ar    1  UNL1        0.0052
     15 C           3.1901   -1.5003   19.6563 C.ar    1  UNL1        0.0104
     16 N           6.4288   -1.6018   17.3649 N.1     1  UNL1       -0.1908
     17 C           5.3614   -1.0944   18.2886 C.1     1  UNL1        0.1004
     18 C           1.9755    0.8610   27.9173 C.ar    1  UNL1        0.0541
     19 C           2.2270    2.1430   28.6542 C.ar    1  UNL1        0.0180
     20 C           2.4480    2.1244   30.1377 C.ar    1  UNL1        0.0382
     21 C           2.4175    0.8237   30.8843 C.ar    1  UNL1        0.1386
     22 C           2.1659   -0.4583   30.1473 C.ar    1  UNL1        0.0382
     23 C           1.9450   -0.4397   28.6639 C.ar    1  UNL1        0.0180
     24 O           2.6384    0.8051   32.3679 O.3     1  UNL1       -0.4754
     25 C           4.0236    0.9608   32.9218 C.3     1  UNL1        0.2068
     26 C           4.7602   -0.2356   33.4469 C.3     1  UNL1        0.0646
     27 C           4.4411   -1.6035   32.9203 C.3     1  UNL1        0.0759
     28 N           5.3961   -2.2904   31.9896 N.3     1  UNL1       -0.2726
     29 C           6.1340   -3.5155   32.4422 C.3     1  UNL1        0.0721
     30 C           7.0890   -4.2024   31.5115 C.3     1  UNL1        0.0174
     31 C           7.3059   -3.6643   30.1282 C.3     1  UNL1        0.0029
     32 C           6.5680   -2.4393   29.6756 C.3     1  UNL1        0.0174
     33 C           5.6130   -1.7523   30.6064 C.3     1  UNL1        0.0721
@<TRIPOS>BOND
     1    16    17    3
     2    17    10    1
     3    10    11   ar
     4    11    12   ar
     5    12    13   ar
     6    13     1    1
     7     1     2    2
     8     1     3   am
     9     3     4    1
    10     4     5    1
    11     5     6    1
    12     6    18    1
    13    18    19   ar
    14    19    20   ar
    15    20    21   ar
    16    21    24    1
    17    24    25    1
    18    25    26    1
    19    26    27    1
    20    27    28    1
    21    28    29    1
    22    29    30    1
    23    30    31    1
    24    31    32    1
    25    32    33    1
    26    21    22   ar
    27    22    23   ar
    28     6     7   am
    29     7     8    2
    30     7     9    1
    31    13    14   ar
    32    14    15   ar
    33    15    10   ar
    34     9     3    1
    35    23    18   ar
    36    33    28    1
@<TRIPOS>MOLECULE
*****
 33 36 0 0 0
SMALL
GASTEIGER

@<TRIPOS>ATOM
      1 C          -1.1542    3.9429   19.1481 C.2     1  UNL1        0.2494
      2 O          -0.7507    4.9473   18.1097 O.2     1  UNL1       -0.2699
      3 N          -0.2482    2.7915   19.4697 N.am    1  UNL1       -0.2660
      4 C          -0.6516    1.7870   20.5081 C.3     1  UNL1        0.1160
      5 C           0.2544    0.6356   20.8297 C.3     1  UNL1        0.1197
      6 N           1.5638    0.4887   20.1129 N.am    1  UNL1       -0.2555
      7 C           1.9673    1.4931   19.0745 C.2     1  UNL1        0.2497
      8 O           3.2767    1.3462   18.3577 O.2     1  UNL1       -0.2727
      9 C           1.0612    2.6446   18.7529 C.3     1  UNL1        0.1799
     10 C          -5.0824    4.3838   21.2986 C.ar    1  UNL1        0.0685
     11 C          -3.8198    4.8875   21.9324 C.ar    1  UNL1        0.0104
     12 C          -2.5103    4.7406   21.2156 C.ar    1  UNL1        0.0052
     13 C          -2.4636    4.0899   19.8649 C.ar    1  UNL1        0.0536
     14 C          -3.7263    3.5861   19.2311 C.ar    1  UNL1        0.0052
     15 C          -5.0357    3.7331   19.9479 C.ar    1  UNL1        0.0104
     16 N          -7.7013    4.6777   22.7322 N.1     1  UNL1       -0.1908
     17 C          -6.3919    4.5307   22.0154 C.1     1  UNL1        0.1004
     18 C           2.4698   -0.6628   20.4346 C.ar    1  UNL1        0.0541
     19 C           3.0603   -0.7917   21.8074 C.ar    1  UNL1        0.0180
     20 C           3.9662   -1.9432   22.1289 C.ar    1  UNL1        0.0382
     21 C           4.2817   -2.9656   21.0777 C.ar    1  UNL1        0.1386
     22 C           3.6912   -2.8366   19.7049 C.ar    1  UNL1        0.0382
     23 C           2.7853   -1.6852   19.3833 C.ar    1  UNL1        0.0180
     24 O           5.1877   -4.1170   21.3993 O.3     1  UNL1       -0.4754
     25 C           6.3662   -3.9139   22.3048 C.3     1  UNL1        0.2068
     26 C           7.7590   -4.0453   21.7639 C.3     1  UNL1        0.0646
     27 C           8.4274   -2.8673   21.1191 C.3     1  UNL1        0.0759
     28 N           7.6509   -1.9784   20.1934 N.3     1  UNL1       -0.2726
     29 C           7.3849   -2.4140   18.7829 C.3     1  UNL1        0.0721
     30 C           6.6084   -1.5251   17.8572 C.3     1  UNL1        0.0174
     31 C           6.0980   -0.2006   18.3420 C.3     1  UNL1        0.0029
     32 C           6.3640    0.2351   19.7524 C.3     1  UNL1        0.0174
     33 C           7.1405   -0.6538   20.6782 C.3     1  UNL1        0.0721
@<TRIPOS>BOND
     1    16    17    3
     2    17    10    1
     3    10    11   ar
     4    11    12   ar
     5    12    13   ar
     6    13     1    1
     7     1     2    2
     8     1     3   am
     9     3     4    1
    10     4     5    1
    11     5     6    1
    12     6    18    1
    13    18    19   ar
    14    19    20   ar
    15    20    21   ar
    16    21    24    1
    17    24    25    1
    18    25    26    1
    19    26    27    1
    20    27    28    1
    21    28    29    1
    22    29    30    1
    23    30    31    1
    24    31    32    1
    25    32    33    1
    26    21    22   ar
    27    22    23   ar
    28     6     7   am
    29     7     8    2
    30     7     9    1
    31    13    14   ar
    32    14    15   ar
    33    15    10   ar
    34     9     3    1
    35    23    18   ar
    36    33    28    1
@<TRIPOS>MOLECULE
*****
 33 36 0 0 0
SMALL
GASTEIGER

@<TRIPOS>ATOM
      1 C          -0.8276    3.4411   19.4982 C.2     1  UNL1        0.2494
      2 O          -0.7405    4.3661   18.3206 O.2     1  UNL1       -0.2699
      3 N           0.1722    2.3343   19.6579 N.am    1  UNL1       -0.2660
      4 C           0.0851    1.4092   20.8355 C.3     1  UNL1        0.1160
      5 C           1.0848    0.3024   20.9953 C.3     1  UNL1        0.1197
      6 N           2.1716    0.1207   19.9775 N.am    1  UNL1       -0.2555
      7 C           2.2587    1.0458   18.8000 C.2     1  UNL1        0.2497
      8 O           3.3455    0.8641   17.7823 O.2     1  UNL1       -0.2727
      9 C           1.2590    2.1526   18.6402 C.3     1  UNL1        0.1799
     10 C          -4.0880    3.9861   22.5514 C.ar    1  UNL1        0.0685
     11 C          -2.6831    4.4024   22.8720 C.ar    1  UNL1        0.0104
     12 C          -1.5963    4.2207   21.8543 C.ar    1  UNL1        0.0052
     13 C          -1.9144    3.6228   20.5159 C.ar    1  UNL1        0.0536
     14 C          -3.3193    3.2065   20.1953 C.ar    1  UNL1        0.0052
     15 C          -4.4062    3.3882   21.2130 C.ar    1  UNL1        0.0104
     16 N          -6.2617    4.3495   24.5869 N.1     1  UNL1       -0.1908
     17 C          -5.1748    4.1678   23.5692 C.1     1  UNL1        0.1004
     18 C           3.1714   -0.9861   20.1374 C.ar    1  UNL1        0.0541
     19 C           4.4189   -0.7600   20.9389 C.ar    1  UNL1        0.0180
     20 C           5.4186   -1.8668   21.0987 C.ar    1  UNL1        0.0382
     21 C           5.1707   -3.1998   20.4569 C.ar    1  UNL1        0.1386
     22 C           3.9232   -3.4259   19.6554 C.ar    1  UNL1        0.0382
     23 C           2.9236   -2.3191   19.4956 C.ar    1  UNL1        0.0180
     24 O           6.1705   -4.3066   20.6168 O.3     1  UNL1       -0.4754
     25 C           7.6257   -3.9843   20.7853 C.3     1  UNL1        0.2068
     26 C           8.2981   -4.2200   22.1052 C.3     1  UNL1        0.0646
     27 C           8.5330   -5.6208   22.5877 C.3     1  UNL1        0.0759
     28 N           8.0667   -6.0320   23.9528 N.3     1  UNL1       -0.2726
     29 C           8.3576   -7.4133   24.4603 C.3     1  UNL1        0.0721
     30 C           7.8914   -7.8244   25.8254 C.3     1  UNL1        0.0174
     31 C           7.1343   -6.8543   26.6831 C.3     1  UNL1        0.0029
     32 C           6.8434   -5.4731   26.1757 C.3     1  UNL1        0.0174
     33 C           7.3096   -5.0619   24.8105 C.3     1  UNL1        0.0721
@<TRIPOS>BOND
     1    16    17    3
     2    17    10    1
     3    10    11   ar
     4    11    12   ar
     5    12    13   ar
     6    13     1    1
     7     1     2    2
     8     1     3   am
     9     3     4    1
    10     4     5    1
    11     5     6    1
    12     6    18    1
    13    18    19   ar
    14    19    20   ar
    15    20    21   ar
    16    21    24    1
    17    24    25    1
    18    25    26    1
    19    26    27    1
    20    27    28    1
    21    28    29    1
    22    29    30    1
    23    30    31    1
    24    31    32    1
    25    32    33    1
    26    21    22   ar
    27    22    23   ar
    28     6     7   am
    29     7     8    2
    30     7     9    1
    31    13    14   ar
    32    14    15   ar
    33    15    10   ar
    34     9     3    1
    35    23    18   ar
    36    33    28    1
