@<TRIPOS>MOLECULE
*****
 34 37 0 0 0
SMALL
GASTEIGER

@<TRIPOS>ATOM
      1 C          -9.0884  -16.4986   23.3580 C.ar    1  UNL1        0.0007
      2 C          -9.3882  -15.7384   24.6158 C.ar    1  UNL1       -0.0025
      3 C          -8.2656  -15.2498   25.4825 C.ar    1  UNL1        0.0010
      4 C          -6.8432  -15.5215   25.0913 C.ar    1  UNL1        0.0146
      5 C          -6.5435  -16.2818   23.8334 C.ar    1  UNL1        0.0481
      6 C          -7.6661  -16.7703   22.9668 C.ar    1  UNL1        0.0121
      7 N          -5.1211  -16.5535   23.4422 N.pl3   1  UNL1       -0.3125
      8 H          -4.4017  -15.9607   23.7588 H       1  UNL1        0.1522
      9 C          -4.7949  -17.7285   22.5687 C.ar    1  UNL1        0.0513
     10 C          -5.7729  -18.8578   22.4346 C.ar    1  UNL1        0.0353
     11 C          -5.4467  -20.0328   21.5611 C.ar    1  UNL1        0.1001
     12 N          -4.1424  -20.0784   20.8216 N.ar    1  UNL1       -0.2437
     13 C          -3.1644  -18.9490   20.9557 C.ar    1  UNL1        0.0833
     14 C          -1.8601  -18.9946   20.2163 C.ar    1  UNL1        0.0305
     15 C          -0.8820  -17.8653   20.3503 C.ar    1  UNL1        0.0592
     16 CL          0.4222  -17.9109   19.6109 Cl      1  UNL1       -0.0822
     17 C          -1.2083  -16.6903   21.2239 C.ar    1  UNL1        0.0115
     18 C          -2.5125  -16.6447   21.9633 C.ar    1  UNL1        0.0036
     19 C          -3.4906  -17.7741   21.8292 C.ar    1  UNL1        0.0312
     20 C         -10.2111  -16.9872   22.4914 C.3     1  UNL1        0.1412
     21 C         -11.4893  -17.4618   23.1165 C.ar    1  UNL1        0.1794
     22 N         -12.8116  -16.7555   23.0644 N.ar    1  UNL1       -0.1110
     23 N         -13.8092  -17.5831   23.8193 N.ar    1  UNL1       -0.0229
     24 N         -13.1034  -18.8009   24.3379 N.ar    1  UNL1       -0.0432
     25 N         -11.6697  -18.7259   23.9036 N.ar    1  UNL1       -0.2192
     26 C         -10.6035  -19.7374   24.2036 C.3     1  UNL1        0.0896
     27 C         -10.1895  -19.4122   25.2986 C.3     1  UNL1        0.0245
     28 C         -10.8643  -20.4036   22.8852 C.3     1  UNL1        0.0245
     29 C          -9.5373  -20.7489   24.5037 C.3     1  UNL1        0.0245
     30 N         -10.0554  -17.0013   20.9995 N.3     1  UNL1       -0.2643
     31 C         -10.3971  -19.1231   19.5398 C.3     1  UNL1        0.0188
     32 C          -9.4928  -18.2119   20.3155 C.3     1  UNL1        0.0728
     33 C         -10.4623  -15.8046   20.1917 C.3     1  UNL1        0.0728
     34 C         -11.8046  -15.7724   19.5230 C.3     1  UNL1        0.0188
@<TRIPOS>BOND
     1    31    32    1
     2    32    30    1
     3    30    33    1
     4    33    34    1
     5    30    20    1
     6    20     1    1
     7     1     2   ar
     8     2     3   ar
     9     3     4   ar
    10     4     5   ar
    11     5     7    1
    12     7     9    1
    13     9    10   ar
    14    10    11   ar
    15    11    12   ar
    16    12    13   ar
    17    13    14   ar
    18    14    15   ar
    19    15    16    1
    20    15    17   ar
    21    17    18   ar
    22    18    19   ar
    23     5     6   ar
    24    20    21    1
    25    21    22   ar
    26    22    23   ar
    27    23    24   ar
    28    24    25   ar
    29    25    26    1
    30    26    27    1
    31    26    28    1
    32    26    29    1
    33     6     1   ar
    34    25    21   ar
    35    19     9   ar
    36    19    13   ar
    37     7     8    1
@<TRIPOS>MOLECULE
*****
 34 37 0 0 0
SMALL
GASTEIGER

@<TRIPOS>ATOM
      1 C          -8.8184  -17.1292   22.2192 C.ar    1  UNL1        0.0007
      2 C          -9.0739  -15.8143   22.8942 C.ar    1  UNL1       -0.0025
      3 C          -7.9821  -15.1495   23.6792 C.ar    1  UNL1        0.0010
      4 C          -6.6348  -15.7998   23.7892 C.ar    1  UNL1        0.0146
      5 C          -6.3794  -17.1148   23.1141 C.ar    1  UNL1        0.0481
      6 C          -7.4712  -17.7794   22.3292 C.ar    1  UNL1        0.0121
      7 N          -5.0321  -17.7650   23.2241 N.pl3   1  UNL1       -0.3125
      8 H          -4.5093  -17.6770   24.0536 H       1  UNL1        0.1522
      9 C          -4.4815  -18.5494   22.0701 C.ar    1  UNL1        0.0513
     10 C          -5.2319  -19.7370   21.5443 C.ar    1  UNL1        0.0353
     11 C          -4.6812  -20.5213   20.3904 C.ar    1  UNL1        0.1001
     12 N          -3.3802  -20.1179   19.7622 N.ar    1  UNL1       -0.2437
     13 C          -2.6298  -18.9303   20.2879 C.ar    1  UNL1        0.0833
     14 C          -1.3288  -18.5270   19.6597 C.ar    1  UNL1        0.0305
     15 C          -0.5784  -17.3394   20.1855 C.ar    1  UNL1        0.0592
     16 CL          0.7226  -16.9360   19.5573 Cl      1  UNL1       -0.0822
     17 C          -1.1290  -16.5550   21.3395 C.ar    1  UNL1        0.0115
     18 C          -2.4301  -16.9583   21.9677 C.ar    1  UNL1        0.0036
     19 C          -3.1805  -18.1460   21.4419 C.ar    1  UNL1        0.0312
     20 C          -9.9102  -17.7939   21.4342 C.3     1  UNL1        0.1412
     21 C         -10.9198  -16.9618   20.7005 C.ar    1  UNL1        0.1794
     22 N         -10.6931  -16.2390   19.4058 N.ar    1  UNL1       -0.1110
     23 N         -11.9665  -15.5369   19.0378 N.ar    1  UNL1       -0.0229
     24 N         -12.9802  -15.8257   20.1052 N.ar    1  UNL1       -0.0432
     25 N         -12.3332  -16.7064   21.1327 N.ar    1  UNL1       -0.2192
     26 C         -12.9853  -17.2382   22.3745 C.3     1  UNL1        0.0896
     27 C         -13.4386  -18.3121   22.0317 C.3     1  UNL1        0.0245
     28 C         -12.5713  -16.0045   23.1204 C.3     1  UNL1        0.0245
     29 C         -13.6374  -17.7701   23.6161 C.3     1  UNL1        0.0245
     30 N          -9.9924  -19.2908   21.3829 N.3     1  UNL1       -0.2643
     31 C          -8.5905  -19.5335   19.2090 C.3     1  UNL1        0.0188
     32 C          -9.6941  -20.0149   20.1036 C.3     1  UNL1        0.0728
     33 C         -10.3729  -20.0636   22.6110 C.3     1  UNL1        0.0728
     34 C          -9.3289  -20.4154   23.6291 C.3     1  UNL1        0.0188
@<TRIPOS>BOND
     1    31    32    1
     2    32    30    1
     3    30    33    1
     4    33    34    1
     5    30    20    1
     6    20     1    1
     7     1     2   ar
     8     2     3   ar
     9     3     4   ar
    10     4     5   ar
    11     5     7    1
    12     7     9    1
    13     9    10   ar
    14    10    11   ar
    15    11    12   ar
    16    12    13   ar
    17    13    14   ar
    18    14    15   ar
    19    15    16    1
    20    15    17   ar
    21    17    18   ar
    22    18    19   ar
    23     5     6   ar
    24    20    21    1
    25    21    22   ar
    26    22    23   ar
    27    23    24   ar
    28    24    25   ar
    29    25    26    1
    30    26    27    1
    31    26    28    1
    32    26    29    1
    33     6     1   ar
    34    25    21   ar
    35    19     9   ar
    36    19    13   ar
    37     7     8    1
@<TRIPOS>MOLECULE
*****
 34 37 0 0 0
SMALL
GASTEIGER

@<TRIPOS>ATOM
      1 C          -8.8784  -17.0242   22.5479 C.ar    1  UNL1        0.0007
      2 C          -9.4209  -16.0360   23.5374 C.ar    1  UNL1       -0.0025
      3 C          -8.4930  -15.3416   24.4897 C.ar    1  UNL1        0.0010
      4 C          -7.0226  -15.6355   24.4525 C.ar    1  UNL1        0.0146
      5 C          -6.4800  -16.6238   23.4630 C.ar    1  UNL1        0.0481
      6 C          -7.4079  -17.3181   22.5107 C.ar    1  UNL1        0.0121
      7 N          -5.0096  -16.9176   23.4258 N.pl3   1  UNL1       -0.3125
      8 H          -4.3921  -16.4136   24.0037 H       1  UNL1        0.1522
      9 C          -4.4799  -17.9794   22.5081 C.ar    1  UNL1        0.0513
     10 C          -5.2512  -19.2501   22.3072 C.ar    1  UNL1        0.0353
     11 C          -4.7216  -20.3118   21.3895 C.ar    1  UNL1        0.1001
     12 N          -3.4206  -20.1029   20.6727 N.ar    1  UNL1       -0.2437
     13 C          -2.6493  -18.8322   20.8736 C.ar    1  UNL1        0.0833
     14 C          -1.3483  -18.6233   20.1568 C.ar    1  UNL1        0.0305
     15 C          -0.5770  -17.3526   20.3577 C.ar    1  UNL1        0.0592
     16 CL          0.7240  -17.1437   19.6410 Cl      1  UNL1       -0.0822
     17 C          -1.1066  -16.2908   21.2754 C.ar    1  UNL1        0.0115
     18 C          -2.4076  -16.4997   21.9922 C.ar    1  UNL1        0.0036
     19 C          -3.1789  -17.7705   21.7913 C.ar    1  UNL1        0.0312
     20 C          -9.8063  -17.7186   21.5956 C.3     1  UNL1        0.1412
     21 C         -10.8208  -16.9265   20.8252 C.ar    1  UNL1        0.1794
     22 N         -10.5759  -16.1934   19.5396 N.ar    1  UNL1       -0.1110
     23 N         -11.8620  -15.5423   19.1250 N.ar    1  UNL1       -0.0229
     24 N         -12.9018  -15.8730   20.1544 N.ar    1  UNL1       -0.0432
     25 N         -12.2583  -16.7285   21.2051 N.ar    1  UNL1       -0.2192
     26 C         -12.9337  -17.2877   22.4221 C.3     1  UNL1        0.0896
     27 C         -13.3085  -18.3887   22.0705 C.3     1  UNL1        0.0245
     28 C         -12.6254  -16.0263   23.1730 C.3     1  UNL1        0.0245
     29 C         -13.6092  -17.8470   23.6390 C.3     1  UNL1        0.0245
     30 N          -9.7197  -19.2050   21.4137 N.3     1  UNL1       -0.2643
     31 C          -9.7446  -20.3303   23.7552 C.3     1  UNL1        0.0188
     32 C         -10.3694  -20.1213   22.4077 C.3     1  UNL1        0.0728
     33 C          -8.9834  -19.7750   20.2377 C.3     1  UNL1        0.0728
     34 C          -9.6782  -19.9200   18.9162 C.3     1  UNL1        0.0188
@<TRIPOS>BOND
     1    31    32    1
     2    32    30    1
     3    30    33    1
     4    33    34    1
     5    30    20    1
     6    20     1    1
     7     1     2   ar
     8     2     3   ar
     9     3     4   ar
    10     4     5   ar
    11     5     7    1
    12     7     9    1
    13     9    10   ar
    14    10    11   ar
    15    11    12   ar
    16    12    13   ar
    17    13    14   ar
    18    14    15   ar
    19    15    16    1
    20    15    17   ar
    21    17    18   ar
    22    18    19   ar
    23     5     6   ar
    24    20    21    1
    25    21    22   ar
    26    22    23   ar
    27    23    24   ar
    28    24    25   ar
    29    25    26    1
    30    26    27    1
    31    26    28    1
    32    26    29    1
    33     6     1   ar
    34    25    21   ar
    35    19     9   ar
    36    19    13   ar
    37     7     8    1
@<TRIPOS>MOLECULE
*****
 34 37 0 0 0
SMALL
GASTEIGER

@<TRIPOS>ATOM
      1 C          -9.0140  -16.6948   23.9048 C.ar    1  UNL1        0.0007
      2 C          -9.2052  -15.9923   25.2162 C.ar    1  UNL1       -0.0025
      3 C          -8.0255  -15.3997   25.9287 C.ar    1  UNL1        0.0010
      4 C          -6.6548  -15.5097   25.3296 C.ar    1  UNL1        0.0146
      5 C          -6.4636  -16.2123   24.0181 C.ar    1  UNL1        0.0481
      6 C          -7.6432  -16.8049   23.3058 C.ar    1  UNL1        0.0121
      7 N          -5.0928  -16.3224   23.4191 N.pl3   1  UNL1       -0.3125
      8 H          -4.4476  -15.5867   23.5277 H       1  UNL1        0.1522
      9 C          -4.7051  -17.5533   22.6545 C.ar    1  UNL1        0.0513
     10 C          -5.6221  -18.7401   22.6287 C.ar    1  UNL1        0.0353
     11 C          -5.2343  -19.9709   21.8641 C.ar    1  UNL1        0.1001
     12 N          -3.9295  -20.0150   21.1254 N.ar    1  UNL1       -0.2437
     13 C          -3.0126  -18.8283   21.1512 C.ar    1  UNL1        0.0833
     14 C          -1.7078  -18.8724   20.4125 C.ar    1  UNL1        0.0305
     15 C          -0.7909  -17.6856   20.4384 C.ar    1  UNL1        0.0592
     16 CL          0.5139  -17.7297   19.6996 Cl      1  UNL1       -0.0822
     17 C          -1.1786  -16.4547   21.2029 C.ar    1  UNL1        0.0115
     18 C          -2.4833  -16.4106   21.9417 C.ar    1  UNL1        0.0036
     19 C          -3.4003  -17.5974   21.9158 C.ar    1  UNL1        0.0312
     20 C         -10.1936  -17.2874   23.1924 C.3     1  UNL1        0.1412
     21 C         -10.4974  -16.8833   21.7802 C.ar    1  UNL1        0.1794
     22 N         -11.1081  -15.5835   21.3470 N.ar    1  UNL1       -0.1110
     23 N         -11.2320  -15.6049   19.8523 N.ar    1  UNL1       -0.0229
     24 N         -10.6978  -16.9180   19.3617 N.ar    1  UNL1       -0.0432
     25 N         -10.2438  -17.7080   20.5532 N.ar    1  UNL1       -0.2192
     26 C          -9.6419  -19.0816   20.5230 C.3     1  UNL1        0.0896
     27 C          -8.4485  -18.8774   20.4219 C.3     1  UNL1        0.0245
     28 C         -11.0103  -19.6840   20.6441 C.3     1  UNL1        0.0245
     29 C          -9.0400  -20.4551   20.4928 C.3     1  UNL1        0.0245
     30 N         -11.0693  -18.2840   23.8923 N.3     1  UNL1       -0.2643
     31 C          -9.5304  -20.3585   24.1721 C.3     1  UNL1        0.0188
     32 C         -10.4562  -19.3383   24.7655 C.3     1  UNL1        0.0728
     33 C         -12.5582  -18.2263   23.7189 C.3     1  UNL1        0.0728
     34 C         -13.4603  -18.5013   24.8853 C.3     1  UNL1        0.0188
@<TRIPOS>BOND
     1    31    32    1
     2    32    30    1
     3    30    33    1
     4    33    34    1
     5    30    20    1
     6    20     1    1
     7     1     2   ar
     8     2     3   ar
     9     3     4   ar
    10     4     5   ar
    11     5     7    1
    12     7     9    1
    13     9    10   ar
    14    10    11   ar
    15    11    12   ar
    16    12    13   ar
    17    13    14   ar
    18    14    15   ar
    19    15    16    1
    20    15    17   ar
    21    17    18   ar
    22    18    19   ar
    23     5     6   ar
    24    20    21    1
    25    21    22   ar
    26    22    23   ar
    27    23    24   ar
    28    24    25   ar
    29    25    26    1
    30    26    27    1
    31    26    28    1
    32    26    29    1
    33     6     1   ar
    34    25    21   ar
    35    19     9   ar
    36    19    13   ar
    37     7     8    1
@<TRIPOS>MOLECULE
*****
 34 37 0 0 0
SMALL
GASTEIGER

@<TRIPOS>ATOM
      1 C          -8.4655  -16.4695   24.1291 C.ar    1  UNL1        0.0007
      2 C          -8.6235  -15.5940   25.3367 C.ar    1  UNL1       -0.0025
      3 C          -7.4338  -14.8793   25.9059 C.ar    1  UNL1        0.0010
      4 C          -6.0861  -15.0401   25.2673 C.ar    1  UNL1        0.0146
      5 C          -5.9281  -15.9157   24.0596 C.ar    1  UNL1        0.0481
      6 C          -7.1177  -16.6303   23.4905 C.ar    1  UNL1        0.0121
      7 N          -4.5804  -16.0765   23.4210 N.pl3   1  UNL1       -0.3125
      8 H          -3.9231  -15.3450   23.4676 H       1  UNL1        0.1522
      9 C          -4.2340  -17.3519   22.7115 C.ar    1  UNL1        0.0513
     10 C          -5.1308  -18.5476   22.8375 C.ar    1  UNL1        0.0353
     11 C          -4.7845  -19.8230   22.1280 C.ar    1  UNL1        0.1001
     12 N          -3.5412  -19.9026   21.2925 N.ar    1  UNL1       -0.2437
     13 C          -2.6444  -18.7069   21.1665 C.ar    1  UNL1        0.0833
     14 C          -1.4012  -18.7866   20.3310 C.ar    1  UNL1        0.0305
     15 C          -0.5043  -17.5909   20.2050 C.ar    1  UNL1        0.0592
     16 CL          0.7389  -17.6705   19.3695 Cl      1  UNL1       -0.0822
     17 C          -0.8507  -16.3154   20.9145 C.ar    1  UNL1        0.0115
     18 C          -2.0939  -16.2358   21.7500 C.ar    1  UNL1        0.0036
     19 C          -2.9908  -17.4316   21.8760 C.ar    1  UNL1        0.0312
     20 C          -9.6552  -17.1843   23.5600 C.3     1  UNL1        0.1412
     21 C          -9.8760  -18.6356   23.8676 C.ar    1  UNL1        0.1794
     22 N          -9.9605  -19.2439   25.2362 N.ar    1  UNL1       -0.1110
     23 N         -10.1879  -20.7178   25.0752 N.ar    1  UNL1       -0.0229
     24 N         -10.2440  -21.0204   23.6070 N.ar    1  UNL1       -0.0432
     25 N         -10.0512  -19.7336   22.8608 N.ar    1  UNL1       -0.2192
     26 C         -10.0363  -19.5730   21.3695 C.3     1  UNL1        0.0896
     27 C         -11.2048  -19.6715   21.0515 C.3     1  UNL1        0.0245
     28 C          -8.5459  -19.4076   21.4021 C.3     1  UNL1        0.0245
     29 C         -10.0215  -19.4123   19.8782 C.3     1  UNL1        0.0245
     30 N         -10.6239  -16.4476   22.6832 N.3     1  UNL1       -0.2643
     31 C         -11.1152  -15.9197   20.1872 C.3     1  UNL1        0.0188
     32 C         -10.1757  -15.9101   21.3565 C.3     1  UNL1        0.0728
     33 C         -12.0410  -16.2484   23.1332 C.3     1  UNL1        0.0728
     34 C         -13.0014  -17.4005   23.1188 C.3     1  UNL1        0.0188
@<TRIPOS>BOND
     1    31    32    1
     2    32    30    1
     3    30    33    1
     4    33    34    1
     5    30    20    1
     6    20     1    1
     7     1     2   ar
     8     2     3   ar
     9     3     4   ar
    10     4     5   ar
    11     5     7    1
    12     7     9    1
    13     9    10   ar
    14    10    11   ar
    15    11    12   ar
    16    12    13   ar
    17    13    14   ar
    18    14    15   ar
    19    15    16    1
    20    15    17   ar
    21    17    18   ar
    22    18    19   ar
    23     5     6   ar
    24    20    21    1
    25    21    22   ar
    26    22    23   ar
    27    23    24   ar
    28    24    25   ar
    29    25    26    1
    30    26    27    1
    31    26    28    1
    32    26    29    1
    33     6     1   ar
    34    25    21   ar
    35    19     9   ar
    36    19    13   ar
    37     7     8    1
@<TRIPOS>MOLECULE
*****
 34 37 0 0 0
SMALL
GASTEIGER

@<TRIPOS>ATOM
      1 C          -9.0383  -16.6025   22.8947 C.ar    1  UNL1        0.0007
      2 C          -9.4978  -16.0685   24.2189 C.ar    1  UNL1       -0.0025
      3 C          -8.4928  -15.7191   25.2763 C.ar    1  UNL1        0.0010
      4 C          -7.0284  -15.9036   25.0094 C.ar    1  UNL1        0.0146
      5 C          -6.5688  -16.4376   23.6851 C.ar    1  UNL1        0.0481
      6 C          -7.5738  -16.7871   22.6277 C.ar    1  UNL1        0.0121
      7 N          -5.1044  -16.6222   23.4181 N.pl3   1  UNL1       -0.3125
      8 H          -4.4509  -15.9945   23.8031 H       1  UNL1        0.1522
      9 C          -4.6355  -17.7631   22.5646 C.ar    1  UNL1        0.0513
     10 C          -5.4854  -18.9907   22.4206 C.ar    1  UNL1        0.0353
     11 C          -5.0165  -20.1316   21.5671 C.ar    1  UNL1        0.1001
     12 N          -3.6978  -20.0449   20.8575 N.ar    1  UNL1       -0.2437
     13 C          -2.8480  -18.8173   21.0014 C.ar    1  UNL1        0.0833
     14 C          -1.5293  -18.7306   20.2918 C.ar    1  UNL1        0.0305
     15 C          -0.6794  -17.5030   20.4358 C.ar    1  UNL1        0.0592
     16 CL          0.6392  -17.4163   19.7262 Cl      1  UNL1       -0.0822
     17 C          -1.1483  -16.3620   21.2893 C.ar    1  UNL1        0.0115
     18 C          -2.4670  -16.4487   21.9989 C.ar    1  UNL1        0.0036
     19 C          -3.3168  -17.6764   21.8550 C.ar    1  UNL1        0.0312
     20 C         -10.0432  -16.9520   21.8372 C.3     1  UNL1        0.1412
     21 C          -9.9488  -18.2645   21.1174 C.ar    1  UNL1        0.1794
     22 N          -9.8058  -18.4492   19.6357 N.ar    1  UNL1       -0.1110
     23 N          -9.7495  -19.9217   19.3553 N.ar    1  UNL1       -0.0229
     24 N          -9.8577  -20.6471   20.6639 N.ar    1  UNL1       -0.0432
     25 N          -9.9809  -19.6229   21.7528 N.ar    1  UNL1       -0.2192
     26 C         -10.1130  -19.9072   23.2197 C.3     1  UNL1        0.0896
     27 C         -11.2873  -19.7017   23.4544 C.3     1  UNL1        0.0245
     28 C          -8.6518  -20.2395   23.2869 C.3     1  UNL1        0.0245
     29 C         -10.2451  -20.1915   24.6865 C.3     1  UNL1        0.0245
     30 N         -11.1425  -15.9888   21.4998 N.3     1  UNL1       -0.2643
     31 C         -13.0373  -17.0316   22.9392 C.3     1  UNL1        0.0188
     32 C         -12.3073  -15.8241   22.4304 C.3     1  UNL1        0.0728
     33 C         -11.0770  -15.1903   20.2316 C.3     1  UNL1        0.0728
     34 C         -11.8939  -15.6022   19.0429 C.3     1  UNL1        0.0188
@<TRIPOS>BOND
     1    31    32    1
     2    32    30    1
     3    30    33    1
     4    33    34    1
     5    30    20    1
     6    20     1    1
     7     1     2   ar
     8     2     3   ar
     9     3     4   ar
    10     4     5   ar
    11     5     7    1
    12     7     9    1
    13     9    10   ar
    14    10    11   ar
    15    11    12   ar
    16    12    13   ar
    17    13    14   ar
    18    14    15   ar
    19    15    16    1
    20    15    17   ar
    21    17    18   ar
    22    18    19   ar
    23     5     6   ar
    24    20    21    1
    25    21    22   ar
    26    22    23   ar
    27    23    24   ar
    28    24    25   ar
    29    25    26    1
    30    26    27    1
    31    26    28    1
    32    26    29    1
    33     6     1   ar
    34    25    21   ar
    35    19     9   ar
    36    19    13   ar
    37     7     8    1
@<TRIPOS>MOLECULE
*****
 34 37 0 0 0
SMALL
GASTEIGER

@<TRIPOS>ATOM
      1 C          -8.5103  -17.1048   23.6796 C.ar    1  UNL1        0.0007
      2 C          -8.9474  -16.0754   24.6792 C.ar    1  UNL1       -0.0025
      3 C          -7.9461  -15.1215   25.2601 C.ar    1  UNL1        0.0010
      4 C          -6.5077  -15.1969   24.8413 C.ar    1  UNL1        0.0146
      5 C          -6.0706  -16.2264   23.8416 C.ar    1  UNL1        0.0481
      6 C          -7.0719  -17.1803   23.2608 C.ar    1  UNL1        0.0121
      7 N          -4.6323  -16.3019   23.4229 N.pl3   1  UNL1       -0.3125
      8 H          -4.0289  -15.5434   23.5955 H       1  UNL1        0.1522
      9 C          -4.1133  -17.5331   22.7410 C.ar    1  UNL1        0.0513
     10 C          -4.8513  -18.8321   22.8748 C.ar    1  UNL1        0.0353
     11 C          -4.3323  -20.0632   22.1930 C.ar    1  UNL1        0.1001
     12 N          -3.0752  -19.9953   21.3774 N.ar    1  UNL1       -0.2437
     13 C          -2.3372  -18.6964   21.2436 C.ar    1  UNL1        0.0833
     14 C          -1.0801  -18.6285   20.4280 C.ar    1  UNL1        0.0305
     15 C          -0.3421  -17.3296   20.2943 C.ar    1  UNL1        0.0592
     16 CL          0.9150  -17.2617   19.4787 Cl      1  UNL1       -0.0822
     17 C          -0.8611  -16.0983   20.9761 C.ar    1  UNL1        0.0115
     18 C          -2.1181  -16.1662   21.7917 C.ar    1  UNL1        0.0036
     19 C          -2.8562  -17.4653   21.9254 C.ar    1  UNL1        0.0312
     20 C          -9.5116  -18.0588   23.0987 C.3     1  UNL1        0.1412
     21 C          -9.3918  -18.4926   21.6678 C.ar    1  UNL1        0.1794
     22 N          -8.3972  -19.4755   21.1248 N.ar    1  UNL1       -0.1110
     23 N          -8.6362  -19.6100   19.6501 N.ar    1  UNL1       -0.0229
     24 N          -9.7786  -18.7104   19.2817 N.ar    1  UNL1       -0.0432
     25 N         -10.2455  -18.0198   20.5287 N.ar    1  UNL1       -0.2192
     26 C         -11.3690  -17.0301   20.6205 C.3     1  UNL1        0.0896
     27 C         -10.8214  -15.9520   20.5023 C.3     1  UNL1        0.0245
     28 C         -12.3459  -18.1551   20.7937 C.3     1  UNL1        0.0245
     29 C         -12.4923  -16.0404   20.7122 C.3     1  UNL1        0.0245
     30 N         -10.6327  -18.5790   23.9487 N.3     1  UNL1       -0.2643
     31 C         -13.1466  -18.5461   24.6041 C.3     1  UNL1        0.0188
     32 C         -11.9801  -17.9219   23.8972 C.3     1  UNL1        0.0728
     33 C         -10.4064  -19.7563   24.8503 C.3     1  UNL1        0.0728
     34 C          -9.5395  -20.8930   24.3961 C.3     1  UNL1        0.0188
@<TRIPOS>BOND
     1    31    32    1
     2    32    30    1
     3    30    33    1
     4    33    34    1
     5    30    20    1
     6    20     1    1
     7     1     2   ar
     8     2     3   ar
     9     3     4   ar
    10     4     5   ar
    11     5     7    1
    12     7     9    1
    13     9    10   ar
    14    10    11   ar
    15    11    12   ar
    16    12    13   ar
    17    13    14   ar
    18    14    15   ar
    19    15    16    1
    20    15    17   ar
    21    17    18   ar
    22    18    19   ar
    23     5     6   ar
    24    20    21    1
    25    21    22   ar
    26    22    23   ar
    27    23    24   ar
    28    24    25   ar
    29    25    26    1
    30    26    27    1
    31    26    28    1
    32    26    29    1
    33     6     1   ar
    34    25    21   ar
    35    19     9   ar
    36    19    13   ar
    37     7     8    1
@<TRIPOS>MOLECULE
*****
 34 37 0 0 0
SMALL
GASTEIGER

@<TRIPOS>ATOM
      1 C          -8.0062  -16.4321   23.8891 C.ar    1  UNL1        0.0007
      2 C          -8.0619  -15.0826   24.5414 C.ar    1  UNL1       -0.0025
      3 C          -6.8010  -14.4325   25.0289 C.ar    1  UNL1        0.0010
      4 C          -5.4844  -15.1320   24.8641 C.ar    1  UNL1        0.0146
      5 C          -5.4287  -16.4817   24.2117 C.ar    1  UNL1        0.0481
      6 C          -6.6896  -17.1317   23.7242 C.ar    1  UNL1        0.0121
      7 N          -4.1121  -17.1812   24.0468 N.pl3   1  UNL1       -0.3125
      8 H          -3.5920  -17.4448   24.8401 H       1  UNL1        0.1522
      9 C          -3.5879  -17.4791   22.6733 C.ar    1  UNL1        0.0513
     10 C          -2.4719  -16.6560   22.1016 C.ar    1  UNL1        0.0353
     11 C          -1.9478  -16.9539   20.7281 C.ar    1  UNL1        0.1001
     12 N          -2.5397  -18.0749   19.9263 N.ar    1  UNL1       -0.2437
     13 C          -3.6557  -18.8981   20.4980 C.ar    1  UNL1        0.0833
     14 C          -4.2476  -20.0191   19.6962 C.ar    1  UNL1        0.0305
     15 C          -5.3636  -20.8423   20.2679 C.ar    1  UNL1        0.0592
     16 CL         -5.9556  -21.9633   19.4661 Cl      1  UNL1       -0.0822
     17 C          -5.8878  -20.5444   21.6415 C.ar    1  UNL1        0.0115
     18 C          -5.2959  -19.4233   22.4432 C.ar    1  UNL1        0.0036
     19 C          -4.1798  -18.6002   21.8715 C.ar    1  UNL1        0.0312
     20 C          -9.2671  -17.0822   23.4016 C.3     1  UNL1        0.1412
     21 C          -9.5510  -18.5157   23.7398 C.ar    1  UNL1        0.1794
     22 N          -9.6161  -19.0998   25.1199 N.ar    1  UNL1       -0.1110
     23 N          -9.9250  -20.5619   24.9903 N.ar    1  UNL1       -0.0229
     24 N         -10.0509  -20.8814   23.5301 N.ar    1  UNL1       -0.0432
     25 N          -9.8197  -19.6168   22.7573 N.ar    1  UNL1       -0.2192
     26 C          -9.8517  -19.4778   21.2641 C.3     1  UNL1        0.0896
     27 C          -8.7113  -19.1765   20.9724 C.3     1  UNL1        0.0245
     28 C         -11.3106  -19.8263   21.2627 C.3     1  UNL1        0.0245
     29 C          -9.8835  -19.3387   19.7709 C.3     1  UNL1        0.0245
     30 N         -10.2440  -16.2987   22.5759 N.3     1  UNL1       -0.2643
     31 C         -12.7150  -17.0472   22.8655 C.3     1  UNL1        0.0188
     32 C         -11.6273  -16.0402   23.0952 C.3     1  UNL1        0.0728
     33 C          -9.8376  -15.7737   21.2308 C.3     1  UNL1        0.0728
     34 C         -10.8324  -15.7354   20.1088 C.3     1  UNL1        0.0188
@<TRIPOS>BOND
     1    31    32    1
     2    32    30    1
     3    30    33    1
     4    33    34    1
     5    30    20    1
     6    20     1    1
     7     1     2   ar
     8     2     3   ar
     9     3     4   ar
    10     4     5   ar
    11     5     7    1
    12     7     9    1
    13     9    10   ar
    14    10    11   ar
    15    11    12   ar
    16    12    13   ar
    17    13    14   ar
    18    14    15   ar
    19    15    16    1
    20    15    17   ar
    21    17    18   ar
    22    18    19   ar
    23     5     6   ar
    24    20    21    1
    25    21    22   ar
    26    22    23   ar
    27    23    24   ar
    28    24    25   ar
    29    25    26    1
    30    26    27    1
    31    26    28    1
    32    26    29    1
    33     6     1   ar
    34    25    21   ar
    35    19     9   ar
    36    19    13   ar
    37     7     8    1
@<TRIPOS>MOLECULE
*****
 34 37 0 0 0
SMALL
GASTEIGER

@<TRIPOS>ATOM
      1 C          -8.6887  -17.1969   23.6479 C.ar    1  UNL1        0.0007
      2 C          -9.1867  -16.0679   24.5008 C.ar    1  UNL1       -0.0025
      3 C          -8.2327  -15.0167   24.9855 C.ar    1  UNL1        0.0010
      4 C          -6.7807  -15.0944   24.6172 C.ar    1  UNL1        0.0146
      5 C          -6.2827  -16.2234   23.7642 C.ar    1  UNL1        0.0481
      6 C          -7.2367  -17.2746   23.2796 C.ar    1  UNL1        0.0121
      7 N          -4.8307  -16.3012   23.3959 N.pl3   1  UNL1       -0.3125
      8 H          -4.2303  -15.5478   23.5991 H       1  UNL1        0.1522
      9 C          -4.2935  -17.5267   22.7181 C.ar    1  UNL1        0.0513
     10 C          -5.0418  -18.8235   22.8098 C.ar    1  UNL1        0.0353
     11 C          -4.5045  -20.0490   22.1320 C.ar    1  UNL1        0.1001
     12 N          -3.2190  -19.9777   21.3625 N.ar    1  UNL1       -0.2437
     13 C          -2.4707  -18.6810   21.2707 C.ar    1  UNL1        0.0833
     14 C          -1.1851  -18.6098   20.5011 C.ar    1  UNL1        0.0305
     15 C          -0.4368  -17.3130   20.4094 C.ar    1  UNL1        0.0592
     16 CL          0.8488  -17.2418   19.6398 Cl      1  UNL1       -0.0822
     17 C          -0.9740  -16.0874   21.0872 C.ar    1  UNL1        0.0115
     18 C          -2.2596  -16.1587   21.8568 C.ar    1  UNL1        0.0036
     19 C          -3.0079  -17.4555   21.9485 C.ar    1  UNL1        0.0312
     20 C          -9.6427  -18.2481   23.1632 C.3     1  UNL1        0.1412
     21 C         -11.1136  -18.1010   23.4180 C.ar    1  UNL1        0.1794
     22 N         -11.8549  -18.6054   24.6205 N.ar    1  UNL1       -0.1110
     23 N         -13.3008  -18.2397   24.4607 N.ar    1  UNL1       -0.0229
     24 N         -13.4531  -17.5093   23.1593 N.ar    1  UNL1       -0.0432
     25 N         -12.1013  -17.4236   22.5150 N.ar    1  UNL1       -0.2192
     26 C         -11.7917  -16.7744   21.1986 C.3     1  UNL1        0.0896
     27 C         -11.4840  -15.6375   21.4967 C.3     1  UNL1        0.0245
     28 C         -12.1059  -18.0591   20.4910 C.3     1  UNL1        0.0245
     29 C         -11.4820  -16.1252   19.8824 C.3     1  UNL1        0.0245
     30 N          -9.1258  -19.4465   22.4238 N.3     1  UNL1       -0.2643
     31 C          -9.3915  -21.0575   24.4446 C.3     1  UNL1        0.0188
     32 C          -8.6839  -20.6627   23.1824 C.3     1  UNL1        0.0728
     33 C          -9.0509  -19.4286   20.9257 C.3     1  UNL1        0.0728
     34 C          -7.7161  -19.3984   20.2419 C.3     1  UNL1        0.0188
@<TRIPOS>BOND
     1    31    32    1
     2    32    30    1
     3    30    33    1
     4    33    34    1
     5    30    20    1
     6    20     1    1
     7     1     2   ar
     8     2     3   ar
     9     3     4   ar
    10     4     5   ar
    11     5     7    1
    12     7     9    1
    13     9    10   ar
    14    10    11   ar
    15    11    12   ar
    16    12    13   ar
    17    13    14   ar
    18    14    15   ar
    19    15    16    1
    20    15    17   ar
    21    17    18   ar
    22    18    19   ar
    23     5     6   ar
    24    20    21    1
    25    21    22   ar
    26    22    23   ar
    27    23    24   ar
    28    24    25   ar
    29    25    26    1
    30    26    27    1
    31    26    28    1
    32    26    29    1
    33     6     1   ar
    34    25    21   ar
    35    19     9   ar
    36    19    13   ar
    37     7     8    1
