@<TRIPOS>MOLECULE
*****
 30 33 0 0 0
SMALL
GASTEIGER

@<TRIPOS>ATOM
      1 N          -7.7062  -17.6017   22.5133 N.ar    1  UNL1       -0.3068
      2 C          -6.7706  -18.7098   22.1301 C.ar    1  UNL1        0.1143
      3 C          -7.5955  -19.9134   21.7826 C.ar    1  UNL1        0.0533
      4 C          -9.0409  -19.5493   21.9511 C.ar    1  UNL1        0.1062
      5 N         -10.3035  -20.3341   21.7516 N.ar    1  UNL1       -0.2236
      6 C         -11.6345  -19.6901   22.0038 C.ar    1  UNL1        0.1809
      7 N         -11.7029  -18.2614   22.4555 N.ar    1  UNL1       -0.2750
      8 C         -13.0340  -17.6174   22.7076 C.3     1  UNL1        0.1352
      9 C         -10.4403  -17.4766   22.6549 C.ar    1  UNL1        0.2794
     10 O         -10.5087  -16.0478   23.1065 O.2     1  UNL1       -0.2653
     11 C          -9.1093  -18.1205   22.4027 C.ar    1  UNL1        0.1359
     12 N          -5.2732  -18.6284   22.0996 N.pl3   1  UNL1       -0.2932
     13 C          -4.5189  -18.2216   23.3307 C.3     1  UNL1        0.0922
     14 C          -3.0215  -18.1403   23.3003 C.3     1  UNL1        0.0228
     15 C          -2.2782  -18.4658   22.0387 C.3     1  UNL1        0.0177
     16 C          -3.0324  -18.8726   20.8076 C.3     1  UNL1        0.0575
     17 C          -3.2987  -19.3031   19.3956 C.3     1  UNL1        0.0173
     18 N          -1.6274  -18.9408   20.2867 N.3     1  UNL1       -0.3219
     19 C          -4.5299  -18.9539   20.8381 C.3     1  UNL1        0.1062
     20 H          -0.9767  -18.6837   21.0290 H       1  UNL1        0.1188
     21 H          -1.5231  -18.2947   19.5043 H       1  UNL1        0.1188
     22 C          -7.3085  -16.2177   22.9334 C.3     1  UNL1        0.1338
     23 C          -4.7275  -14.9248   23.7500 C.3     1  UNL1        0.0308
     24 C          -5.7529  -15.2735   24.7877 C.ar    1  UNL1       -0.0238
     25 C          -5.4879  -14.9757   26.2338 C.ar    1  UNL1       -0.0022
     26 C          -6.5132  -15.3243   27.2715 C.ar    1  UNL1        0.0293
     27 C          -7.8038  -15.9708   26.8633 C.ar    1  UNL1        0.1399
     28 F          -8.8292  -16.3194   27.9010 F       1  UNL1       -0.2042
     29 C          -8.0688  -16.2686   25.4173 C.ar    1  UNL1        0.0269
     30 C          -7.0434  -15.9199   24.3794 C.ar    1  UNL1       -0.0013
@<TRIPOS>BOND
     1    23    24    1
     2    24    25   ar
     3    25    26   ar
     4    26    27   ar
     5    27    28    1
     6    27    29   ar
     7    29    30   ar
     8    30    22    1
     9    22     1    1
    10     1     2   ar
    11     2    12    1
    12    12    13    1
    13    13    14    1
    14    14    15    1
    15    15    16    1
    16    16    17    1
    17    16    18    1
    18    16    19    1
    19     2     3   ar
    20     3     4   ar
    21     4     5   ar
    22     5     6   ar
    23     6     7   ar
    24     7     8    1
    25     7     9   ar
    26     9    10    2
    27     9    11   ar
    28    30    24   ar
    29    11     1   ar
    30    19    12    1
    31    11     4   ar
    32    18    20    1
    33    18    21    1
@<TRIPOS>MOLECULE
*****
 30 33 0 0 0
SMALL
GASTEIGER

@<TRIPOS>ATOM
      1 N          -7.5038  -17.6376   22.2807 N.ar    1  UNL1       -0.3068
      2 C          -8.7741  -18.3315   21.8869 C.ar    1  UNL1        0.1143
      3 C          -8.4089  -19.6332   21.2372 C.ar    1  UNL1        0.0533
      4 C          -6.9130  -19.7439   21.2294 C.ar    1  UNL1        0.1062
      5 N          -5.9880  -20.8084   20.7184 N.ar    1  UNL1       -0.2236
      6 C          -4.5036  -20.6395   20.8524 C.ar    1  UNL1        0.1809
      7 N          -3.9442  -19.4061   21.4973 N.ar    1  UNL1       -0.2750
      8 C          -2.4597  -19.2373   21.6312 C.3     1  UNL1        0.1352
      9 C          -4.8692  -18.3417   22.0083 C.ar    1  UNL1        0.2794
     10 O          -4.3098  -17.1083   22.6532 O.2     1  UNL1       -0.2653
     11 C          -6.3536  -18.5105   21.8743 C.ar    1  UNL1        0.1359
     12 N         -10.1652  -17.8144   22.1046 N.pl3   1  UNL1       -0.2932
     13 C         -10.7131  -16.7382   21.2148 C.3     1  UNL1        0.0922
     14 C         -12.1042  -16.2211   21.4326 C.3     1  UNL1        0.0228
     15 C         -12.9474  -16.7802   22.5400 C.3     1  UNL1        0.0177
     16 C         -12.3995  -17.8563   23.4297 C.3     1  UNL1        0.0575
     17 C         -12.3258  -18.8758   24.5275 C.3     1  UNL1        0.0173
     18 N         -13.7650  -17.6933   24.0287 N.3     1  UNL1       -0.3219
     19 C         -11.0084  -18.3734   23.2120 C.3     1  UNL1        0.1062
     20 H         -14.2769  -16.9742   23.5176 H       1  UNL1        0.1188
     21 H         -13.6765  -17.4174   25.0067 H       1  UNL1        0.1188
     22 C          -7.4017  -16.3048   22.9613 C.3     1  UNL1        0.1338
     23 C          -5.1702  -14.8651   24.3570 C.3     1  UNL1        0.0308
     24 C          -6.2646  -15.5073   25.1570 C.ar    1  UNL1       -0.0238
     25 C          -6.2432  -15.4298   26.6548 C.ar    1  UNL1       -0.0022
     26 C          -7.3375  -16.0720   27.4548 C.ar    1  UNL1        0.0293
     27 C          -8.4532  -16.7919   26.7569 C.ar    1  UNL1        0.1399
     28 F          -9.5476  -17.4342   27.5569 F       1  UNL1       -0.2042
     29 C          -8.4746  -16.8695   25.2591 C.ar    1  UNL1        0.0269
     30 C          -7.3802  -16.2272   24.4591 C.ar    1  UNL1       -0.0013
@<TRIPOS>BOND
     1    23    24    1
     2    24    25   ar
     3    25    26   ar
     4    26    27   ar
     5    27    28    1
     6    27    29   ar
     7    29    30   ar
     8    30    22    1
     9    22     1    1
    10     1     2   ar
    11     2    12    1
    12    12    13    1
    13    13    14    1
    14    14    15    1
    15    15    16    1
    16    16    17    1
    17    16    18    1
    18    16    19    1
    19     2     3   ar
    20     3     4   ar
    21     4     5   ar
    22     5     6   ar
    23     6     7   ar
    24     7     8    1
    25     7     9   ar
    26     9    10    2
    27     9    11   ar
    28    30    24   ar
    29    11     1   ar
    30    19    12    1
    31    11     4   ar
    32    18    20    1
    33    18    21    1
@<TRIPOS>MOLECULE
*****
 30 33 0 0 0
SMALL
GASTEIGER

@<TRIPOS>ATOM
      1 N          -7.2130  -17.5957   22.2107 N.ar    1  UNL1       -0.3068
      2 C          -8.2596  -18.5458   21.7087 C.ar    1  UNL1        0.1143
      3 C          -7.5685  -19.7941   21.2458 C.ar    1  UNL1        0.0533
      4 C          -6.0949  -19.6154   21.4617 C.ar    1  UNL1        0.1062
      5 N          -4.9248  -20.5144   21.1924 N.ar    1  UNL1       -0.2236
      6 C          -3.5350  -20.0547   21.5193 C.ar    1  UNL1        0.1809
      7 N          -3.3153  -18.6960   22.1157 N.ar    1  UNL1       -0.2750
      8 C          -1.9253  -18.2363   22.4427 C.3     1  UNL1        0.1352
      9 C          -4.4854  -17.7970   22.3851 C.ar    1  UNL1        0.2794
     10 O          -4.2657  -16.4383   22.9814 O.2     1  UNL1       -0.2653
     11 C          -5.8752  -18.2567   22.0581 C.ar    1  UNL1        0.1359
     12 N          -9.7376  -18.2922   21.6754 N.pl3   1  UNL1       -0.2932
     13 C         -10.6632  -19.1431   22.4935 C.3     1  UNL1        0.0922
     14 C         -12.1412  -18.8895   22.4602 C.3     1  UNL1        0.0228
     15 C         -12.6937  -17.7850   21.6089 C.3     1  UNL1        0.0177
     16 C         -11.7681  -16.9341   20.7908 C.3     1  UNL1        0.0575
     17 C         -11.2993  -15.8663   19.8474 C.3     1  UNL1        0.0173
     18 N         -13.0833  -16.3096   20.4299 N.3     1  UNL1       -0.3219
     19 C         -10.2901  -17.1877   20.8241 C.3     1  UNL1        0.1062
     20 H         -13.8353  -16.7925   20.9214 H       1  UNL1        0.1188
     21 H         -13.2310  -16.3857   19.4235 H       1  UNL1        0.1188
     22 C          -7.4608  -16.2251   22.7676 C.3     1  UNL1        0.1338
     23 C          -9.6523  -16.9090   24.6988 C.3     1  UNL1        0.0308
     24 C          -8.3721  -16.3084   25.1992 C.ar    1  UNL1       -0.0238
     25 C          -8.1876  -16.0498   26.6651 C.ar    1  UNL1       -0.0022
     26 C          -6.9074  -15.4493   27.1655 C.ar    1  UNL1        0.0293
     27 C          -5.8116  -15.1074   26.2000 C.ar    1  UNL1        0.1399
     28 F          -4.5314  -14.5069   26.7003 F       1  UNL1       -0.2042
     29 C          -5.9961  -15.3660   24.7340 C.ar    1  UNL1        0.0269
     30 C          -7.2764  -15.9665   24.2335 C.ar    1  UNL1       -0.0013
@<TRIPOS>BOND
     1    23    24    1
     2    24    25   ar
     3    25    26   ar
     4    26    27   ar
     5    27    28    1
     6    27    29   ar
     7    29    30   ar
     8    30    22    1
     9    22     1    1
    10     1     2   ar
    11     2    12    1
    12    12    13    1
    13    13    14    1
    14    14    15    1
    15    15    16    1
    16    16    17    1
    17    16    18    1
    18    16    19    1
    19     2     3   ar
    20     3     4   ar
    21     4     5   ar
    22     5     6   ar
    23     6     7   ar
    24     7     8    1
    25     7     9   ar
    26     9    10    2
    27     9    11   ar
    28    30    24   ar
    29    11     1   ar
    30    19    12    1
    31    11     4   ar
    32    18    20    1
    33    18    21    1
@<TRIPOS>MOLECULE
*****
 30 33 0 0 0
SMALL
GASTEIGER

@<TRIPOS>ATOM
      1 N          -7.3933  -17.5624   22.1956 N.ar    1  UNL1       -0.3068
      2 C          -8.6310  -18.3361   21.8499 C.ar    1  UNL1        0.1143
      3 C          -8.2080  -19.6690   21.3074 C.ar    1  UNL1        0.0533
      4 C          -6.7088  -19.7191   21.3178 C.ar    1  UNL1        0.1062
      5 N          -5.7372  -20.7821   20.8984 N.ar    1  UNL1       -0.2236
      6 C          -4.2621  -20.5431   21.0279 C.ar    1  UNL1        0.1809
      7 N          -3.7586  -19.2411   21.5768 N.ar    1  UNL1       -0.2750
      8 C          -2.2834  -19.0020   21.7063 C.3     1  UNL1        0.1352
      9 C          -4.7302  -18.1781   21.9962 C.ar    1  UNL1        0.2794
     10 O          -4.2268  -16.8761   22.5451 O.2     1  UNL1       -0.2653
     11 C          -6.2054  -18.4171   21.8667 C.ar    1  UNL1        0.1359
     12 N         -10.0437  -17.8604   22.0173 N.pl3   1  UNL1       -0.2932
     13 C         -10.6149  -16.8552   21.0616 C.3     1  UNL1        0.0922
     14 C         -12.0275  -16.3795   21.2290 C.3     1  UNL1        0.0228
     15 C         -12.8691  -16.9089   22.3521 C.3     1  UNL1        0.0177
     16 C         -12.2980  -17.9141   23.3078 C.3     1  UNL1        0.0575
     17 C         -12.2064  -18.8692   24.4607 C.3     1  UNL1        0.0173
     18 N         -13.6788  -17.7702   23.8757 N.3     1  UNL1       -0.3219
     19 C         -10.8853  -18.3898   23.1404 C.3     1  UNL1        0.1062
     20 H         -14.2076  -17.0994   23.3180 H       1  UNL1        0.1188
     21 H         -13.6177  -17.4386   24.8383 H       1  UNL1        0.1188
     22 C          -7.3510  -16.1771   22.7693 C.3     1  UNL1        0.1338
     23 C          -9.6902  -15.5695   24.5468 C.3     1  UNL1        0.0308
     24 C          -8.3127  -15.6774   25.1306 C.ar    1  UNL1       -0.0238
     25 C          -8.1047  -15.4815   26.6031 C.ar    1  UNL1       -0.0022
     26 C          -6.7273  -15.5893   27.1869 C.ar    1  UNL1        0.0293
     27 C          -5.5576  -15.8931   26.2982 C.ar    1  UNL1        0.1399
     28 F          -4.1801  -16.0010   26.8820 F       1  UNL1       -0.2042
     29 C          -5.7656  -16.0891   24.8257 C.ar    1  UNL1        0.0269
     30 C          -7.1431  -15.9812   24.2418 C.ar    1  UNL1       -0.0013
@<TRIPOS>BOND
     1    23    24    1
     2    24    25   ar
     3    25    26   ar
     4    26    27   ar
     5    27    28    1
     6    27    29   ar
     7    29    30   ar
     8    30    22    1
     9    22     1    1
    10     1     2   ar
    11     2    12    1
    12    12    13    1
    13    13    14    1
    14    14    15    1
    15    15    16    1
    16    16    17    1
    17    16    18    1
    18    16    19    1
    19     2     3   ar
    20     3     4   ar
    21     4     5   ar
    22     5     6   ar
    23     6     7   ar
    24     7     8    1
    25     7     9   ar
    26     9    10    2
    27     9    11   ar
    28    30    24   ar
    29    11     1   ar
    30    19    12    1
    31    11     4   ar
    32    18    20    1
    33    18    21    1
@<TRIPOS>MOLECULE
*****
 30 33 0 0 0
SMALL
GASTEIGER

@<TRIPOS>ATOM
      1 N          -7.9116  -17.8405   21.7186 N.ar    1  UNL1       -0.3068
      2 C          -6.7460  -17.8698   22.6623 C.ar    1  UNL1        0.1143
      3 C          -5.8841  -19.0421   22.2980 C.ar    1  UNL1        0.0533
      4 C          -6.5169  -19.7374   21.1292 C.ar    1  UNL1        0.1062
      5 N          -6.1140  -20.9507   20.3447 N.ar    1  UNL1       -0.2236
      6 C          -6.9642  -21.4214   19.2021 C.ar    1  UNL1        0.1809
      7 N          -8.2173  -20.6787   18.8440 N.ar    1  UNL1       -0.2750
      8 C          -9.0675  -21.1495   17.7013 C.3     1  UNL1        0.1352
      9 C          -8.6202  -19.4654   19.6285 C.ar    1  UNL1        0.2794
     10 O          -9.8733  -18.7227   19.2704 O.2     1  UNL1       -0.2653
     11 C          -7.7700  -18.9947   20.7711 C.ar    1  UNL1        0.1359
     12 N          -6.4878  -16.8975   23.7750 N.pl3   1  UNL1       -0.2932
     13 C          -5.1500  -16.2291   23.8915 C.3     1  UNL1        0.0922
     14 C          -4.8918  -15.2568   25.0041 C.3     1  UNL1        0.0228
     15 C          -5.9713  -14.9529   26.0002 C.3     1  UNL1        0.0177
     16 C          -7.3090  -15.6213   25.8837 C.3     1  UNL1        0.0575
     17 C          -8.7282  -15.9975   26.1907 C.3     1  UNL1        0.0173
     18 N          -7.5437  -14.7797   27.1030 N.3     1  UNL1       -0.3219
     19 C          -7.5672  -16.5936   24.7711 C.3     1  UNL1        0.1062
     20 H          -6.6995  -14.2489   27.3174 H       1  UNL1        0.1188
     21 H          -7.7762  -15.3823   27.8925 H       1  UNL1        0.1188
     22 C          -9.0235  -16.8338   21.7218 C.3     1  UNL1        0.1338
     23 C         -11.4887  -15.9502   20.2581 C.3     1  UNL1        0.0308
     24 C         -11.6119  -16.7736   21.5058 C.ar    1  UNL1       -0.0238
     25 C         -12.9677  -17.1552   22.0217 C.ar    1  UNL1       -0.0022
     26 C         -13.0910  -17.9786   23.2694 C.ar    1  UNL1        0.0293
     27 C         -11.8584  -18.4204   24.0013 C.ar    1  UNL1        0.1399
     28 F         -11.9816  -19.2438   25.2491 F       1  UNL1       -0.2042
     29 C         -10.5026  -18.0388   23.4854 C.ar    1  UNL1        0.0269
     30 C         -10.3793  -17.2153   22.2376 C.ar    1  UNL1       -0.0013
@<TRIPOS>BOND
     1    23    24    1
     2    24    25   ar
     3    25    26   ar
     4    26    27   ar
     5    27    28    1
     6    27    29   ar
     7    29    30   ar
     8    30    22    1
     9    22     1    1
    10     1     2   ar
    11     2    12    1
    12    12    13    1
    13    13    14    1
    14    14    15    1
    15    15    16    1
    16    16    17    1
    17    16    18    1
    18    16    19    1
    19     2     3   ar
    20     3     4   ar
    21     4     5   ar
    22     5     6   ar
    23     6     7   ar
    24     7     8    1
    25     7     9   ar
    26     9    10    2
    27     9    11   ar
    28    30    24   ar
    29    11     1   ar
    30    19    12    1
    31    11     4   ar
    32    18    20    1
    33    18    21    1
@<TRIPOS>MOLECULE
*****
 30 33 0 0 0
SMALL
GASTEIGER

@<TRIPOS>ATOM
      1 N          -6.9545  -18.4671   22.0556 N.ar    1  UNL1       -0.3068
      2 C          -7.5788  -17.2612   22.6929 C.ar    1  UNL1        0.1143
      3 C          -8.8685  -16.9767   21.9818 C.ar    1  UNL1        0.0533
      4 C          -9.0413  -18.0066   20.9051 C.ar    1  UNL1        0.1062
      5 N         -10.1230  -18.2247   19.8891 N.ar    1  UNL1       -0.2236
      6 C         -10.0217  -19.3639   18.9186 C.ar    1  UNL1        0.1809
      7 N          -8.8387  -20.2851   18.9642 N.ar    1  UNL1       -0.2750
      8 C          -8.7374  -21.4243   17.9936 C.3     1  UNL1        0.1352
      9 C          -7.7570  -20.0670   19.9802 C.ar    1  UNL1        0.2794
     10 O          -6.5741  -20.9881   20.0258 O.2     1  UNL1       -0.2653
     11 C          -7.8583  -18.9278   20.9507 C.ar    1  UNL1        0.1359
     12 N          -7.0128  -16.4776   23.8398 N.pl3   1  UNL1       -0.2932
     13 C          -5.7250  -15.7270   23.6723 C.3     1  UNL1        0.0922
     14 C          -5.1589  -14.9433   24.8192 C.3     1  UNL1        0.0228
     15 C          -5.8807  -14.9103   26.1337 C.3     1  UNL1        0.0177
     16 C          -7.1685  -15.6609   26.3013 C.3     1  UNL1        0.0575
     17 C          -8.4094  -16.2049   26.9447 C.3     1  UNL1        0.0173
     18 N          -7.0335  -15.0662   27.6717 N.3     1  UNL1       -0.3219
     19 C          -7.7345  -16.4445   25.1543 C.3     1  UNL1        0.1062
     20 H          -6.1798  -14.5100   27.7184 H       1  UNL1        0.1188
     21 H          -6.9904  -15.8140   28.3641 H       1  UNL1        0.1188
     22 C          -5.6545  -19.1010   22.4533 C.3     1  UNL1        0.1338
     23 C          -3.4440  -17.9912   24.1510 C.3     1  UNL1        0.0308
     24 C          -3.2686  -18.0946   22.6649 C.ar    1  UNL1       -0.0238
     25 C          -1.9880  -17.6431   22.0276 C.ar    1  UNL1       -0.0022
     26 C          -1.8126  -17.7464   20.5415 C.ar    1  UNL1        0.0293
     27 C          -2.9179  -18.3013   19.6926 C.ar    1  UNL1        0.1399
     28 F          -2.7425  -18.4047   18.2065 F       1  UNL1       -0.2042
     29 C          -4.1985  -18.7528   20.3299 C.ar    1  UNL1        0.0269
     30 C          -4.3739  -18.6495   21.8161 C.ar    1  UNL1       -0.0013
@<TRIPOS>BOND
     1    23    24    1
     2    24    25   ar
     3    25    26   ar
     4    26    27   ar
     5    27    28    1
     6    27    29   ar
     7    29    30   ar
     8    30    22    1
     9    22     1    1
    10     1     2   ar
    11     2    12    1
    12    12    13    1
    13    13    14    1
    14    14    15    1
    15    15    16    1
    16    16    17    1
    17    16    18    1
    18    16    19    1
    19     2     3   ar
    20     3     4   ar
    21     4     5   ar
    22     5     6   ar
    23     6     7   ar
    24     7     8    1
    25     7     9   ar
    26     9    10    2
    27     9    11   ar
    28    30    24   ar
    29    11     1   ar
    30    19    12    1
    31    11     4   ar
    32    18    20    1
    33    18    21    1
@<TRIPOS>MOLECULE
*****
 30 33 0 0 0
SMALL
GASTEIGER

@<TRIPOS>ATOM
      1 N          -7.8366  -17.4126   22.1069 N.ar    1  UNL1       -0.3068
      2 C          -6.8271  -18.4920   21.8504 C.ar    1  UNL1        0.1143
      3 C          -7.5554  -19.6912   21.3199 C.ar    1  UNL1        0.0533
      4 C          -9.0150  -19.3530   21.2484 C.ar    1  UNL1        0.1062
      5 N         -10.2083  -20.1454   20.8033 N.ar    1  UNL1       -0.2236
      6 C         -11.5754  -19.5295   20.8446 C.ar    1  UNL1        0.1809
      7 N         -11.7492  -18.1213   21.3311 N.ar    1  UNL1       -0.2750
      8 C         -13.1164  -17.5054   21.3724 C.3     1  UNL1        0.1352
      9 C         -10.5559  -17.3289   21.7762 C.ar    1  UNL1        0.2794
     10 O         -10.7298  -15.9206   22.2626 O.2     1  UNL1       -0.2653
     11 C          -9.1889  -17.9447   21.7349 C.ar    1  UNL1        0.1359
     12 N          -5.3488  -18.3901   22.0836 N.pl3   1  UNL1       -0.2932
     13 C          -4.8292  -17.9331   23.4144 C.3     1  UNL1        0.0922
     14 C          -3.3510  -17.8311   23.6475 C.3     1  UNL1        0.0228
     15 C          -2.3923  -18.1862   22.5499 C.3     1  UNL1        0.0177
     16 C          -2.9120  -18.6432   21.2191 C.3     1  UNL1        0.0575
     17 C          -2.9191  -19.1226   19.7978 C.3     1  UNL1        0.0173
     18 N          -1.4362  -18.7078   20.9585 N.3     1  UNL1       -0.3219
     19 C          -4.3902  -18.7451   20.9859 C.3     1  UNL1        0.1062
     20 H          -0.9302  -18.4176   21.7953 H       1  UNL1        0.1188
     21 H          -1.1999  -18.0858   20.1855 H       1  UNL1        0.1188
     22 C          -7.5452  -16.0418   22.6416 C.3     1  UNL1        0.1338
     23 C          -9.4723  -16.9878   24.7372 C.3     1  UNL1        0.0308
     24 C          -8.1871  -16.3293   25.1426 C.ar    1  UNL1       -0.0238
     25 C          -7.8654  -16.1437   26.5959 C.ar    1  UNL1       -0.0022
     26 C          -6.5802  -15.4852   27.0015 C.ar    1  UNL1        0.0293
     27 C          -5.6166  -15.0121   25.9537 C.ar    1  UNL1        0.1399
     28 F          -4.3313  -14.3536   26.3592 F       1  UNL1       -0.2042
     29 C          -5.9383  -15.1977   24.5004 C.ar    1  UNL1        0.0269
     30 C          -7.2236  -15.8563   24.0948 C.ar    1  UNL1       -0.0013
@<TRIPOS>BOND
     1    23    24    1
     2    24    25   ar
     3    25    26   ar
     4    26    27   ar
     5    27    28    1
     6    27    29   ar
     7    29    30   ar
     8    30    22    1
     9    22     1    1
    10     1     2   ar
    11     2    12    1
    12    12    13    1
    13    13    14    1
    14    14    15    1
    15    15    16    1
    16    16    17    1
    17    16    18    1
    18    16    19    1
    19     2     3   ar
    20     3     4   ar
    21     4     5   ar
    22     5     6   ar
    23     6     7   ar
    24     7     8    1
    25     7     9   ar
    26     9    10    2
    27     9    11   ar
    28    30    24   ar
    29    11     1   ar
    30    19    12    1
    31    11     4   ar
    32    18    20    1
    33    18    21    1
@<TRIPOS>MOLECULE
*****
 30 33 0 0 0
SMALL
GASTEIGER

@<TRIPOS>ATOM
      1 N          -6.1613  -18.1972   22.3873 N.ar    1  UNL1       -0.3068
      2 C          -6.9433  -19.4335   22.0558 C.ar    1  UNL1        0.1143
      3 C          -6.0058  -20.4195   21.4242 C.ar    1  UNL1        0.0533
      4 C          -4.6444  -19.7925   21.3653 C.ar    1  UNL1        0.1062
      5 N          -3.3297  -20.2947   20.8465 N.ar    1  UNL1       -0.2236
      6 C          -2.1110  -19.4236   20.9231 C.ar    1  UNL1        0.1809
      7 N          -2.2071  -18.0501   21.5183 N.ar    1  UNL1       -0.2750
      8 C          -0.9884  -17.1789   21.5948 C.3     1  UNL1        0.1352
      9 C          -3.5219  -17.5478   22.0371 C.ar    1  UNL1        0.2794
     10 O          -3.6180  -16.1743   22.6323 O.2     1  UNL1       -0.2653
     11 C          -4.7405  -18.4190   21.9605 C.ar    1  UNL1        0.1359
     12 N          -8.4060  -19.6465   22.3112 N.pl3   1  UNL1       -0.2932
     13 C          -8.8640  -20.2097   23.6238 C.3     1  UNL1        0.0922
     14 C         -10.3267  -20.4227   23.8791 C.3     1  UNL1        0.0228
     15 C         -11.3314  -20.0725   22.8218 C.3     1  UNL1        0.0177
     16 C         -10.8734  -19.5093   21.5092 C.3     1  UNL1        0.0575
     17 C         -10.9302  -18.9529   20.1174 C.3     1  UNL1        0.0173
     18 N         -12.3558  -19.5291   21.2811 N.3     1  UNL1       -0.3219
     19 C          -9.4107  -19.2963   21.2539 C.3     1  UNL1        0.1062
     20 H         -12.8224  -19.8980   22.1097 H       1  UNL1        0.1188
     21 H         -12.5685  -20.1219   20.4788 H       1  UNL1        0.1188
     22 C          -6.7047  -16.9567   23.0323 C.3     1  UNL1        0.1338
     23 C          -8.6097  -17.1320   25.3433 C.3     1  UNL1        0.0308
     24 C          -9.0982  -16.6719   24.0018 C.ar    1  UNL1       -0.0238
     25 C         -10.5392  -16.2994   23.8158 C.ar    1  UNL1       -0.0022
     26 C         -11.0278  -15.8392   22.4744 C.ar    1  UNL1        0.0293
     27 C         -10.0754  -15.7516   21.3188 C.ar    1  UNL1        0.1399
     28 F         -10.5639  -15.2914   19.9774 F       1  UNL1       -0.2042
     29 C          -8.6343  -16.1241   21.5049 C.ar    1  UNL1        0.0269
     30 C          -8.1457  -16.5843   22.8464 C.ar    1  UNL1       -0.0013
@<TRIPOS>BOND
     1    23    24    1
     2    24    25   ar
     3    25    26   ar
     4    26    27   ar
     5    27    28    1
     6    27    29   ar
     7    29    30   ar
     8    30    22    1
     9    22     1    1
    10     1     2   ar
    11     2    12    1
    12    12    13    1
    13    13    14    1
    14    14    15    1
    15    15    16    1
    16    16    17    1
    17    16    18    1
    18    16    19    1
    19     2     3   ar
    20     3     4   ar
    21     4     5   ar
    22     5     6   ar
    23     6     7   ar
    24     7     8    1
    25     7     9   ar
    26     9    10    2
    27     9    11   ar
    28    30    24   ar
    29    11     1   ar
    30    19    12    1
    31    11     4   ar
    32    18    20    1
    33    18    21    1
@<TRIPOS>MOLECULE
*****
 30 33 0 0 0
SMALL
GASTEIGER

@<TRIPOS>ATOM
      1 N          -7.5430  -17.9273   22.7045 N.ar    1  UNL1       -0.3068
      2 C          -8.5142  -16.8071   22.9325 C.ar    1  UNL1        0.1143
      3 C          -7.7289  -15.5738   23.2674 C.ar    1  UNL1        0.0533
      4 C          -6.2723  -15.9317   23.2463 C.ar    1  UNL1        0.1062
      5 N          -5.0359  -15.1210   23.4989 N.ar    1  UNL1       -0.2236
      6 C          -3.6845  -15.7649   23.4037 C.ar    1  UNL1        0.1809
      7 N          -3.5696  -17.2195   23.0558 N.ar    1  UNL1       -0.2750
      8 C          -2.2181  -17.8634   22.9606 C.3     1  UNL1        0.1352
      9 C          -4.8061  -18.0302   22.8032 C.ar    1  UNL1        0.2794
     10 O          -4.6912  -19.4847   22.4553 O.2     1  UNL1       -0.2653
     11 C          -6.1575  -17.3862   22.8984 C.ar    1  UNL1        0.1359
     12 N         -10.0083  -16.9034   22.8416 N.pl3   1  UNL1       -0.2932
     13 C         -10.7500  -16.1054   21.8106 C.3     1  UNL1        0.0922
     14 C         -12.2441  -16.2017   21.7197 C.3     1  UNL1        0.0228
     15 C         -12.9966  -17.0959   22.6599 C.3     1  UNL1        0.0177
     16 C         -12.2550  -17.8940   23.6909 C.3     1  UNL1        0.0575
     17 C         -12.0017  -18.8395   24.8275 C.3     1  UNL1        0.0173
     18 N         -13.6611  -18.3186   23.9948 N.3     1  UNL1       -0.3219
     19 C         -10.7608  -17.7977   23.7818 C.3     1  UNL1        0.1062
     20 H         -14.3038  -17.8474   23.3582 H       1  UNL1        0.1188
     21 H         -13.8913  -18.0690   24.9567 H       1  UNL1        0.1188
     22 C          -7.8954  -19.3404   22.3455 C.3     1  UNL1        0.1338
     23 C          -6.1267  -20.8445   20.4456 C.3     1  UNL1        0.0308
     24 C          -7.4981  -20.4163   20.0143 C.ar    1  UNL1       -0.0238
     25 C          -7.9851  -20.7401   18.6331 C.ar    1  UNL1       -0.0022
     26 C          -9.3564  -20.3120   18.2017 C.ar    1  UNL1        0.0293
     27 C         -10.2408  -19.5600   19.1517 C.ar    1  UNL1        0.1399
     28 F         -11.6122  -19.1318   18.7204 F       1  UNL1       -0.2042
     29 C          -9.7538  -19.2361   20.5329 C.ar    1  UNL1        0.0269
     30 C          -8.3824  -19.6643   20.9643 C.ar    1  UNL1       -0.0013
@<TRIPOS>BOND
     1    23    24    1
     2    24    25   ar
     3    25    26   ar
     4    26    27   ar
     5    27    28    1
     6    27    29   ar
     7    29    30   ar
     8    30    22    1
     9    22     1    1
    10     1     2   ar
    11     2    12    1
    12    12    13    1
    13    13    14    1
    14    14    15    1
    15    15    16    1
    16    16    17    1
    17    16    18    1
    18    16    19    1
    19     2     3   ar
    20     3     4   ar
    21     4     5   ar
    22     5     6   ar
    23     6     7   ar
    24     7     8    1
    25     7     9   ar
    26     9    10    2
    27     9    11   ar
    28    30    24   ar
    29    11     1   ar
    30    19    12    1
    31    11     4   ar
    32    18    20    1
    33    18    21    1
