@<TRIPOS>MOLECULE
*****
 22 23 0 0 0
SMALL
GASTEIGER

@<TRIPOS>ATOM
      1 N          -6.3121  -16.8282   23.1515 N.pl3   1  UNL1       -0.3568
      2 C          -7.7687  -17.1243   22.9502 C.ar    1  UNL1        0.0451
      3 C          -8.7955  -16.4658   23.8231 C.ar    1  UNL1        0.0477
      4 BR         -8.3657  -15.5111   24.8973 Br      1  UNL1       -0.0477
      5 C         -10.2522  -16.7618   23.6219 C.ar    1  UNL1        0.0146
      6 C         -10.6820  -17.7165   22.5477 C.ar    1  UNL1        0.0349
      7 BR        -12.1387  -18.0125   22.3464 Br      1  UNL1       -0.0490
      8 C          -9.6553  -18.3750   21.6748 C.ar    1  UNL1        0.0050
      9 C          -8.1986  -18.0789   21.8761 C.ar    1  UNL1        0.0075
     10 H          -6.0299  -16.2016   23.8565 H       1  UNL1        0.1424
     11 H          -5.6382  -17.2605   22.5786 H       1  UNL1        0.1424
     12 C          -7.1718  -18.7375   21.0031 C.3     1  UNL1        0.0968
     13 N          -6.0694  -19.5458   21.6208 N.3     1  UNL1       -0.2948
     14 H          -6.2929  -20.5265   21.4514 H       1  UNL1        0.1235
     15 C          -4.6511  -19.3420   21.1774 C.3     1  UNL1        0.0544
     16 C          -3.5340  -19.4256   22.1750 C.3     1  UNL1        0.0182
     17 C          -2.1156  -19.2219   21.7315 C.3     1  UNL1        0.0306
     18 C          -1.8142  -18.9344   20.2905 C.3     1  UNL1        0.1106
     19 O          -0.3959  -18.7307   19.8471 O.3     1  UNL1       -0.3845
     20 C          -2.9313  -18.8508   19.2929 C.3     1  UNL1        0.0306
     21 C          -4.3497  -19.0545   19.7363 C.3     1  UNL1        0.0182
     22 H           0.1970  -18.8174   20.6100 H       1  UNL1        0.2103
@<TRIPOS>BOND
     1     1     2    1
     2     2     3   ar
     3     3     4    1
     4     3     5   ar
     5     5     6   ar
     6     6     7    1
     7     6     8   ar
     8     8     9   ar
     9     9    12    1
    10    12    13    1
    11    15    13    1
    12    15    16    1
    13    16    17    1
    14    17    18    1
    15    18    19    1
    16    18    20    1
    17    20    21    1
    18     9     2   ar
    19    21    15    1
    20     1    10    1
    21     1    11    1
    22    13    14    1
    23    19    22    1
@<TRIPOS>MOLECULE
*****
 22 23 0 0 0
SMALL
GASTEIGER

@<TRIPOS>ATOM
      1 N         -10.3391  -17.6153   19.6389 N.pl3   1  UNL1       -0.3568
      2 C         -10.2451  -18.3186   20.9604 C.ar    1  UNL1        0.0451
      3 C         -11.4090  -18.2965   21.9063 C.ar    1  UNL1        0.0477
      4 BR        -12.6670  -17.5710   21.5306 Br      1  UNL1       -0.0477
      5 C         -11.3150  -18.9999   23.2278 C.ar    1  UNL1        0.0146
      6 C         -10.0571  -19.7254   23.6035 C.ar    1  UNL1        0.0349
      7 BR         -9.9631  -20.4288   24.9250 Br      1  UNL1       -0.0490
      8 C          -8.8932  -19.7476   22.6576 C.ar    1  UNL1        0.0050
      9 C          -8.9871  -19.0442   21.3361 C.ar    1  UNL1        0.0075
     10 H         -11.1647  -17.1391   19.3923 H       1  UNL1        0.1424
     11 H          -9.5751  -17.6298   19.0181 H       1  UNL1        0.1424
     12 C          -7.8231  -19.0663   20.3902 C.3     1  UNL1        0.0968
     13 N          -6.7719  -20.1286   20.5194 N.3     1  UNL1       -0.2948
     14 H          -6.6810  -20.5659   19.6024 H       1  UNL1        0.1235
     15 C          -5.3868  -19.7629   20.9640 C.3     1  UNL1        0.0544
     16 C          -5.1862  -18.9910   22.2344 C.3     1  UNL1        0.0182
     17 C          -3.8010  -18.6253   22.6790 C.3     1  UNL1        0.0306
     18 C          -2.6165  -19.0315   21.8532 C.3     1  UNL1        0.1106
     19 O          -1.2314  -18.6658   22.2978 O.3     1  UNL1       -0.3845
     20 C          -2.8171  -19.8033   20.5828 C.3     1  UNL1        0.0306
     21 C          -4.2022  -20.1690   20.1382 C.3     1  UNL1        0.0182
     22 H          -1.2792  -18.1723   23.1315 H       1  UNL1        0.2103
@<TRIPOS>BOND
     1     1     2    1
     2     2     3   ar
     3     3     4    1
     4     3     5   ar
     5     5     6   ar
     6     6     7    1
     7     6     8   ar
     8     8     9   ar
     9     9    12    1
    10    12    13    1
    11    15    13    1
    12    15    16    1
    13    16    17    1
    14    17    18    1
    15    18    19    1
    16    18    20    1
    17    20    21    1
    18     9     2   ar
    19    21    15    1
    20     1    10    1
    21     1    11    1
    22    13    14    1
    23    19    22    1
@<TRIPOS>MOLECULE
*****
 22 23 0 0 0
SMALL
GASTEIGER

@<TRIPOS>ATOM
      1 N         -10.8090  -19.5686   24.3936 N.pl3   1  UNL1       -0.3568
      2 C         -11.0061  -18.6658   23.2120 C.ar    1  UNL1        0.0451
      3 C         -12.3038  -17.9347   23.0350 C.ar    1  UNL1        0.0477
      4 BR        -13.4045  -18.1064   24.0395 Br      1  UNL1       -0.0477
      5 C         -12.5008  -17.0319   21.8534 C.ar    1  UNL1        0.0146
      6 C         -11.4002  -16.8602   20.8489 C.ar    1  UNL1        0.0349
      7 BR        -11.5973  -15.9574   19.6673 Br      1  UNL1       -0.0490
      8 C         -10.1025  -17.5913   21.0259 C.ar    1  UNL1        0.0050
      9 C          -9.9054  -18.4941   22.2075 C.ar    1  UNL1        0.0075
     10 H         -11.5314  -19.6813   25.0529 H       1  UNL1        0.1424
     11 H          -9.9573  -20.0485   24.5098 H       1  UNL1        0.1424
     12 C          -8.6076  -19.2253   22.3845 C.3     1  UNL1        0.0968
     13 N          -7.8535  -19.7160   21.1843 N.3     1  UNL1       -0.2948
     14 H          -8.1009  -19.1007   20.4094 H       1  UNL1        0.1235
     15 C          -6.3557  -19.7893   21.2181 C.3     1  UNL1        0.0544
     16 C          -5.5939  -19.0747   22.2946 C.3     1  UNL1        0.0182
     17 C          -4.0960  -19.1480   22.3283 C.3     1  UNL1        0.0306
     18 C          -3.3601  -19.9359   21.2855 C.3     1  UNL1        0.1106
     19 O          -1.8623  -20.0092   21.3192 O.3     1  UNL1       -0.3845
     20 C          -4.1219  -20.6505   20.2089 C.3     1  UNL1        0.0306
     21 C          -5.6197  -20.5772   20.1752 C.3     1  UNL1        0.0182
     22 H          -1.5303  -19.4961   22.0725 H       1  UNL1        0.2103
@<TRIPOS>BOND
     1     1     2    1
     2     2     3   ar
     3     3     4    1
     4     3     5   ar
     5     5     6   ar
     6     6     7    1
     7     6     8   ar
     8     8     9   ar
     9     9    12    1
    10    12    13    1
    11    15    13    1
    12    15    16    1
    13    16    17    1
    14    17    18    1
    15    18    19    1
    16    18    20    1
    17    20    21    1
    18     9     2   ar
    19    21    15    1
    20     1    10    1
    21     1    11    1
    22    13    14    1
    23    19    22    1
@<TRIPOS>MOLECULE
*****
 22 23 0 0 0
SMALL
GASTEIGER

@<TRIPOS>ATOM
      1 N          -7.4263  -18.9627   19.6257 N.pl3   1  UNL1       -0.3568
      2 C          -8.3270  -19.0156   20.8240 C.ar    1  UNL1        0.0451
      3 C          -9.7904  -19.2957   20.6504 C.ar    1  UNL1        0.0477
      4 BR        -10.3530  -19.5228   19.2786 Br      1  UNL1       -0.0477
      5 C         -10.6912  -19.3486   21.8487 C.ar    1  UNL1        0.0146
      6 C         -10.1286  -19.1215   23.2205 C.ar    1  UNL1        0.0349
      7 BR        -11.0294  -19.1744   24.4187 Br      1  UNL1       -0.0490
      8 C          -8.6653  -18.8414   23.3940 C.ar    1  UNL1        0.0050
      9 C          -7.7645  -18.7885   22.1958 C.ar    1  UNL1        0.0075
     10 H          -7.7955  -19.1118   18.7254 H       1  UNL1        0.1424
     11 H          -6.4658  -18.7789   19.7397 H       1  UNL1        0.1424
     12 C          -6.3011  -18.5084   22.3694 C.3     1  UNL1        0.0968
     13 N          -5.2877  -19.5405   21.9722 N.3     1  UNL1       -0.2948
     14 H          -5.7685  -20.2088   21.3701 H       1  UNL1        0.1235
     15 C          -4.0395  -19.1271   21.2503 C.3     1  UNL1        0.0544
     16 C          -3.9846  -19.1872   19.7525 C.3     1  UNL1        0.0182
     17 C          -2.7363  -18.7738   19.0306 C.3     1  UNL1        0.0306
     18 C          -1.5431  -18.3004   19.8065 C.3     1  UNL1        0.1106
     19 O          -0.2950  -17.8871   19.0846 O.3     1  UNL1       -0.3845
     20 C          -1.5980  -18.2403   21.3043 C.3     1  UNL1        0.0306
     21 C          -2.8462  -18.6537   22.0262 C.3     1  UNL1        0.0182
     22 H          -0.4266  -17.9858   18.1286 H       1  UNL1        0.2103
@<TRIPOS>BOND
     1     1     2    1
     2     2     3   ar
     3     3     4    1
     4     3     5   ar
     5     5     6   ar
     6     6     7    1
     7     6     8   ar
     8     8     9   ar
     9     9    12    1
    10    12    13    1
    11    15    13    1
    12    15    16    1
    13    16    17    1
    14    17    18    1
    15    18    19    1
    16    18    20    1
    17    20    21    1
    18     9     2   ar
    19    21    15    1
    20     1    10    1
    21     1    11    1
    22    13    14    1
    23    19    22    1
@<TRIPOS>MOLECULE
*****
 22 23 0 0 0
SMALL
GASTEIGER

@<TRIPOS>ATOM
      1 N         -10.1385  -18.5869   19.8025 N.pl3   1  UNL1       -0.3568
      2 C          -9.8131  -17.9047   21.0982 C.ar    1  UNL1        0.0451
      3 C         -10.8387  -17.0391   21.7682 C.ar    1  UNL1        0.0477
      4 BR        -12.1896  -16.8556   21.1425 Br      1  UNL1       -0.0477
      5 C         -10.5133  -16.3569   23.0638 C.ar    1  UNL1        0.0146
      6 C          -9.1625  -16.5402   23.6895 C.ar    1  UNL1        0.0349
      7 BR         -8.8371  -15.8580   24.9852 Br      1  UNL1       -0.0490
      8 C          -8.1369  -17.4058   23.0195 C.ar    1  UNL1        0.0050
      9 C          -8.4623  -18.0881   21.7238 C.ar    1  UNL1        0.0075
     10 H         -11.0251  -18.4665   19.3919 H       1  UNL1        0.1424
     11 H          -9.4654  -19.1550   19.3627 H       1  UNL1        0.1424
     12 C          -7.4366  -18.9537   21.0538 C.3     1  UNL1        0.0968
     13 N          -6.4075  -19.6707   21.8764 N.3     1  UNL1       -0.2948
     14 H          -6.4975  -20.6635   21.6607 H       1  UNL1        0.1235
     15 C          -4.9553  -19.3253   21.7282 C.3     1  UNL1        0.0544
     16 C          -4.2743  -18.4852   22.7676 C.3     1  UNL1        0.0182
     17 C          -2.8221  -18.1399   22.6194 C.3     1  UNL1        0.0306
     18 C          -2.0510  -18.6347   21.4317 C.3     1  UNL1        0.1106
     19 O          -0.5989  -18.2894   21.2835 O.3     1  UNL1       -0.3845
     20 C          -2.7320  -19.4748   20.3922 C.3     1  UNL1        0.0306
     21 C          -4.1842  -19.8201   20.5405 C.3     1  UNL1        0.0182
     22 H          -0.3175  -17.7451   22.0355 H       1  UNL1        0.2103
@<TRIPOS>BOND
     1     1     2    1
     2     2     3   ar
     3     3     4    1
     4     3     5   ar
     5     5     6   ar
     6     6     7    1
     7     6     8   ar
     8     8     9   ar
     9     9    12    1
    10    12    13    1
    11    15    13    1
    12    15    16    1
    13    16    17    1
    14    17    18    1
    15    18    19    1
    16    18    20    1
    17    20    21    1
    18     9     2   ar
    19    21    15    1
    20     1    10    1
    21     1    11    1
    22    13    14    1
    23    19    22    1
@<TRIPOS>MOLECULE
*****
 22 23 0 0 0
SMALL
GASTEIGER

@<TRIPOS>ATOM
      1 N          -9.5932  -15.1600   20.9089 N.pl3   1  UNL1       -0.3568
      2 C          -9.8090  -16.3222   21.8324 C.ar    1  UNL1        0.0451
      3 C         -11.1377  -17.0175   21.8649 C.ar    1  UNL1        0.0477
      4 BR        -12.2505  -16.5508   20.9739 Br      1  UNL1       -0.0477
      5 C         -11.3536  -18.1797   22.7883 C.ar    1  UNL1        0.0146
      6 C         -10.2408  -18.6465   23.6793 C.ar    1  UNL1        0.0349
      7 BR        -10.4567  -19.8087   24.6027 Br      1  UNL1       -0.0490
      8 C          -8.9122  -17.9511   23.6468 C.ar    1  UNL1        0.0050
      9 C          -8.6963  -16.7889   22.7233 C.ar    1  UNL1        0.0075
     10 H         -10.3235  -14.8536   20.3241 H       1  UNL1        0.1424
     11 H          -8.7211  -14.7036   20.8876 H       1  UNL1        0.1424
     12 C          -7.3676  -16.0935   22.6909 C.3     1  UNL1        0.0968
     13 N          -6.2504  -16.5693   23.5716 N.3     1  UNL1       -0.2948
     14 H          -6.6815  -17.0625   24.3535 H       1  UNL1        0.1235
     15 C          -5.1929  -17.4771   23.0171 C.3     1  UNL1        0.0544
     16 C          -5.5849  -18.7324   22.2956 C.3     1  UNL1        0.0182
     17 C          -4.5273  -19.6402   21.7411 C.3     1  UNL1        0.0306
     18 C          -3.0777  -19.2927   21.9082 C.3     1  UNL1        0.1106
     19 O          -2.0202  -20.2005   21.3537 O.3     1  UNL1       -0.3845
     20 C          -2.6857  -18.0375   22.6297 C.3     1  UNL1        0.0306
     21 C          -3.7432  -17.1297   23.1842 C.3     1  UNL1        0.0182
     22 H          -2.4405  -20.9604   20.9214 H       1  UNL1        0.2103
@<TRIPOS>BOND
     1     1     2    1
     2     2     3   ar
     3     3     4    1
     4     3     5   ar
     5     5     6   ar
     6     6     7    1
     7     6     8   ar
     8     8     9   ar
     9     9    12    1
    10    12    13    1
    11    15    13    1
    12    15    16    1
    13    16    17    1
    14    17    18    1
    15    18    19    1
    16    18    20    1
    17    20    21    1
    18     9     2   ar
    19    21    15    1
    20     1    10    1
    21     1    11    1
    22    13    14    1
    23    19    22    1
@<TRIPOS>MOLECULE
*****
 22 23 0 0 0
SMALL
GASTEIGER

@<TRIPOS>ATOM
      1 N          -9.1392  -16.0405   23.3378 N.pl3   1  UNL1       -0.3568
      2 C          -9.3853  -17.0272   22.2351 C.ar    1  UNL1        0.0451
      3 C         -10.7340  -17.1022   21.5829 C.ar    1  UNL1        0.0477
      4 BR        -11.8367  -16.1904   22.0334 Br      1  UNL1       -0.0477
      5 C         -10.9801  -18.0889   20.4803 C.ar    1  UNL1        0.0146
      6 C          -9.8776  -19.0007   20.0298 C.ar    1  UNL1        0.0349
      7 BR        -10.1237  -19.9874   18.9272 Br      1  UNL1       -0.0490
      8 C          -8.5289  -18.9257   20.6820 C.ar    1  UNL1        0.0050
      9 C          -8.2828  -17.9390   21.7847 C.ar    1  UNL1        0.0075
     10 H          -9.8629  -15.4421   23.6334 H       1  UNL1        0.1424
     11 H          -8.2540  -15.9913   23.7658 H       1  UNL1        0.1424
     12 C          -6.9340  -17.8641   22.4369 C.3     1  UNL1        0.0968
     13 N          -6.0367  -19.0661   22.4443 N.3     1  UNL1       -0.2948
     14 H          -6.5505  -19.8199   21.9879 H       1  UNL1        0.1235
     15 C          -4.6897  -19.0006   21.7877 C.3     1  UNL1        0.0544
     16 C          -4.5604  -19.2527   20.3147 C.3     1  UNL1        0.0182
     17 C          -3.2133  -19.1872   19.6580 C.3     1  UNL1        0.0306
     18 C          -1.9956  -18.8696   20.4744 C.3     1  UNL1        0.1106
     19 O          -0.6486  -18.8041   19.8177 O.3     1  UNL1       -0.3845
     20 C          -2.1250  -18.6175   21.9474 C.3     1  UNL1        0.0306
     21 C          -3.4720  -18.6830   22.6040 C.3     1  UNL1        0.0182
     22 H          -0.7414  -18.9905   18.8703 H       1  UNL1        0.2103
@<TRIPOS>BOND
     1     1     2    1
     2     2     3   ar
     3     3     4    1
     4     3     5   ar
     5     5     6   ar
     6     6     7    1
     7     6     8   ar
     8     8     9   ar
     9     9    12    1
    10    12    13    1
    11    15    13    1
    12    15    16    1
    13    16    17    1
    14    17    18    1
    15    18    19    1
    16    18    20    1
    17    20    21    1
    18     9     2   ar
    19    21    15    1
    20     1    10    1
    21     1    11    1
    22    13    14    1
    23    19    22    1
@<TRIPOS>MOLECULE
*****
 22 23 0 0 0
SMALL
GASTEIGER

@<TRIPOS>ATOM
      1 N         -10.9456  -18.9086   24.7256 N.pl3   1  UNL1       -0.3568
      2 C         -11.1798  -18.1697   23.4414 C.ar    1  UNL1        0.0451
      3 C         -12.5647  -17.7271   23.0726 C.ar    1  UNL1        0.0477
      4 BR        -13.7155  -18.0235   23.9880 Br      1  UNL1       -0.0477
      5 C         -12.7990  -16.9882   21.7884 C.ar    1  UNL1        0.0146
      6 C         -11.6483  -16.6919   20.8730 C.ar    1  UNL1        0.0349
      7 BR        -11.8825  -15.9529   19.5888 Br      1  UNL1       -0.0490
      8 C         -10.2633  -17.1344   21.2418 C.ar    1  UNL1        0.0050
      9 C         -10.0291  -17.8733   22.5260 C.ar    1  UNL1        0.0075
     10 H         -11.7008  -19.1031   25.3264 H       1  UNL1        0.1424
     11 H         -10.0365  -19.1990   24.9676 H       1  UNL1        0.1424
     12 C          -8.6441  -18.3158   22.8948 C.3     1  UNL1        0.0968
     13 N          -7.5279  -17.3155   22.9537 N.3     1  UNL1       -0.2948
     14 H          -7.6967  -16.6416   22.2069 H       1  UNL1        0.1235
     15 C          -7.2954  -16.5241   24.2066 C.3     1  UNL1        0.0544
     16 C          -5.9318  -15.9748   24.5045 C.3     1  UNL1        0.0182
     17 C          -5.6993  -15.1834   25.7575 C.3     1  UNL1        0.0306
     18 C          -6.8305  -14.9414   26.7124 C.3     1  UNL1        0.1106
     19 O          -6.5980  -14.1501   27.9652 O.3     1  UNL1       -0.3845
     20 C          -8.1941  -15.4907   26.4144 C.3     1  UNL1        0.0306
     21 C          -8.4266  -16.2821   25.1616 C.3     1  UNL1        0.0182
     22 H          -5.6697  -13.8713   28.0040 H       1  UNL1        0.2103
@<TRIPOS>BOND
     1     1     2    1
     2     2     3   ar
     3     3     4    1
     4     3     5   ar
     5     5     6   ar
     6     6     7    1
     7     6     8   ar
     8     8     9   ar
     9     9    12    1
    10    12    13    1
    11    15    13    1
    12    15    16    1
    13    16    17    1
    14    17    18    1
    15    18    19    1
    16    18    20    1
    17    20    21    1
    18     9     2   ar
    19    21    15    1
    20     1    10    1
    21     1    11    1
    22    13    14    1
    23    19    22    1
@<TRIPOS>MOLECULE
*****
 22 23 0 0 0
SMALL
GASTEIGER

@<TRIPOS>ATOM
      1 N          -7.8713  -16.6425   23.5950 N.pl3   1  UNL1       -0.3568
      2 C          -6.6296  -17.3540   23.1454 C.ar    1  UNL1        0.0451
      3 C          -5.2800  -16.7912   23.4795 C.ar    1  UNL1        0.0477
      4 BR         -5.1720  -15.5167   24.2633 Br      1  UNL1       -0.0477
      5 C          -4.0384  -17.5026   23.0299 C.ar    1  UNL1        0.0146
      6 C          -4.1464  -18.7770   22.2462 C.ar    1  UNL1        0.0349
      7 BR         -2.9047  -19.4885   21.7966 Br      1  UNL1       -0.0490
      8 C          -5.4960  -19.3399   21.9120 C.ar    1  UNL1        0.0050
      9 C          -6.7376  -18.6284   22.3616 C.ar    1  UNL1        0.0075
     10 H          -7.8004  -15.8061   24.1094 H       1  UNL1        0.1424
     11 H          -8.7571  -17.0120   23.3756 H       1  UNL1        0.1424
     12 C          -8.0873  -19.1913   22.0274 C.3     1  UNL1        0.0968
     13 N          -9.1830  -18.2824   21.5550 N.3     1  UNL1       -0.2948
     14 H          -9.4029  -18.5589   20.5981 H       1  UNL1        0.1235
     15 C         -10.4840  -18.2261   22.2993 C.3     1  UNL1        0.0544
     16 C         -11.6872  -17.5984   21.6602 C.3     1  UNL1        0.0182
     17 C         -12.9882  -17.5422   22.4047 C.3     1  UNL1        0.0306
     18 C         -13.0861  -18.1136   23.7881 C.3     1  UNL1        0.1106
     19 O         -14.3872  -18.0574   24.5324 O.3     1  UNL1       -0.3845
     20 C         -11.8829  -18.7413   24.4271 C.3     1  UNL1        0.0306
     21 C         -10.5819  -18.7976   23.6828 C.3     1  UNL1        0.0182
     22 H         -15.0567  -17.6232   23.9809 H       1  UNL1        0.2103
@<TRIPOS>BOND
     1     1     2    1
     2     2     3   ar
     3     3     4    1
     4     3     5   ar
     5     5     6   ar
     6     6     7    1
     7     6     8   ar
     8     8     9   ar
     9     9    12    1
    10    12    13    1
    11    15    13    1
    12    15    16    1
    13    16    17    1
    14    17    18    1
    15    18    19    1
    16    18    20    1
    17    20    21    1
    18     9     2   ar
    19    21    15    1
    20     1    10    1
    21     1    11    1
    22    13    14    1
    23    19    22    1
