@<TRIPOS>MOLECULE
*****
 28 31 0 0 0
SMALL
GASTEIGER

@<TRIPOS>ATOM
      1 C           6.7512   -4.3130   23.6879 C.ar    1  UNL1        0.1917
      2 N           7.6389   -5.0712   22.7461 N.ar    1  UNL1       -0.1268
      3 N           7.2889   -4.6596   21.3468 N.ar    1  UNL1       -0.1316
      4 C           6.1849   -3.6470   21.4237 C.ar    1  UNL1        0.1616
      5 N           5.8526   -3.4328   22.8707 N.ar    1  UNL1       -0.2940
      6 C           4.7747   -2.4639   23.2571 C.3     1  UNL1        0.1302
      7 C           4.0291   -1.7092   22.1966 C.3     1  UNL1        0.1186
      8 N           4.3615   -1.9235   20.7497 N.am    1  UNL1       -0.2687
      9 C           3.6159   -1.1689   19.6892 C.2     1  UNL1        0.2494
     10 O           3.9483   -1.3831   18.2423 O.2     1  UNL1       -0.2699
     11 C           5.4394   -2.8924   20.3633 C.3     1  UNL1        0.1367
     12 C           2.5380   -0.2000   20.0757 C.ar    1  UNL1        0.0537
     13 C           1.1186   -0.6683   20.2020 C.ar    1  UNL1        0.0068
     14 C           0.0407    0.3006   20.5885 C.ar    1  UNL1        0.0298
     15 C           0.3822    1.7378   20.8486 C.ar    1  UNL1        0.1401
     16 F          -0.6957    2.7068   21.2351 F       1  UNL1       -0.2042
     17 C           1.8016    2.2062   20.7222 C.ar    1  UNL1        0.0298
     18 C           2.8795    1.2373   20.3358 C.ar    1  UNL1        0.0068
     19 C           6.4346   -3.0698   28.8099 C.3     1  UNL1        0.0744
     20 C           6.6148   -3.8452   27.5386 C.ar    1  UNL1        0.1481
     21 N           6.9343   -5.3072   27.4354 N.ar    1  UNL1       -0.1929
     22 S           7.0242   -5.6604   25.9803 S.2     1  UNL1        0.0369
     23 C           6.7604   -4.4167   25.1843 C.ar    1  UNL1        0.1652
     24 N           6.5074   -3.2949   26.1474 N.ar    1  UNL1       -0.2190
     25 C           5.7718   -3.1067   18.9163 C.3     1  UNL1        0.0593
     26 C           6.9521   -2.4099   18.3068 C.3     1  UNL1        0.1393
     27 O           6.7437   -1.3716   17.2445 O.3     1  UNL1       -0.3819
     28 H           6.3748   -1.7902   16.4511 H       1  UNL1        0.2104
@<TRIPOS>BOND
     1    19    20    1
     2    20    21   ar
     3    21    22   ar
     4    22    23   ar
     5    23     1    1
     6     1     2   ar
     7     2     3   ar
     8     3     4   ar
     9     4     5   ar
    10     5     6    1
    11     6     7    1
    12     7     8    1
    13     8     9   am
    14     9    10    2
    15     9    12    1
    16    12    13   ar
    17    13    14   ar
    18    14    15   ar
    19    15    16    1
    20    15    17   ar
    21    17    18   ar
    22     8    11    1
    23    11    25    1
    24    25    26    1
    25    26    27    1
    26    23    24   ar
    27    24    20   ar
    28     5     1   ar
    29    18    12   ar
    30    11     4    1
    31    27    28    1
@<TRIPOS>MOLECULE
*****
 28 31 0 0 0
SMALL
GASTEIGER

@<TRIPOS>ATOM
      1 C          -1.0079    2.4946   26.7549 C.ar    1  UNL1        0.1917
      2 N          -2.0866    3.5366   26.7282 N.ar    1  UNL1       -0.1268
      3 N          -2.3112    3.9347   25.2996 N.ar    1  UNL1       -0.1316
      4 C          -1.3713    3.1388   24.4433 C.ar    1  UNL1        0.1616
      5 N          -0.5658    2.2488   25.3428 N.ar    1  UNL1       -0.2940
      6 C           0.4662    1.3295   24.7598 C.3     1  UNL1        0.1302
      7 C           0.6927    1.3002   23.2772 C.3     1  UNL1        0.1186
      8 N          -0.1128    2.1903   22.3777 N.am    1  UNL1       -0.2687
      9 C           0.1137    2.1610   20.8953 C.2     1  UNL1        0.2494
     10 O          -0.6918    3.0510   19.9958 O.2     1  UNL1       -0.2699
     11 C          -1.1448    3.1096   22.9608 C.3     1  UNL1        0.1367
     12 C           1.1456    1.2417   20.3122 C.ar    1  UNL1        0.0537
     13 C           2.3694    1.8083   19.6554 C.ar    1  UNL1        0.0068
     14 C           3.4014    0.8889   19.0724 C.ar    1  UNL1        0.0298
     15 C           3.2095   -0.5969   19.1462 C.ar    1  UNL1        0.1401
     16 F           4.2415   -1.5163   18.5631 F       1  UNL1       -0.2042
     17 C           1.9858   -1.1635   19.8030 C.ar    1  UNL1        0.0298
     18 C           0.9538   -0.2442   20.3860 C.ar    1  UNL1        0.0068
     19 C           1.5544    1.6104   31.2863 C.3     1  UNL1        0.0744
     20 C           0.7115    1.4110   30.0617 C.ar    1  UNL1        0.1481
     21 N           0.0227    0.1394   29.6630 N.ar    1  UNL1       -0.1929
     22 S          -0.7053    0.3907   28.3757 S.2     1  UNL1        0.0369
     23 C          -0.4663    1.8174   27.9789 C.ar    1  UNL1        0.1652
     24 N           0.4092    2.4479   29.0209 N.ar    1  UNL1       -0.2190
     25 C          -1.9503    3.9996   22.0614 C.3     1  UNL1        0.0593
     26 C          -3.3795    3.6615   21.7560 C.3     1  UNL1        0.1393
     27 O          -3.6996    2.5945   20.7514 O.3     1  UNL1       -0.3819
     28 H          -3.4089    2.8812   19.8715 H       1  UNL1        0.2104
@<TRIPOS>BOND
     1    19    20    1
     2    20    21   ar
     3    21    22   ar
     4    22    23   ar
     5    23     1    1
     6     1     2   ar
     7     2     3   ar
     8     3     4   ar
     9     4     5   ar
    10     5     6    1
    11     6     7    1
    12     7     8    1
    13     8     9   am
    14     9    10    2
    15     9    12    1
    16    12    13   ar
    17    13    14   ar
    18    14    15   ar
    19    15    16    1
    20    15    17   ar
    21    17    18   ar
    22     8    11    1
    23    11    25    1
    24    25    26    1
    25    26    27    1
    26    23    24   ar
    27    24    20   ar
    28     5     1   ar
    29    18    12   ar
    30    11     4    1
    31    27    28    1
@<TRIPOS>MOLECULE
*****
 28 31 0 0 0
SMALL
GASTEIGER

@<TRIPOS>ATOM
      1 C           2.3076   -0.4382   28.6591 C.ar    1  UNL1        0.1917
      2 N           3.0993   -1.3055   27.7259 N.ar    1  UNL1       -0.1268
      3 N           4.3494   -1.7312   28.4373 N.ar    1  UNL1       -0.1316
      4 C           4.3302   -1.1271   29.8101 C.ar    1  UNL1        0.1616
      5 N           3.0683   -0.3279   29.9472 N.ar    1  UNL1       -0.2940
      6 C           2.7749    0.3969   31.2272 C.3     1  UNL1        0.1302
      7 C           3.7435    0.3226   32.3702 C.3     1  UNL1        0.1186
      8 N           5.0054   -0.4766   32.2331 N.am    1  UNL1       -0.2687
      9 C           5.9740   -0.5509   33.3760 C.2     1  UNL1        0.2494
     10 O           7.2360   -1.3501   33.2389 O.2     1  UNL1       -0.2699
     11 C           5.2988   -1.2014   30.9530 C.3     1  UNL1        0.1367
     12 C           5.6806    0.1739   34.6560 C.ar    1  UNL1        0.0537
     13 C           4.8298   -0.4749   35.7073 C.ar    1  UNL1        0.0068
     14 C           4.5364    0.2500   36.9874 C.ar    1  UNL1        0.0298
     15 C           5.0939    1.6236   37.2162 C.ar    1  UNL1        0.1401
     16 F           4.8005    2.3485   38.4962 F       1  UNL1       -0.2042
     17 C           5.9447    2.2724   36.1649 C.ar    1  UNL1        0.0298
     18 C           6.2381    1.5476   34.8849 C.ar    1  UNL1        0.0068
     19 C          -1.3748    2.7553   26.6288 C.3     1  UNL1        0.0744
     20 C          -0.7057    1.6737   27.4240 C.ar    1  UNL1        0.1481
     21 N          -1.3851    0.7200   28.3614 N.ar    1  UNL1       -0.1929
     22 S          -0.3390   -0.1872   28.9383 S.2     1  UNL1        0.0369
     23 C           0.9869    0.2058   28.3573 C.ar    1  UNL1        0.1652
     24 N           0.7603    1.3560   27.4214 N.ar    1  UNL1       -0.2190
     25 C           6.5608   -2.0006   30.8159 C.3     1  UNL1        0.0593
     26 C           6.5211   -3.4940   30.9506 C.3     1  UNL1        0.1393
     27 O           6.1722   -4.1192   32.2687 O.3     1  UNL1       -0.3819
     28 H           6.8651   -3.9161   32.9164 H       1  UNL1        0.2104
@<TRIPOS>BOND
     1    19    20    1
     2    20    21   ar
     3    21    22   ar
     4    22    23   ar
     5    23     1    1
     6     1     2   ar
     7     2     3   ar
     8     3     4   ar
     9     4     5   ar
    10     5     6    1
    11     6     7    1
    12     7     8    1
    13     8     9   am
    14     9    10    2
    15     9    12    1
    16    12    13   ar
    17    13    14   ar
    18    14    15   ar
    19    15    16    1
    20    15    17   ar
    21    17    18   ar
    22     8    11    1
    23    11    25    1
    24    25    26    1
    25    26    27    1
    26    23    24   ar
    27    24    20   ar
    28     5     1   ar
    29    18    12   ar
    30    11     4    1
    31    27    28    1
@<TRIPOS>MOLECULE
*****
 28 31 0 0 0
SMALL
GASTEIGER

@<TRIPOS>ATOM
      1 C          -0.1220    2.6105   20.5776 C.ar    1  UNL1        0.1917
      2 N          -1.2906    3.3684   20.0209 N.ar    1  UNL1       -0.1268
      3 N          -2.1667    3.7772   21.1678 N.ar    1  UNL1       -0.1316
      4 C          -1.5395    3.2720   22.4333 C.ar    1  UNL1        0.1616
      5 N          -0.2758    2.5510   22.0685 N.ar    1  UNL1       -0.2940
      6 C           0.5716    1.9333   23.1411 C.3     1  UNL1        0.1302
      7 C           0.1553    2.0367   24.5785 C.3     1  UNL1        0.1186
      8 N          -1.1085    2.7577   24.9432 N.am    1  UNL1       -0.2687
      9 C          -1.5248    2.8611   26.3805 C.2     1  UNL1        0.2494
     10 O          -2.7886    3.5821   26.7453 O.2     1  UNL1       -0.2699
     11 C          -1.9559    3.3754   23.8706 C.3     1  UNL1        0.1367
     12 C          -0.6774    2.2434   27.4531 C.ar    1  UNL1        0.0537
     13 C          -0.9155    0.8230   27.8721 C.ar    1  UNL1        0.0068
     14 C          -0.0681    0.2054   28.9447 C.ar    1  UNL1        0.0298
     15 C           1.0174    1.0082   29.5982 C.ar    1  UNL1        0.1401
     16 F           1.8649    0.3906   30.6708 F       1  UNL1       -0.2042
     17 C           1.2556    2.4286   29.1792 C.ar    1  UNL1        0.0298
     18 C           0.4082    3.0463   28.1066 C.ar    1  UNL1        0.0068
     19 C           4.5356    1.9642   18.1755 C.3     1  UNL1        0.0744
     20 C           3.1439    1.7195   18.6788 C.ar    1  UNL1        0.1481
     21 N           2.3247    0.4856   18.4412 N.ar    1  UNL1       -0.1929
     22 S           1.0015    0.6692   19.1236 S.2     1  UNL1        0.0369
     23 C           1.0031    2.0166   19.7829 C.ar    1  UNL1        0.1652
     24 N           2.3271    2.6657   19.5080 N.ar    1  UNL1       -0.2190
     25 C          -3.2196    4.0964   24.2354 C.3     1  UNL1        0.0593
     26 C          -4.5507    3.4563   23.9732 C.3     1  UNL1        0.1393
     27 O          -5.4914    3.1891   25.1106 O.3     1  UNL1       -0.3819
     28 H          -5.1046    2.5235   25.7006 H       1  UNL1        0.2104
@<TRIPOS>BOND
     1    19    20    1
     2    20    21   ar
     3    21    22   ar
     4    22    23   ar
     5    23     1    1
     6     1     2   ar
     7     2     3   ar
     8     3     4   ar
     9     4     5   ar
    10     5     6    1
    11     6     7    1
    12     7     8    1
    13     8     9   am
    14     9    10    2
    15     9    12    1
    16    12    13   ar
    17    13    14   ar
    18    14    15   ar
    19    15    16    1
    20    15    17   ar
    21    17    18   ar
    22     8    11    1
    23    11    25    1
    24    25    26    1
    25    26    27    1
    26    23    24   ar
    27    24    20   ar
    28     5     1   ar
    29    18    12   ar
    30    11     4    1
    31    27    28    1
@<TRIPOS>MOLECULE
*****
 28 31 0 0 0
SMALL
GASTEIGER

@<TRIPOS>ATOM
      1 C           6.8843   -4.0370   30.0419 C.ar    1  UNL1        0.1917
      2 N           7.4942   -5.3579   30.4069 N.ar    1  UNL1       -0.1268
      3 N           7.7805   -6.1030   29.1369 N.ar    1  UNL1       -0.1316
      4 C           7.3476   -5.2426   27.9870 C.ar    1  UNL1        0.1616
      5 N           6.7937   -3.9657   28.5463 N.ar    1  UNL1       -0.2940
      6 C           6.2785   -2.9031   27.6215 C.3     1  UNL1        0.1302
      7 C           6.3171   -3.1173   26.1373 C.3     1  UNL1        0.1186
      8 N           6.8709   -4.3942   25.5780 N.am    1  UNL1       -0.2687
      9 C           6.9095   -4.6085   24.0940 C.2     1  UNL1        0.2494
     10 O           7.4634   -5.8854   23.5347 O.2     1  UNL1       -0.2699
     11 C           7.3862   -5.4569   26.5029 C.3     1  UNL1        0.1367
     12 C           6.3943   -3.5459   23.1692 C.ar    1  UNL1        0.0537
     13 C           4.9441   -3.5235   22.7864 C.ar    1  UNL1        0.0068
     14 C           4.4289   -2.4608   21.8615 C.ar    1  UNL1        0.0298
     15 C           5.3638   -1.4205   21.3195 C.ar    1  UNL1        0.1401
     16 F           4.8486   -0.3578   20.3946 F       1  UNL1       -0.2042
     17 C           6.8139   -1.4429   21.7023 C.ar    1  UNL1        0.0298
     18 C           7.3292   -2.5055   22.6271 C.ar    1  UNL1        0.0068
     19 C           4.5576   -1.5905   34.1016 C.3     1  UNL1        0.0744
     20 C           5.3731   -1.8494   32.8696 C.ar    1  UNL1        0.1481
     21 N           6.1526   -0.8267   32.0973 N.ar    1  UNL1       -0.1929
     22 S           6.8136   -1.5218   30.9439 S.2     1  UNL1        0.0369
     23 C           6.4426   -2.9739   31.0035 C.ar    1  UNL1        0.1652
     24 N           5.5524   -3.1765   32.1937 N.ar    1  UNL1       -0.2190
     25 C           7.9400   -6.7338   25.9436 C.3     1  UNL1        0.0593
     26 C           7.1912   -8.0204   26.1281 C.3     1  UNL1        0.1393
     27 O           7.4403   -8.8658   27.3419 O.3     1  UNL1       -0.3819
     28 H           8.3475   -9.2081   27.3168 H       1  UNL1        0.2104
@<TRIPOS>BOND
     1    19    20    1
     2    20    21   ar
     3    21    22   ar
     4    22    23   ar
     5    23     1    1
     6     1     2   ar
     7     2     3   ar
     8     3     4   ar
     9     4     5   ar
    10     5     6    1
    11     6     7    1
    12     7     8    1
    13     8     9   am
    14     9    10    2
    15     9    12    1
    16    12    13   ar
    17    13    14   ar
    18    14    15   ar
    19    15    16    1
    20    15    17   ar
    21    17    18   ar
    22     8    11    1
    23    11    25    1
    24    25    26    1
    25    26    27    1
    26    23    24   ar
    27    24    20   ar
    28     5     1   ar
    29    18    12   ar
    30    11     4    1
    31    27    28    1
@<TRIPOS>MOLECULE
*****
 28 31 0 0 0
SMALL
GASTEIGER

@<TRIPOS>ATOM
      1 C          -6.4934    4.9824   23.1899 C.ar    1  UNL1        0.1917
      2 N          -6.2647    5.2759   21.7368 N.ar    1  UNL1       -0.1268
      3 N          -4.8243    4.9932   21.4280 N.ar    1  UNL1       -0.1316
      4 C          -4.1628    4.5250   22.6903 C.ar    1  UNL1        0.1616
      5 N          -5.1944    4.5183   23.7792 N.ar    1  UNL1       -0.2940
      6 C          -4.8176    4.0905   25.1666 C.3     1  UNL1        0.1302
      7 C          -3.4092    3.6694   25.4652 C.3     1  UNL1        0.1186
      8 N          -2.3776    3.6760   24.3762 N.am    1  UNL1       -0.2687
      9 C          -0.9693    3.2549   24.6747 C.2     1  UNL1        0.2494
     10 O           0.0623    3.2615   23.5858 O.2     1  UNL1       -0.2699
     11 C          -2.7545    4.1038   22.9888 C.3     1  UNL1        0.1367
     12 C          -0.5925    2.8271   26.0622 C.ar    1  UNL1        0.0537
     13 C          -0.5968    1.3718   26.4255 C.ar    1  UNL1        0.0068
     14 C          -0.2200    0.9440   27.8130 C.ar    1  UNL1        0.0298
     15 C           0.1610    1.9715   28.8371 C.ar    1  UNL1        0.1401
     16 F           0.5378    1.5438   30.2246 F       1  UNL1       -0.2042
     17 C           0.1653    3.4269   28.4738 C.ar    1  UNL1        0.0298
     18 C          -0.2114    3.8547   27.0864 C.ar    1  UNL1        0.0068
     19 C         -11.3789    4.0806   24.9785 C.3     1  UNL1        0.0744
     20 C         -10.0386    4.7130   24.7469 C.ar    1  UNL1        0.1481
     21 N          -9.5471    5.9886   25.3644 N.ar    1  UNL1       -0.1929
     22 S          -8.1592    6.2448   24.8562 S.2     1  UNL1        0.0369
     23 C          -7.7930    5.1275   23.9248 C.ar    1  UNL1        0.1652
     24 N          -8.9545    4.1808   23.8572 N.ar    1  UNL1       -0.2190
     25 C          -1.7229    4.1105   21.8998 C.3     1  UNL1        0.0593
     26 C          -1.8440    3.1594   20.7462 C.3     1  UNL1        0.1393
     27 O          -3.1457    2.4624   20.4823 O.3     1  UNL1       -0.3819
     28 H          -3.3420    1.8562   21.2137 H       1  UNL1        0.2104
@<TRIPOS>BOND
     1    19    20    1
     2    20    21   ar
     3    21    22   ar
     4    22    23   ar
     5    23     1    1
     6     1     2   ar
     7     2     3   ar
     8     3     4   ar
     9     4     5   ar
    10     5     6    1
    11     6     7    1
    12     7     8    1
    13     8     9   am
    14     9    10    2
    15     9    12    1
    16    12    13   ar
    17    13    14   ar
    18    14    15   ar
    19    15    16    1
    20    15    17   ar
    21    17    18   ar
    22     8    11    1
    23    11    25    1
    24    25    26    1
    25    26    27    1
    26    23    24   ar
    27    24    20   ar
    28     5     1   ar
    29    18    12   ar
    30    11     4    1
    31    27    28    1
@<TRIPOS>MOLECULE
*****
 28 31 0 0 0
SMALL
GASTEIGER

@<TRIPOS>ATOM
      1 C           3.9381    1.6028   35.5127 C.ar    1  UNL1        0.1917
      2 N           5.0306    0.6057   35.7626 N.ar    1  UNL1       -0.1268
      3 N           5.1533   -0.2622   34.5454 N.ar    1  UNL1       -0.1316
      4 C           4.1367    0.1984   33.5432 C.ar    1  UNL1        0.1616
      5 N           3.3857    1.3510   34.1410 N.ar    1  UNL1       -0.2940
      6 C           2.2959    2.0225   33.3591 C.3     1  UNL1        0.1302
      7 C           1.9570    1.5412   31.9794 C.3     1  UNL1        0.1186
      8 N           2.7080    0.3886   31.3816 N.am    1  UNL1       -0.2687
      9 C           2.3692   -0.0927   30.0019 C.2     1  UNL1        0.2494
     10 O           3.1202   -1.2453   29.4041 O.2     1  UNL1       -0.2699
     11 C           3.7979   -0.2829   32.1635 C.3     1  UNL1        0.1367
     12 C           1.2794    0.5788   29.2200 C.ar    1  UNL1        0.0537
     13 C           1.5510    1.8748   28.5155 C.ar    1  UNL1        0.0068
     14 C           0.4611    2.5463   27.7335 C.ar    1  UNL1        0.0298
     15 C          -0.9004    1.9216   27.6562 C.ar    1  UNL1        0.1401
     16 F          -1.9903    2.5930   26.8743 F       1  UNL1       -0.2042
     17 C          -1.1721    0.6255   28.3607 C.ar    1  UNL1        0.0298
     18 C          -0.0823   -0.0459   29.1426 C.ar    1  UNL1        0.0068
     19 C           3.1106    6.2989   37.7802 C.3     1  UNL1        0.0744
     20 C           3.0984    4.8237   37.5091 C.ar    1  UNL1        0.1481
     21 N           2.4453    3.7761   38.3612 N.ar    1  UNL1       -0.1929
     22 S           2.6804    2.4419   37.7170 S.2     1  UNL1        0.0369
     23 C           3.4788    2.6651   36.4668 C.ar    1  UNL1        0.1652
     24 N           3.7371    4.1371   36.3383 N.ar    1  UNL1       -0.2190
     25 C           4.5489   -1.4355   31.5657 C.3     1  UNL1        0.0593
     26 C           4.9098   -2.6174   32.4161 C.3     1  UNL1        0.1393
     27 O           3.9487   -3.1158   33.4542 O.3     1  UNL1       -0.3819
     28 H           3.8431   -2.4442   34.1461 H       1  UNL1        0.2104
@<TRIPOS>BOND
     1    19    20    1
     2    20    21   ar
     3    21    22   ar
     4    22    23   ar
     5    23     1    1
     6     1     2   ar
     7     2     3   ar
     8     3     4   ar
     9     4     5   ar
    10     5     6    1
    11     6     7    1
    12     7     8    1
    13     8     9   am
    14     9    10    2
    15     9    12    1
    16    12    13   ar
    17    13    14   ar
    18    14    15   ar
    19    15    16    1
    20    15    17   ar
    21    17    18   ar
    22     8    11    1
    23    11    25    1
    24    25    26    1
    25    26    27    1
    26    23    24   ar
    27    24    20   ar
    28     5     1   ar
    29    18    12   ar
    30    11     4    1
    31    27    28    1
@<TRIPOS>MOLECULE
*****
 28 31 0 0 0
SMALL
GASTEIGER

@<TRIPOS>ATOM
      1 C           4.3675    0.7930   36.4163 C.ar    1  UNL1        0.1917
      2 N           5.6274    0.0025   36.6109 N.ar    1  UNL1       -0.1268
      3 N           6.0455   -0.5391   35.2761 N.ar    1  UNL1       -0.1316
      4 C           5.0441   -0.0833   34.2565 C.ar    1  UNL1        0.1616
      5 N           4.0070    0.7400   34.9613 N.ar    1  UNL1       -0.2940
      6 C           2.8685    1.3350   34.1870 C.3     1  UNL1        0.1302
      7 C           2.7669    1.1068   32.7079 C.3     1  UNL1        0.1186
      8 N           3.8040    0.2835   32.0031 N.am    1  UNL1       -0.2687
      9 C           3.7025    0.0552   30.5241 C.2     1  UNL1        0.2494
     10 O           4.7396   -0.7681   29.8194 O.2     1  UNL1       -0.2699
     11 C           4.9426   -0.3115   32.7775 C.3     1  UNL1        0.1367
     12 C           2.5639    0.6502   29.7498 C.ar    1  UNL1        0.0537
     13 C           1.3329   -0.1638   29.4816 C.ar    1  UNL1        0.0068
     14 C           0.1943    0.4313   28.7073 C.ar    1  UNL1        0.0298
     15 C           0.2867    1.8403   28.2012 C.ar    1  UNL1        0.1401
     16 F          -0.8519    2.4354   27.4269 F       1  UNL1       -0.2042
     17 C           1.5178    2.6543   28.4695 C.ar    1  UNL1        0.0298
     18 C           2.6564    2.0593   29.2438 C.ar    1  UNL1        0.0068
     19 C           0.4332    2.4610   39.5178 C.3     1  UNL1        0.0744
     20 C           1.7940    2.2772   38.9142 C.ar    1  UNL1        0.1481
     21 N           3.0561    2.9523   39.3631 N.ar    1  UNL1       -0.1929
     22 S           4.1738    2.4784   38.4820 S.2     1  UNL1        0.0369
     23 C           3.6024    1.5106   37.4886 C.ar    1  UNL1        0.1652
     24 N           2.1316    1.3862   37.7557 N.ar    1  UNL1       -0.2190
     25 C           5.9797   -1.1348   32.0727 C.3     1  UNL1        0.0593
     26 C           6.2024   -2.5633   32.4728 C.3     1  UNL1        0.1393
     27 O           5.0363   -3.4250   32.8570 O.3     1  UNL1       -0.3819
     28 H           4.6403   -3.0871   33.6755 H       1  UNL1        0.2104
@<TRIPOS>BOND
     1    19    20    1
     2    20    21   ar
     3    21    22   ar
     4    22    23   ar
     5    23     1    1
     6     1     2   ar
     7     2     3   ar
     8     3     4   ar
     9     4     5   ar
    10     5     6    1
    11     6     7    1
    12     7     8    1
    13     8     9   am
    14     9    10    2
    15     9    12    1
    16    12    13   ar
    17    13    14   ar
    18    14    15   ar
    19    15    16    1
    20    15    17   ar
    21    17    18   ar
    22     8    11    1
    23    11    25    1
    24    25    26    1
    25    26    27    1
    26    23    24   ar
    27    24    20   ar
    28     5     1   ar
    29    18    12   ar
    30    11     4    1
    31    27    28    1
@<TRIPOS>MOLECULE
*****
 28 31 0 0 0
SMALL
GASTEIGER

@<TRIPOS>ATOM
      1 C           2.3311    0.8564   30.3165 C.ar    1  UNL1        0.1917
      2 N           2.9315   -0.3955   29.7490 N.ar    1  UNL1       -0.1268
      3 N           3.7269   -1.0607   30.8328 N.ar    1  UNL1       -0.1316
      4 C           3.6181   -0.2199   32.0703 C.ar    1  UNL1        0.1616
      5 N           2.7555    0.9650   31.7511 N.ar    1  UNL1       -0.2940
      6 C           2.4678    1.9897   32.8081 C.3     1  UNL1        0.1302
      7 C           3.0428    1.8295   34.1843 C.3     1  UNL1        0.1186
      8 N           3.9054    0.6446   34.5034 N.am    1  UNL1       -0.2687
      9 C           4.4804    0.4843   35.8795 C.2     1  UNL1        0.2494
     10 O           5.3431   -0.7005   36.1986 O.2     1  UNL1       -0.2699
     11 C           4.1931   -0.3801   33.4464 C.3     1  UNL1        0.1367
     12 C           4.1927    1.5090   36.9365 C.ar    1  UNL1        0.0537
     13 C           2.9924    1.3556   37.8228 C.ar    1  UNL1        0.0068
     14 C           2.7047    2.3804   38.8799 C.ar    1  UNL1        0.0298
     15 C           3.6174    3.5584   39.0505 C.ar    1  UNL1        0.1401
     16 F           3.3297    4.5832   40.1075 F       1  UNL1       -0.2042
     17 C           4.8177    3.7118   38.1641 C.ar    1  UNL1        0.0298
     18 C           5.1054    2.6872   37.1072 C.ar    1  UNL1        0.0068
     19 C          -1.2431    2.8824   26.9997 C.3     1  UNL1        0.0744
     20 C          -0.1835    2.7603   28.0543 C.ar    1  UNL1        0.1481
     21 N           0.4195    3.8915   28.8334 N.ar    1  UNL1       -0.1929
     22 S           1.4349    3.3160   29.7757 S.2     1  UNL1        0.0369
     23 C           1.4594    1.8291   29.5789 C.ar    1  UNL1        0.1652
     24 N           0.4593    1.4857   28.5151 N.ar    1  UNL1       -0.2190
     25 C           5.0558   -1.5650   33.7655 C.3     1  UNL1        0.0593
     26 C           4.6848   -2.9236   33.2490 C.3     1  UNL1        0.1393
     27 O           3.4822   -3.6321   33.7982 O.3     1  UNL1       -0.3819
     28 H           3.6328   -3.8489   34.7316 H       1  UNL1        0.2104
@<TRIPOS>BOND
     1    19    20    1
     2    20    21   ar
     3    21    22   ar
     4    22    23   ar
     5    23     1    1
     6     1     2   ar
     7     2     3   ar
     8     3     4   ar
     9     4     5   ar
    10     5     6    1
    11     6     7    1
    12     7     8    1
    13     8     9   am
    14     9    10    2
    15     9    12    1
    16    12    13   ar
    17    13    14   ar
    18    14    15   ar
    19    15    16    1
    20    15    17   ar
    21    17    18   ar
    22     8    11    1
    23    11    25    1
    24    25    26    1
    25    26    27    1
    26    23    24   ar
    27    24    20   ar
    28     5     1   ar
    29    18    12   ar
    30    11     4    1
    31    27    28    1
