@<TRIPOS>MOLECULE
*****
 28 32 0 0 0
SMALL
GASTEIGER

@<TRIPOS>ATOM
      1 O           6.1286   -4.4661   20.5927 O.2     1  UNL1       -0.2526
      2 C           5.7188   -3.5971   21.7447 C.2     1  UNL1        0.3039
      3 N           6.4283   -3.7131   23.0611 N.am    1  UNL1       -0.2901
      4 N           4.5995   -2.6121   21.5801 N.am    1  UNL1       -0.2640
      5 C           3.8900   -2.4961   20.2636 C.3     1  UNL1        0.0985
      6 C           2.7708   -1.5112   20.0991 C.3     1  UNL1        0.0616
      7 C           2.3611   -0.6422   21.2510 C.3     1  UNL1        0.1368
      8 C           1.6515   -0.5262   19.9345 C.3     1  UNL1        0.0465
      9 C           0.5323    0.4588   19.7700 C.3     1  UNL1        0.0525
     10 C           0.1225    1.3278   20.9219 C.ar    1  UNL1        0.0929
     11 N          -0.9968    2.3128   20.7573 N.ar    1  UNL1       -0.2451
     12 C          -1.4065    3.1818   21.9093 C.ar    1  UNL1        0.0987
     13 C          -0.6969    3.0658   23.2258 C.ar    1  UNL1        0.0238
     14 C           0.4223    2.0808   23.3903 C.ar    1  UNL1        0.0397
     15 C           0.8320    1.2118   22.2384 C.ar    1  UNL1        0.1516
     16 O           1.9513    0.2268   22.4030 O.3     1  UNL1       -0.4813
     17 C           3.0706   -0.7581   22.5675 C.3     1  UNL1        0.0616
     18 C           4.1898   -1.7431   22.7320 C.3     1  UNL1        0.0985
     19 H           6.1594   -3.1427   23.8172 H       1  UNL1        0.1509
     20 C           7.5476   -4.6981   23.2257 C.3     1  UNL1        0.0774
     21 C           8.7459   -5.4078   22.6686 C.3     1  UNL1        0.0259
     22 C           8.2880   -5.6944   24.0679 C.3     1  UNL1        0.0420
     23 C           8.4510   -6.4350   25.3620 C.ar    1  UNL1       -0.0208
     24 C           7.7374   -7.7369   25.5762 C.ar    1  UNL1       -0.0042
     25 C           7.9005   -8.4775   26.8703 C.ar    1  UNL1       -0.0003
     26 C           8.7772   -7.9163   27.9504 C.ar    1  UNL1       -0.0000
     27 C           9.4908   -6.6144   27.7362 C.ar    1  UNL1       -0.0003
     28 C           9.3277   -5.8738   26.4420 C.ar    1  UNL1       -0.0042
@<TRIPOS>BOND
     1     1     2    2
     2     2     3   am
     3    20     3    1
     4    20    21    1
     5    21    22    1
     6    22    23    1
     7    23    24   ar
     8    24    25   ar
     9    25    26   ar
    10    26    27   ar
    11    27    28   ar
    12     2     4   am
    13     4     5    1
    14     5     6    1
    15     6     7    1
    16     7     8    1
    17     8     9    1
    18     9    10    1
    19    10    11   ar
    20    11    12   ar
    21    12    13   ar
    22    13    14   ar
    23    14    15   ar
    24    15    16    1
    25     7    17    1
    26    17    18    1
    27    22    20    1
    28    28    23   ar
    29    18     4    1
    30    16     7    1
    31    15    10   ar
    32     3    19    1
@<TRIPOS>MOLECULE
*****
 28 32 0 0 0
SMALL
GASTEIGER

@<TRIPOS>ATOM
      1 O          -1.2245    4.4028   19.4381 O.2     1  UNL1       -0.2526
      2 C          -1.1147    3.0699   20.1172 C.2     1  UNL1        0.3039
      3 N          -2.1056    2.6831   21.1748 N.am    1  UNL1       -0.2901
      4 N          -0.0141    2.1236   19.7386 N.am    1  UNL1       -0.2640
      5 C           0.9767    2.5103   18.6810 C.3     1  UNL1        0.0985
      6 C           2.0773    1.5641   18.3024 C.3     1  UNL1        0.0616
      7 C           2.1870    0.2311   18.9815 C.3     1  UNL1        0.1368
      8 C           3.1779    0.6178   17.9238 C.3     1  UNL1        0.0465
      9 C           4.2785   -0.3284   17.5453 C.3     1  UNL1        0.0525
     10 C           4.3882   -1.6614   18.2244 C.ar    1  UNL1        0.0929
     11 N           5.4889   -2.6076   17.8458 N.ar    1  UNL1       -0.2451
     12 C           5.5986   -3.9406   18.5248 C.ar    1  UNL1        0.0987
     13 C           4.6077   -4.3273   19.5825 C.ar    1  UNL1        0.0238
     14 C           3.5071   -3.3811   19.9611 C.ar    1  UNL1        0.0397
     15 C           3.3974   -2.0481   19.2820 C.ar    1  UNL1        0.1516
     16 O           2.2968   -1.1018   19.6606 O.3     1  UNL1       -0.4813
     17 C           1.1962   -0.1556   20.0391 C.3     1  UNL1        0.0616
     18 C           0.0956    0.7907   20.4177 C.3     1  UNL1        0.0985
     19 H          -2.0336    1.8083   21.6205 H       1  UNL1        0.1509
     20 C          -3.2062    3.6294   21.5534 C.3     1  UNL1        0.0774
     21 C          -4.2821    4.5961   21.1562 C.3     1  UNL1        0.0259
     22 C          -4.0366    4.3016   22.6063 C.3     1  UNL1        0.0420
     23 C          -4.3742    4.5196   24.0515 C.ar    1  UNL1       -0.0208
     24 C          -5.4483    5.4951   24.4318 C.ar    1  UNL1       -0.0042
     25 C          -5.7860    5.7132   25.8769 C.ar    1  UNL1       -0.0003
     26 C          -5.0494    4.9557   26.9418 C.ar    1  UNL1       -0.0000
     27 C          -3.9753    3.9802   26.5614 C.ar    1  UNL1       -0.0003
     28 C          -3.6377    3.7622   25.1162 C.ar    1  UNL1       -0.0042
@<TRIPOS>BOND
     1     1     2    2
     2     2     3   am
     3    20     3    1
     4    20    21    1
     5    21    22    1
     6    22    23    1
     7    23    24   ar
     8    24    25   ar
     9    25    26   ar
    10    26    27   ar
    11    27    28   ar
    12     2     4   am
    13     4     5    1
    14     5     6    1
    15     6     7    1
    16     7     8    1
    17     8     9    1
    18     9    10    1
    19    10    11   ar
    20    11    12   ar
    21    12    13   ar
    22    13    14   ar
    23    14    15   ar
    24    15    16    1
    25     7    17    1
    26    17    18    1
    27    22    20    1
    28    28    23   ar
    29    18     4    1
    30    16     7    1
    31    15    10   ar
    32     3    19    1
@<TRIPOS>MOLECULE
*****
 28 32 0 0 0
SMALL
GASTEIGER

@<TRIPOS>ATOM
      1 O           7.5158   -4.7189   20.8294 O.2     1  UNL1       -0.2526
      2 C           6.7958   -4.1935   22.0359 C.2     1  UNL1        0.3039
      3 N           5.6863   -3.1975   21.8724 N.am    1  UNL1       -0.2901
      4 N           7.1854   -4.6643   23.4058 N.am    1  UNL1       -0.2640
      5 C           8.2949   -5.6604   23.5692 C.3     1  UNL1        0.0985
      6 C           8.6845   -6.1311   24.9391 C.3     1  UNL1        0.0616
      7 C           7.9645   -5.6057   26.1456 C.3     1  UNL1        0.1368
      8 C           9.0740   -6.6019   26.3091 C.3     1  UNL1        0.0465
      9 C           9.4636   -7.0726   27.6790 C.3     1  UNL1        0.0525
     10 C           8.7436   -6.5472   28.8855 C.ar    1  UNL1        0.0929
     11 N           9.1331   -7.0180   30.2554 N.ar    1  UNL1       -0.2451
     12 C           8.4131   -6.4926   31.4619 C.ar    1  UNL1        0.0987
     13 C           7.3036   -5.4965   31.2984 C.ar    1  UNL1        0.0238
     14 C           6.9140   -5.0257   29.9285 C.ar    1  UNL1        0.0397
     15 C           7.6340   -5.5511   28.7220 C.ar    1  UNL1        0.1516
     16 O           7.2445   -5.0804   27.3521 O.3     1  UNL1       -0.4813
     17 C           6.8549   -4.6096   25.9822 C.3     1  UNL1        0.0616
     18 C           6.4654   -4.1389   24.6123 C.3     1  UNL1        0.0985
     19 H           5.2138   -2.8527   22.6643 H       1  UNL1        0.1509
     20 C           5.2967   -2.7267   20.5025 C.3     1  UNL1        0.0774
     21 C           5.5217   -2.7170   19.0195 C.3     1  UNL1        0.0259
     22 C           4.3971   -1.9211   19.6127 C.3     1  UNL1        0.0420
     23 C           3.2284   -0.9966   19.4416 C.ar    1  UNL1       -0.0208
     24 C           3.2708    0.0806   18.3986 C.ar    1  UNL1       -0.0042
     25 C           2.1021    1.0052   18.2274 C.ar    1  UNL1       -0.0003
     26 C           0.8910    0.8526   19.0993 C.ar    1  UNL1       -0.0000
     27 C           0.8487   -0.2246   20.1422 C.ar    1  UNL1       -0.0003
     28 C           2.0174   -1.1492   20.3134 C.ar    1  UNL1       -0.0042
@<TRIPOS>BOND
     1     1     2    2
     2     2     3   am
     3    20     3    1
     4    20    21    1
     5    21    22    1
     6    22    23    1
     7    23    24   ar
     8    24    25   ar
     9    25    26   ar
    10    26    27   ar
    11    27    28   ar
    12     2     4   am
    13     4     5    1
    14     5     6    1
    15     6     7    1
    16     7     8    1
    17     8     9    1
    18     9    10    1
    19    10    11   ar
    20    11    12   ar
    21    12    13   ar
    22    13    14   ar
    23    14    15   ar
    24    15    16    1
    25     7    17    1
    26    17    18    1
    27    22    20    1
    28    28    23   ar
    29    18     4    1
    30    16     7    1
    31    15    10   ar
    32     3    19    1
@<TRIPOS>MOLECULE
*****
 28 32 0 0 0
SMALL
GASTEIGER

@<TRIPOS>ATOM
      1 O          -0.9878    3.4320   22.7118 O.2     1  UNL1       -0.2526
      2 C          -0.8605    2.5605   21.4976 C.2     1  UNL1        0.3039
      3 N          -1.7845    2.7580   20.3326 N.am    1  UNL1       -0.2901
      4 N           0.1908    1.4916   21.4484 N.am    1  UNL1       -0.2640
      5 C           1.1147    1.2942   22.6134 C.3     1  UNL1        0.0985
      6 C           2.1659    0.2254   22.5642 C.3     1  UNL1        0.0616
      7 C           2.2931   -0.6461   21.3499 C.3     1  UNL1        0.1368
      8 C           3.2172   -0.8436   22.5150 C.3     1  UNL1        0.0465
      9 C           4.2683   -1.9124   22.4658 C.3     1  UNL1        0.0525
     10 C           4.3956   -2.7839   21.2515 C.ar    1  UNL1        0.0929
     11 N           5.4469   -3.8528   21.2023 N.ar    1  UNL1       -0.2451
     12 C           5.5741   -4.7242   19.9881 C.ar    1  UNL1        0.0987
     13 C           4.6501   -4.5268   18.8230 C.ar    1  UNL1        0.0238
     14 C           3.5989   -3.4579   18.8723 C.ar    1  UNL1        0.0397
     15 C           3.4717   -2.5865   20.0865 C.ar    1  UNL1        0.1516
     16 O           2.4204   -1.5175   20.1357 O.3     1  UNL1       -0.4813
     17 C           1.3692   -0.4487   20.1849 C.3     1  UNL1        0.0616
     18 C           0.3180    0.6202   20.2341 C.3     1  UNL1        0.0985
     19 H          -1.7009    2.1860   19.5356 H       1  UNL1        0.1509
     20 C          -2.8357    3.8269   20.3817 C.3     1  UNL1        0.0774
     21 C          -3.4894    5.0347   19.7786 C.3     1  UNL1        0.0259
     22 C          -4.0028    4.4704   21.0701 C.3     1  UNL1        0.0420
     23 C          -4.9730    4.5162   22.2131 C.ar    1  UNL1       -0.0208
     24 C          -4.4753    4.7369   23.6109 C.ar    1  UNL1       -0.0042
     25 C          -5.4455    4.7826   24.7539 C.ar    1  UNL1       -0.0003
     26 C          -6.9134    4.6077   24.4993 C.ar    1  UNL1       -0.0000
     27 C          -7.4110    4.3870   23.1016 C.ar    1  UNL1       -0.0003
     28 C          -6.4408    4.3412   21.9585 C.ar    1  UNL1       -0.0042
@<TRIPOS>BOND
     1     1     2    2
     2     2     3   am
     3    20     3    1
     4    20    21    1
     5    21    22    1
     6    22    23    1
     7    23    24   ar
     8    24    25   ar
     9    25    26   ar
    10    26    27   ar
    11    27    28   ar
    12     2     4   am
    13     4     5    1
    14     5     6    1
    15     6     7    1
    16     7     8    1
    17     8     9    1
    18     9    10    1
    19    10    11   ar
    20    11    12   ar
    21    12    13   ar
    22    13    14   ar
    23    14    15   ar
    24    15    16    1
    25     7    17    1
    26    17    18    1
    27    22    20    1
    28    28    23   ar
    29    18     4    1
    30    16     7    1
    31    15    10   ar
    32     3    19    1
@<TRIPOS>MOLECULE
*****
 28 32 0 0 0
SMALL
GASTEIGER

@<TRIPOS>ATOM
      1 O           4.9638   -4.4014   21.3206 O.2     1  UNL1       -0.2526
      2 C           5.6046   -3.1197   20.8772 C.2     1  UNL1        0.3039
      3 N           7.0967   -2.9725   20.9217 N.am    1  UNL1       -0.2901
      4 N           4.7533   -1.9851   20.3893 N.am    1  UNL1       -0.2640
      5 C           3.2612   -2.1322   20.3448 C.3     1  UNL1        0.0985
      6 C           2.4099   -0.9977   19.8569 C.3     1  UNL1        0.0616
      7 C           3.0507    0.2840   19.4135 C.3     1  UNL1        0.1368
      8 C           1.5586    0.1369   19.3689 C.3     1  UNL1        0.0465
      9 C           0.7073    1.2715   18.8810 C.3     1  UNL1        0.0525
     10 C           1.3481    2.5532   18.4376 C.ar    1  UNL1        0.0929
     11 N           0.4968    3.6877   17.9497 N.ar    1  UNL1       -0.2451
     12 C           1.1376    4.9694   17.5063 C.ar    1  UNL1        0.0987
     13 C           2.6298    5.1166   17.5508 C.ar    1  UNL1        0.0238
     14 C           3.4810    3.9820   18.0387 C.ar    1  UNL1        0.0397
     15 C           2.8402    2.7003   18.4821 C.ar    1  UNL1        0.1516
     16 O           3.6916    1.5657   18.9700 O.3     1  UNL1       -0.4813
     17 C           4.5428    0.4312   19.4580 C.3     1  UNL1        0.0616
     18 C           5.3941   -0.7034   19.9459 C.3     1  UNL1        0.0985
     19 H           7.5173   -2.1313   20.6307 H       1  UNL1        0.1509
     20 C           7.9480   -4.1071   21.4097 C.3     1  UNL1        0.0774
     21 C           9.1006   -5.0458   21.2093 C.3     1  UNL1        0.0259
     22 C           8.2700   -5.1334   22.4551 C.3     1  UNL1        0.0420
     23 C           7.9762   -5.7765   23.7781 C.ar    1  UNL1       -0.0208
     24 C           7.2857   -4.9940   24.8555 C.ar    1  UNL1       -0.0042
     25 C           6.9920   -5.6370   26.1784 C.ar    1  UNL1       -0.0003
     26 C           7.3887   -7.0627   26.4239 C.ar    1  UNL1       -0.0000
     27 C           8.0792   -7.8452   25.3465 C.ar    1  UNL1       -0.0003
     28 C           8.3730   -7.2020   24.0235 C.ar    1  UNL1       -0.0042
@<TRIPOS>BOND
     1     1     2    2
     2     2     3   am
     3    20     3    1
     4    20    21    1
     5    21    22    1
     6    22    23    1
     7    23    24   ar
     8    24    25   ar
     9    25    26   ar
    10    26    27   ar
    11    27    28   ar
    12     2     4   am
    13     4     5    1
    14     5     6    1
    15     6     7    1
    16     7     8    1
    17     8     9    1
    18     9    10    1
    19    10    11   ar
    20    11    12   ar
    21    12    13   ar
    22    13    14   ar
    23    14    15   ar
    24    15    16    1
    25     7    17    1
    26    17    18    1
    27    22    20    1
    28    28    23   ar
    29    18     4    1
    30    16     7    1
    31    15    10   ar
    32     3    19    1
@<TRIPOS>MOLECULE
*****
 28 32 0 0 0
SMALL
GASTEIGER

@<TRIPOS>ATOM
      1 O           8.9160   -5.5361   22.8707 O.2     1  UNL1       -0.2526
      2 C           7.5724   -5.0549   23.3321 C.2     1  UNL1        0.3039
      3 N           7.0601   -5.4461   24.6865 N.am    1  UNL1       -0.2901
      4 N           6.7409   -4.1823   22.4390 N.am    1  UNL1       -0.2640
      5 C           7.2532   -3.7911   21.0846 C.3     1  UNL1        0.0985
      6 C           6.4218   -2.9186   20.1917 C.3     1  UNL1        0.0616
      7 C           5.0781   -2.4373   20.6531 C.3     1  UNL1        0.1368
      8 C           5.5904   -2.0460   19.2986 C.3     1  UNL1        0.0465
      9 C           4.7590   -1.1735   18.4056 C.3     1  UNL1        0.0525
     10 C           3.4153   -0.6922   18.8671 C.ar    1  UNL1        0.0929
     11 N           2.5839    0.1804   17.9740 N.ar    1  UNL1       -0.2451
     12 C           1.2403    0.6616   18.4354 C.ar    1  UNL1        0.0987
     13 C           0.7280    0.2703   19.7899 C.ar    1  UNL1        0.0238
     14 C           1.5594   -0.6022   20.6829 C.ar    1  UNL1        0.0397
     15 C           2.9031   -1.0835   20.2215 C.ar    1  UNL1        0.1516
     16 O           3.7345   -1.9560   21.1145 O.3     1  UNL1       -0.4813
     17 C           4.5659   -2.8285   22.0075 C.3     1  UNL1        0.0616
     18 C           5.3973   -3.7010   22.9005 C.3     1  UNL1        0.0985
     19 H           6.1782   -5.1302   24.9893 H       1  UNL1        0.1509
     20 C           7.8915   -6.3187   25.5795 C.3     1  UNL1        0.0774
     21 C           8.8847   -7.4295   25.7515 C.3     1  UNL1        0.0259
     22 C           8.3383   -6.7191   26.9543 C.3     1  UNL1        0.0420
     23 C           8.2808   -6.5401   28.4425 C.ar    1  UNL1       -0.0208
     24 C           9.3441   -7.1429   29.3120 C.ar    1  UNL1       -0.0042
     25 C           9.2866   -6.9639   30.8001 C.ar    1  UNL1       -0.0003
     26 C           8.1658   -6.1821   31.4188 C.ar    1  UNL1       -0.0000
     27 C           7.1026   -5.5794   30.5493 C.ar    1  UNL1       -0.0003
     28 C           7.1601   -5.7584   29.0611 C.ar    1  UNL1       -0.0042
@<TRIPOS>BOND
     1     1     2    2
     2     2     3   am
     3    20     3    1
     4    20    21    1
     5    21    22    1
     6    22    23    1
     7    23    24   ar
     8    24    25   ar
     9    25    26   ar
    10    26    27   ar
    11    27    28   ar
    12     2     4   am
    13     4     5    1
    14     5     6    1
    15     6     7    1
    16     7     8    1
    17     8     9    1
    18     9    10    1
    19    10    11   ar
    20    11    12   ar
    21    12    13   ar
    22    13    14   ar
    23    14    15   ar
    24    15    16    1
    25     7    17    1
    26    17    18    1
    27    22    20    1
    28    28    23   ar
    29    18     4    1
    30    16     7    1
    31    15    10   ar
    32     3    19    1
@<TRIPOS>MOLECULE
*****
 28 32 0 0 0
SMALL
GASTEIGER

@<TRIPOS>ATOM
      1 O           6.5388   -4.7297   22.4211 O.2     1  UNL1       -0.2526
      2 C           5.8415   -3.7812   23.3507 C.2     1  UNL1        0.3039
      3 N           6.1583   -3.7989   24.8167 N.am    1  UNL1       -0.2901
      4 N           4.8273   -2.8149   22.8141 N.am    1  UNL1       -0.2640
      5 C           4.5106   -2.7971   21.3481 C.3     1  UNL1        0.0985
      6 C           3.4965   -1.8309   20.8116 C.3     1  UNL1        0.0616
      7 C           2.7991   -0.8823   21.7411 C.3     1  UNL1        0.1368
      8 C           2.4823   -0.8646   20.2750 C.3     1  UNL1        0.0465
      9 C           1.4682    0.1017   19.7386 C.3     1  UNL1        0.0525
     10 C           0.7708    1.0502   20.6681 C.ar    1  UNL1        0.0929
     11 N          -0.2433    2.0165   20.1315 N.ar    1  UNL1       -0.2451
     12 C          -0.9407    2.9650   21.0611 C.ar    1  UNL1        0.0987
     13 C          -0.6238    2.9472   22.5272 C.ar    1  UNL1        0.0238
     14 C           0.3903    1.9810   23.0637 C.ar    1  UNL1        0.0397
     15 C           1.0876    1.0325   22.1341 C.ar    1  UNL1        0.1516
     16 O           2.1018    0.0662   22.6707 O.3     1  UNL1       -0.4813
     17 C           3.1159   -0.9001   23.2072 C.3     1  UNL1        0.0616
     18 C           4.1300   -1.8664   23.7437 C.3     1  UNL1        0.0985
     19 H           5.7006   -3.1764   25.4268 H       1  UNL1        0.1509
     20 C           7.1724   -4.7652   25.3533 C.3     1  UNL1        0.0774
     21 C           8.2889   -5.7394   25.1202 C.3     1  UNL1        0.0259
     22 C           7.8125   -5.4646   26.5157 C.3     1  UNL1        0.0420
     23 C           7.9069   -5.7098   27.9925 C.ar    1  UNL1       -0.0208
     24 C           6.7918   -5.2767   28.8974 C.ar    1  UNL1       -0.0042
     25 C           6.8862   -5.5218   30.3742 C.ar    1  UNL1       -0.0003
     26 C           8.0958   -6.2001   30.9461 C.ar    1  UNL1       -0.0000
     27 C           9.2109   -6.6332   30.0411 C.ar    1  UNL1       -0.0003
     28 C           9.1164   -6.3880   28.5643 C.ar    1  UNL1       -0.0042
@<TRIPOS>BOND
     1     1     2    2
     2     2     3   am
     3    20     3    1
     4    20    21    1
     5    21    22    1
     6    22    23    1
     7    23    24   ar
     8    24    25   ar
     9    25    26   ar
    10    26    27   ar
    11    27    28   ar
    12     2     4   am
    13     4     5    1
    14     5     6    1
    15     6     7    1
    16     7     8    1
    17     8     9    1
    18     9    10    1
    19    10    11   ar
    20    11    12   ar
    21    12    13   ar
    22    13    14   ar
    23    14    15   ar
    24    15    16    1
    25     7    17    1
    26    17    18    1
    27    22    20    1
    28    28    23   ar
    29    18     4    1
    30    16     7    1
    31    15    10   ar
    32     3    19    1
@<TRIPOS>MOLECULE
*****
 28 32 0 0 0
SMALL
GASTEIGER

@<TRIPOS>ATOM
      1 O           8.0267   -5.4224   25.8465 O.2     1  UNL1       -0.2526
      2 C           6.8831   -4.4719   25.6495 C.2     1  UNL1        0.3039
      3 N           6.0811   -4.0086   26.8293 N.am    1  UNL1       -0.2901
      4 N           6.5416   -3.9848   24.2724 N.am    1  UNL1       -0.2640
      5 C           7.3436   -4.4481   23.0926 C.3     1  UNL1        0.0985
      6 C           7.0020   -3.9609   21.7157 C.3     1  UNL1        0.0616
      7 C           5.8585   -3.0104   21.5186 C.3     1  UNL1        0.1368
      8 C           6.6605   -3.4737   20.3387 C.3     1  UNL1        0.0465
      9 C           6.3190   -2.9865   18.9618 C.3     1  UNL1        0.0525
     10 C           5.1754   -2.0360   18.7647 C.ar    1  UNL1        0.0929
     11 N           4.8339   -1.5488   17.3877 N.ar    1  UNL1       -0.2451
     12 C           3.6903   -0.5983   17.1906 C.ar    1  UNL1        0.0987
     13 C           2.8883   -0.1350   18.3706 C.ar    1  UNL1        0.0238
     14 C           3.2298   -0.6222   19.7475 C.ar    1  UNL1        0.0397
     15 C           4.3734   -1.5727   19.9445 C.ar    1  UNL1        0.1516
     16 O           4.7149   -2.0599   21.3215 O.3     1  UNL1       -0.4813
     17 C           5.0565   -2.5471   22.6985 C.3     1  UNL1        0.0616
     18 C           5.3980   -3.0343   24.0754 C.3     1  UNL1        0.0985
     19 H           5.3306   -3.3848   26.6999 H       1  UNL1        0.1509
     20 C           6.4227   -4.4958   28.2063 C.3     1  UNL1        0.0774
     21 C           6.6905   -5.6264   29.1549 C.3     1  UNL1        0.0259
     22 C           6.7463   -4.2091   29.6426 C.3     1  UNL1        0.0420
     23 C           6.9655   -3.2251   30.7534 C.ar    1  UNL1       -0.0208
     24 C           5.8001   -2.4860   31.3414 C.ar    1  UNL1       -0.0042
     25 C           6.0192   -1.5021   32.4521 C.ar    1  UNL1       -0.0003
     26 C           7.4037   -1.2573   32.9750 C.ar    1  UNL1       -0.0000
     27 C           8.5691   -1.9964   32.3870 C.ar    1  UNL1       -0.0003
     28 C           8.3499   -2.9803   31.2762 C.ar    1  UNL1       -0.0042
@<TRIPOS>BOND
     1     1     2    2
     2     2     3   am
     3    20     3    1
     4    20    21    1
     5    21    22    1
     6    22    23    1
     7    23    24   ar
     8    24    25   ar
     9    25    26   ar
    10    26    27   ar
    11    27    28   ar
    12     2     4   am
    13     4     5    1
    14     5     6    1
    15     6     7    1
    16     7     8    1
    17     8     9    1
    18     9    10    1
    19    10    11   ar
    20    11    12   ar
    21    12    13   ar
    22    13    14   ar
    23    14    15   ar
    24    15    16    1
    25     7    17    1
    26    17    18    1
    27    22    20    1
    28    28    23   ar
    29    18     4    1
    30    16     7    1
    31    15    10   ar
    32     3    19    1
@<TRIPOS>MOLECULE
*****
 28 32 0 0 0
SMALL
GASTEIGER

@<TRIPOS>ATOM
      1 O           4.2650   -1.3366   22.7096 O.2     1  UNL1       -0.2526
      2 C           5.0224   -2.6192   22.8864 C.2     1  UNL1        0.3039
      3 N           5.2269   -3.5367   21.7175 N.am    1  UNL1       -0.2901
      4 N           5.5752   -2.9844   24.2322 N.am    1  UNL1       -0.2640
      5 C           5.3707   -2.0669   25.4011 C.3     1  UNL1        0.0985
      6 C           5.9235   -2.4320   26.7468 C.3     1  UNL1        0.0616
      7 C           6.6808   -3.7147   26.9236 C.3     1  UNL1        0.1368
      8 C           6.4763   -2.7972   28.0926 C.3     1  UNL1        0.0465
      9 C           7.0291   -3.1624   29.4383 C.3     1  UNL1        0.0525
     10 C           7.7865   -4.4450   29.6152 C.ar    1  UNL1        0.0929
     11 N           8.3393   -4.8101   30.9610 N.ar    1  UNL1       -0.2451
     12 C           9.0967   -6.0928   31.1378 C.ar    1  UNL1        0.0987
     13 C           9.3012   -7.0103   29.9688 C.ar    1  UNL1        0.0238
     14 C           8.7484   -6.6451   28.6231 C.ar    1  UNL1        0.0397
     15 C           7.9910   -5.3625   28.4463 C.ar    1  UNL1        0.1516
     16 O           7.4382   -4.9973   27.1005 O.3     1  UNL1       -0.4813
     17 C           6.8854   -4.6322   25.7547 C.3     1  UNL1        0.0616
     18 C           6.3326   -4.2670   24.4090 C.3     1  UNL1        0.0985
     19 H           5.7240   -4.3785   21.8336 H       1  UNL1        0.1509
     20 C           4.6741   -3.1716   20.3717 C.3     1  UNL1        0.0774
     21 C           4.5846   -3.4154   18.8944 C.3     1  UNL1        0.0259
     22 C           3.8061   -2.2953   19.5181 C.3     1  UNL1        0.0420
     23 C           2.8554   -1.1426   19.3853 C.ar    1  UNL1       -0.0208
     24 C           3.1069   -0.0773   18.3598 C.ar    1  UNL1       -0.0042
     25 C           2.1563    1.0754   18.2271 C.ar    1  UNL1       -0.0003
     26 C           0.9541    1.1627   19.1199 C.ar    1  UNL1       -0.0000
     27 C           0.7025    0.0973   20.1455 C.ar    1  UNL1       -0.0003
     28 C           1.6533   -1.0554   20.2781 C.ar    1  UNL1       -0.0042
@<TRIPOS>BOND
     1     1     2    2
     2     2     3   am
     3    20     3    1
     4    20    21    1
     5    21    22    1
     6    22    23    1
     7    23    24   ar
     8    24    25   ar
     9    25    26   ar
    10    26    27   ar
    11    27    28   ar
    12     2     4   am
    13     4     5    1
    14     5     6    1
    15     6     7    1
    16     7     8    1
    17     8     9    1
    18     9    10    1
    19    10    11   ar
    20    11    12   ar
    21    12    13   ar
    22    13    14   ar
    23    14    15   ar
    24    15    16    1
    25     7    17    1
    26    17    18    1
    27    22    20    1
    28    28    23   ar
    29    18     4    1
    30    16     7    1
    31    15    10   ar
    32     3    19    1
