@<TRIPOS>MOLECULE
*****
 31 36 0 0 0
SMALL
GASTEIGER

@<TRIPOS>ATOM
      1 C           3.5740   -2.4905   19.6050 C.3     1  UNL1        0.0312
      2 C           3.4845   -1.9270   20.9923 C.ar    1  UNL1       -0.0177
      3 C           2.4923   -0.8449   21.2996 C.ar    1  UNL1       -0.0043
      4 C           2.4027   -0.2814   22.6868 C.ar    1  UNL1       -0.0005
      5 C           3.3054   -0.8000   23.7667 C.ar    1  UNL1       -0.0027
      6 C           4.2975   -1.8821   23.4594 C.ar    1  UNL1        0.0017
      7 C           4.3871   -2.4456   22.0722 C.ar    1  UNL1        0.0473
      8 C           5.4552   -3.4987   22.0677 C.2     1  UNL1        0.2486
      9 O           5.8785   -4.3203   20.8862 O.2     1  UNL1       -0.2699
     10 N           6.0258   -3.5861   23.4522 N.am    1  UNL1       -0.2736
     11 C           5.3103   -2.5870   24.3123 C.3     1  UNL1        0.1205
     12 C           1.4105    0.8008   22.9942 C.2     1  UNL1        0.0292
     13 C           0.8508    1.6421   21.8855 C.2     1  UNL1        0.2320
     14 N          -0.1414    2.7242   22.1928 N.2     1  UNL1       -0.0311
     15 C          -0.5740    2.9652   23.6087 C.2     1  UNL1        0.3720
     16 N          -1.5292    3.9516   24.2123 N.2     1  UNL1       -0.0308
     17 C          -1.5600    3.7200   25.6940 C.2     1  UNL1        0.2358
     18 C          -0.6238    2.5904   26.0061 C.2     1  UNL1        0.0507
     19 C          -0.0144    2.1239   24.7174 C.2     1  UNL1        0.0743
     20 C           0.9779    1.0417   24.4101 C.3     1  UNL1        0.0645
     21 C          -0.3458    2.0264   27.3680 C.ar    1  UNL1        0.0067
     22 C           0.3558    2.8623   28.3971 C.ar    1  UNL1        0.0208
     23 C           0.6337    2.2982   29.7589 C.ar    1  UNL1        0.0989
     24 N           0.2101    0.8982   30.0916 N.ar    1  UNL1       -0.2423
     25 C          -0.4914    0.0624   29.0625 C.ar    1  UNL1        0.0989
     26 C          -0.7693    0.6264   27.7006 C.ar    1  UNL1        0.0208
     27 C           7.1198   -4.5104   23.8982 C.3     1  UNL1        0.0759
     28 C           8.2670   -4.8126   22.9804 C.3     1  UNL1        0.0215
     29 C           7.0667   -5.1323   25.2622 C.3     1  UNL1        0.0182
     30 C           7.2050   -6.3350   26.1477 C.3     1  UNL1        0.0017
     31 C           6.8362   -5.0068   26.7390 C.3     1  UNL1        0.0017
@<TRIPOS>BOND
     1     1     2    1
     2     2     3   ar
     3     3     4   ar
     4     4    12    1
     5    12    13    2
     6    13    14    1
     7    14    15    2
     8    15    16    1
     9    16    17    2
    10    17    18    1
    11    18    21    1
    12    21    22   ar
    13    22    23   ar
    14    23    24   ar
    15    24    25   ar
    16    25    26   ar
    17    18    19    2
    18    19    20    1
    19     4     5   ar
    20     5     6   ar
    21     6     7   ar
    22     7     8    1
    23     8     9    2
    24     8    10   am
    25    10    27    1
    26    27    28    1
    27    27    29    1
    28    29    30    1
    29    30    31    1
    30    10    11    1
    31     7     2   ar
    32    31    29    1
    33    20    12    1
    34    11     6    1
    35    19    15    1
    36    26    21   ar
@<TRIPOS>MOLECULE
*****
 31 36 0 0 0
SMALL
GASTEIGER

@<TRIPOS>ATOM
      1 C           2.9983    3.0112   18.2544 C.3     1  UNL1        0.0312
      2 C           2.5101    2.1841   19.4065 C.ar    1  UNL1       -0.0177
      3 C           1.5064    2.7523   20.3655 C.ar    1  UNL1       -0.0043
      4 C           1.0181    1.9252   21.5177 C.ar    1  UNL1       -0.0005
      5 C           1.5336    0.5299   21.7109 C.ar    1  UNL1       -0.0027
      6 C           2.5372   -0.0384   20.7519 C.ar    1  UNL1        0.0017
      7 C           3.0255    0.7887   19.5997 C.ar    1  UNL1        0.0473
      8 C           4.0105   -0.0339   18.8232 C.2     1  UNL1        0.2486
      9 O           4.7459    0.4024   17.5908 O.2     1  UNL1       -0.2699
     10 N           4.1310   -1.3694   19.4954 N.am    1  UNL1       -0.2736
     11 C           3.2205   -1.3721   20.6874 C.3     1  UNL1        0.1205
     12 C           0.0144    2.4935   22.4768 C.2     1  UNL1        0.0292
     13 C          -1.0357    3.4458   21.9865 C.2     1  UNL1        0.2320
     14 N          -2.0394    4.0141   22.9454 N.2     1  UNL1       -0.0311
     15 C          -1.9930    3.6301   24.3947 C.2     1  UNL1        0.3720
     16 N          -2.8431    4.0255   25.5655 N.2     1  UNL1       -0.0308
     17 C          -2.3185    3.3176   26.7794 C.2     1  UNL1        0.2358
     18 C          -1.1441    2.4847   26.3588 C.2     1  UNL1        0.0507
     19 C          -0.9429    2.6778   24.8850 C.2     1  UNL1        0.0743
     20 C           0.0608    2.1095   23.9260 C.3     1  UNL1        0.0645
     21 C          -0.3162    1.6118   27.2548 C.ar    1  UNL1        0.0067
     22 C          -0.9804    0.5878   28.1266 C.ar    1  UNL1        0.0208
     23 C          -0.1524   -0.2850   29.0226 C.ar    1  UNL1        0.0989
     24 N           1.3397   -0.1337   29.0468 N.ar    1  UNL1       -0.2423
     25 C           2.0039    0.8903   28.1749 C.ar    1  UNL1        0.0989
     26 C           1.1760    1.7631   27.2789 C.ar    1  UNL1        0.0208
     27 C           5.0081   -2.5031   19.0533 C.3     1  UNL1        0.0759
     28 C           6.4106   -2.2319   18.5955 C.3     1  UNL1        0.0215
     29 C           4.4827   -3.9080   19.0688 C.3     1  UNL1        0.0182
     30 C           4.5989   -5.3430   18.6482 C.3     1  UNL1        0.0017
     31 C           3.4565   -4.9062   19.5164 C.3     1  UNL1        0.0017
@<TRIPOS>BOND
     1     1     2    1
     2     2     3   ar
     3     3     4   ar
     4     4    12    1
     5    12    13    2
     6    13    14    1
     7    14    15    2
     8    15    16    1
     9    16    17    2
    10    17    18    1
    11    18    21    1
    12    21    22   ar
    13    22    23   ar
    14    23    24   ar
    15    24    25   ar
    16    25    26   ar
    17    18    19    2
    18    19    20    1
    19     4     5   ar
    20     5     6   ar
    21     6     7   ar
    22     7     8    1
    23     8     9    2
    24     8    10   am
    25    10    27    1
    26    27    28    1
    27    27    29    1
    28    29    30    1
    29    30    31    1
    30    10    11    1
    31     7     2   ar
    32    31    29    1
    33    20    12    1
    34    11     6    1
    35    19    15    1
    36    26    21   ar
@<TRIPOS>MOLECULE
*****
 31 36 0 0 0
SMALL
GASTEIGER

@<TRIPOS>ATOM
      1 C           2.4731    0.6631   27.0592 C.3     1  UNL1        0.0312
      2 C           3.5061   -0.3738   26.7307 C.ar    1  UNL1       -0.0177
      3 C           3.6173   -0.9049   25.3323 C.ar    1  UNL1       -0.0043
      4 C           4.6503   -1.9418   25.0038 C.ar    1  UNL1       -0.0005
      5 C           5.5721   -2.4474   26.0736 C.ar    1  UNL1       -0.0027
      6 C           5.4609   -1.9163   27.4720 C.ar    1  UNL1        0.0017
      7 C           4.4279   -0.8794   27.8005 C.ar    1  UNL1        0.0473
      8 C           4.5538   -0.5450   29.2573 C.2     1  UNL1        0.2486
      9 O           3.7160    0.4456   30.0101 O.2     1  UNL1       -0.2699
     10 N           5.6646   -1.3752   29.8292 N.am    1  UNL1       -0.2736
     11 C           6.2252   -2.2226   28.7258 C.3     1  UNL1        0.1205
     12 C           4.7614   -2.4730   23.6053 C.2     1  UNL1        0.0292
     13 C           5.6399   -3.6548   23.3196 C.2     1  UNL1        0.2320
     14 N           5.7511   -4.1859   21.9212 N.2     1  UNL1       -0.0311
     15 C           4.9838   -3.5353   20.8085 C.2     1  UNL1        0.3720
     16 N           4.8950   -3.8349   19.3415 N.2     1  UNL1       -0.0308
     17 C           3.9617   -2.8383   18.7206 C.2     1  UNL1        0.2358
     18 C           3.4736   -1.9227   19.8039 C.2     1  UNL1        0.0507
     19 C           4.1053   -2.3535   21.0943 C.2     1  UNL1        0.0743
     20 C           3.9942   -1.8223   22.4927 C.3     1  UNL1        0.0645
     21 C           2.5211   -0.7775   19.6276 C.ar    1  UNL1        0.0067
     22 C           2.8389    0.3196   18.6553 C.ar    1  UNL1        0.0208
     23 C           1.8863    1.4648   18.4790 C.ar    1  UNL1        0.0989
     24 N           0.6159    1.5130   19.2751 N.ar    1  UNL1       -0.2423
     25 C           0.2981    0.4159   20.2474 C.ar    1  UNL1        0.0989
     26 C           1.2507   -0.7293   20.4237 C.ar    1  UNL1        0.0208
     27 C           6.1326   -1.3604   31.2542 C.3     1  UNL1        0.0759
     28 C           7.5723   -1.0799   31.5679 C.3     1  UNL1        0.0215
     29 C           5.1609   -1.6263   32.3655 C.3     1  UNL1        0.0182
     30 C           4.4730   -2.5894   33.2870 C.3     1  UNL1        0.0017
     31 C           4.1657   -1.1235   33.3690 C.3     1  UNL1        0.0017
@<TRIPOS>BOND
     1     1     2    1
     2     2     3   ar
     3     3     4   ar
     4     4    12    1
     5    12    13    2
     6    13    14    1
     7    14    15    2
     8    15    16    1
     9    16    17    2
    10    17    18    1
    11    18    21    1
    12    21    22   ar
    13    22    23   ar
    14    23    24   ar
    15    24    25   ar
    16    25    26   ar
    17    18    19    2
    18    19    20    1
    19     4     5   ar
    20     5     6   ar
    21     6     7   ar
    22     7     8    1
    23     8     9    2
    24     8    10   am
    25    10    27    1
    26    27    28    1
    27    27    29    1
    28    29    30    1
    29    30    31    1
    30    10    11    1
    31     7     2   ar
    32    31    29    1
    33    20    12    1
    34    11     6    1
    35    19    15    1
    36    26    21   ar
@<TRIPOS>MOLECULE
*****
 31 36 0 0 0
SMALL
GASTEIGER

@<TRIPOS>ATOM
      1 C         -12.0571   -0.6382   17.7449 C.3     1  UNL1        0.0312
      2 C         -13.2131   -1.3592   18.3724 C.ar    1  UNL1       -0.0177
      3 C         -14.3888   -0.5844   18.8895 C.ar    1  UNL1       -0.0043
      4 C         -15.5449   -1.3054   19.5169 C.ar    1  UNL1       -0.0005
      5 C         -15.5253   -2.8012   19.6272 C.ar    1  UNL1       -0.0027
      6 C         -14.3496   -3.5760   19.1101 C.ar    1  UNL1        0.0017
      7 C         -13.1935   -2.8550   18.4827 C.ar    1  UNL1        0.0473
      8 C         -12.1800   -3.8790   18.0654 C.2     1  UNL1        0.2486
      9 O         -10.8672   -3.5984   17.3961 O.2     1  UNL1       -0.2699
     10 N         -12.7096   -5.2329   18.4350 N.am    1  UNL1       -0.2736
     11 C         -14.0505   -5.0456   19.0806 C.3     1  UNL1        0.1205
     12 C         -16.7206   -0.5306   20.0340 C.2     1  UNL1        0.0292
     13 C         -18.1145   -1.0189   19.7722 C.2     1  UNL1        0.2320
     14 N         -19.2902   -0.2441   20.2893 N.2     1  UNL1       -0.0311
     15 C         -19.0720    1.0191   21.0683 C.2     1  UNL1        0.3720
     16 N         -20.0284    1.9872   21.6990 N.2     1  UNL1       -0.0308
     17 C         -19.2257    3.0739   22.3506 C.2     1  UNL1        0.2358
     18 C         -17.7731    2.7774   22.1226 C.2     1  UNL1        0.0507
     19 C         -17.6781    1.5075   21.3301 C.2     1  UNL1        0.0743
     20 C         -16.5024    0.7326   20.8130 C.3     1  UNL1        0.0645
     21 C         -16.6183    3.6055   22.6029 C.ar    1  UNL1        0.0067
     22 C         -15.6691    4.2143   21.6137 C.ar    1  UNL1        0.0208
     23 C         -14.5143    5.0424   22.0941 C.ar    1  UNL1        0.0989
     24 N         -14.3087    5.2617   23.5636 N.ar    1  UNL1       -0.2423
     25 C         -15.2578    4.6529   24.5528 C.ar    1  UNL1        0.0989
     26 C         -16.4126    3.8248   24.0724 C.ar    1  UNL1        0.0208
     27 C         -12.0195   -6.5438   18.2001 C.3     1  UNL1        0.0759
     28 C         -12.7412   -7.6563   17.4990 C.3     1  UNL1        0.0215
     29 C         -10.6077   -6.7423   18.6663 C.3     1  UNL1        0.0182
     30 C          -9.4162   -7.6330   18.8585 C.3     1  UNL1        0.0017
     31 C          -9.3539   -6.1954   19.2818 C.3     1  UNL1        0.0017
@<TRIPOS>BOND
     1     1     2    1
     2     2     3   ar
     3     3     4   ar
     4     4    12    1
     5    12    13    2
     6    13    14    1
     7    14    15    2
     8    15    16    1
     9    16    17    2
    10    17    18    1
    11    18    21    1
    12    21    22   ar
    13    22    23   ar
    14    23    24   ar
    15    24    25   ar
    16    25    26   ar
    17    18    19    2
    18    19    20    1
    19     4     5   ar
    20     5     6   ar
    21     6     7   ar
    22     7     8    1
    23     8     9    2
    24     8    10   am
    25    10    27    1
    26    27    28    1
    27    27    29    1
    28    29    30    1
    29    30    31    1
    30    10    11    1
    31     7     2   ar
    32    31    29    1
    33    20    12    1
    34    11     6    1
    35    19    15    1
    36    26    21   ar
@<TRIPOS>MOLECULE
*****
 31 36 0 0 0
SMALL
GASTEIGER

@<TRIPOS>ATOM
      1 C           5.8349   -4.0689   19.7048 C.3     1  UNL1        0.0312
      2 C           5.2037   -3.2764   20.8109 C.ar    1  UNL1       -0.0177
      3 C           4.0874   -2.3218   20.5069 C.ar    1  UNL1       -0.0043
      4 C           3.4562   -1.5293   21.6130 C.ar    1  UNL1       -0.0005
      5 C           3.9412   -1.6914   23.0231 C.ar    1  UNL1       -0.0027
      6 C           5.0575   -2.6461   23.3271 C.ar    1  UNL1        0.0017
      7 C           5.6888   -3.4386   22.2209 C.ar    1  UNL1        0.0473
      8 C           6.7632   -4.2967   22.8204 C.2     1  UNL1        0.2486
      9 O           7.6492   -5.2497   22.0742 O.2     1  UNL1       -0.2699
     10 N           6.7960   -4.0346   24.2969 N.am    1  UNL1       -0.2736
     11 C           5.7418   -3.0145   24.6101 C.3     1  UNL1        0.1205
     12 C           2.3398   -0.5746   21.3090 C.2     1  UNL1        0.0292
     13 C           1.7529   -0.5218   19.9296 C.2     1  UNL1        0.2320
     14 N           0.6366    0.4329   19.6256 N.2     1  UNL1       -0.0311
     15 C           0.1071    1.3348   20.7009 C.2     1  UNL1        0.3720
     16 N          -0.9778    2.3704   20.6982 N.2     1  UNL1       -0.0308
     17 C          -1.0615    2.9578   22.0759 C.2     1  UNL1        0.2358
     18 C          -0.0282    2.2850   22.9300 C.2     1  UNL1        0.0507
     19 C           0.6941    1.2820   22.0803 C.2     1  UNL1        0.0743
     20 C           1.8104    0.3273   22.3843 C.3     1  UNL1        0.0645
     21 C           0.2364    2.5661   24.3796 C.ar    1  UNL1        0.0067
     22 C           1.5443    3.1679   24.8004 C.ar    1  UNL1        0.0208
     23 C           1.8087    3.4489   26.2499 C.ar    1  UNL1        0.0989
     24 N           0.7653    3.1281   27.2786 N.ar    1  UNL1       -0.2423
     25 C          -0.5427    2.5263   26.8578 C.ar    1  UNL1        0.0989
     26 C          -0.8071    2.2453   25.4083 C.ar    1  UNL1        0.0208
     27 C           7.7205   -4.6794   25.2865 C.3     1  UNL1        0.0759
     28 C           8.6369   -3.8326   26.1190 C.3     1  UNL1        0.0215
     29 C           7.7287   -6.1711   25.4437 C.3     1  UNL1        0.0182
     30 C           8.1945   -7.5227   24.9896 C.3     1  UNL1        0.0017
     31 C           7.2770   -7.4033   26.1702 C.3     1  UNL1        0.0017
@<TRIPOS>BOND
     1     1     2    1
     2     2     3   ar
     3     3     4   ar
     4     4    12    1
     5    12    13    2
     6    13    14    1
     7    14    15    2
     8    15    16    1
     9    16    17    2
    10    17    18    1
    11    18    21    1
    12    21    22   ar
    13    22    23   ar
    14    23    24   ar
    15    24    25   ar
    16    25    26   ar
    17    18    19    2
    18    19    20    1
    19     4     5   ar
    20     5     6   ar
    21     6     7   ar
    22     7     8    1
    23     8     9    2
    24     8    10   am
    25    10    27    1
    26    27    28    1
    27    27    29    1
    28    29    30    1
    29    30    31    1
    30    10    11    1
    31     7     2   ar
    32    31    29    1
    33    20    12    1
    34    11     6    1
    35    19    15    1
    36    26    21   ar
@<TRIPOS>MOLECULE
*****
 31 36 0 0 0
SMALL
GASTEIGER

@<TRIPOS>ATOM
      1 C           1.2563   -0.2028   19.4255 C.3     1  UNL1        0.0312
      2 C           1.9796   -0.4460   20.7169 C.ar    1  UNL1       -0.0177
      3 C           3.0944   -1.4479   20.7750 C.ar    1  UNL1       -0.0043
      4 C           3.8177   -1.6911   22.0664 C.ar    1  UNL1       -0.0005
      5 C           3.4263   -0.9324   23.2997 C.ar    1  UNL1       -0.0027
      6 C           2.3115    0.0695   23.2416 C.ar    1  UNL1        0.0017
      7 C           1.5882    0.3127   21.9502 C.ar    1  UNL1        0.0473
      8 C           0.5376    1.3546   22.1965 C.2     1  UNL1        0.2486
      9 O          -0.4191    1.9000   21.1780 O.2     1  UNL1       -0.2699
     10 N           0.6115    1.7554   23.6401 N.am    1  UNL1       -0.2736
     11 C           1.7079    0.9611   24.2860 C.3     1  UNL1        0.1205
     12 C           4.9326   -2.6931   22.1244 C.2     1  UNL1        0.0292
     13 C           5.5035   -3.2540   20.8558 C.2     1  UNL1        0.2320
     14 N           6.6183   -4.2559   20.9138 N.2     1  UNL1       -0.0311
     15 C           7.1622   -4.6969   22.2404 C.2     1  UNL1        0.3720
     16 N           8.2493   -5.6625   22.6086 N.2     1  UNL1       -0.0308
     17 C           8.3503   -5.6983   24.1048 C.2     1  UNL1        0.2358
     18 C           7.3255   -4.7548   24.6612 C.2     1  UNL1        0.0507
     19 C           6.5912   -4.1359   23.5090 C.2     1  UNL1        0.0743
     20 C           5.4764   -3.1340   23.4510 C.3     1  UNL1        0.0645
     21 C           7.0784   -4.4787   26.1148 C.ar    1  UNL1        0.0067
     22 C           6.5784   -5.5722   27.0115 C.ar    1  UNL1        0.0208
     23 C           6.3314   -5.2961   28.4650 C.ar    1  UNL1        0.0989
     24 N           6.5844   -3.9264   29.0218 N.ar    1  UNL1       -0.2423
     25 C           7.0844   -2.8329   28.1251 C.ar    1  UNL1        0.0989
     26 C           7.3315   -3.1091   26.6715 C.ar    1  UNL1        0.0208
     27 C          -0.2581    2.7719   24.3186 C.3     1  UNL1        0.0759
     28 C          -0.6041    4.0513   23.6164 C.3     1  UNL1        0.0215
     29 C          -0.7818    2.5089   25.6994 C.3     1  UNL1        0.0182
     30 C          -0.7227    1.7414   26.9868 C.3     1  UNL1        0.0017
     31 C          -1.7480    2.8209   26.8035 C.3     1  UNL1        0.0017
@<TRIPOS>BOND
     1     1     2    1
     2     2     3   ar
     3     3     4   ar
     4     4    12    1
     5    12    13    2
     6    13    14    1
     7    14    15    2
     8    15    16    1
     9    16    17    2
    10    17    18    1
    11    18    21    1
    12    21    22   ar
    13    22    23   ar
    14    23    24   ar
    15    24    25   ar
    16    25    26   ar
    17    18    19    2
    18    19    20    1
    19     4     5   ar
    20     5     6   ar
    21     6     7   ar
    22     7     8    1
    23     8     9    2
    24     8    10   am
    25    10    27    1
    26    27    28    1
    27    27    29    1
    28    29    30    1
    29    30    31    1
    30    10    11    1
    31     7     2   ar
    32    31    29    1
    33    20    12    1
    34    11     6    1
    35    19    15    1
    36    26    21   ar
@<TRIPOS>MOLECULE
*****
 31 36 0 0 0
SMALL
GASTEIGER

@<TRIPOS>ATOM
      1 C           3.1598   -0.2183   24.7348 C.3     1  UNL1        0.0312
      2 C           4.1561   -1.3284   24.5765 C.ar    1  UNL1       -0.0177
      3 C           5.0115   -1.7398   25.7380 C.ar    1  UNL1       -0.0043
      4 C           6.0078   -2.8499   25.5797 C.ar    1  UNL1       -0.0005
      5 C           6.1487   -3.5486   24.2599 C.ar    1  UNL1       -0.0027
      6 C           5.2933   -3.1373   23.0984 C.ar    1  UNL1        0.0017
      7 C           4.2970   -2.0272   23.2567 C.ar    1  UNL1        0.0473
      8 C           3.5968   -1.8420   21.9432 C.2     1  UNL1        0.2486
      9 O           2.5218   -0.8375   21.6511 O.2     1  UNL1       -0.2699
     10 N           4.1603   -2.8376   20.9730 N.am    1  UNL1       -0.2736
     11 C           5.2088   -3.6382   21.6870 C.3     1  UNL1        0.1205
     12 C           6.8632   -3.2612   26.7412 C.2     1  UNL1        0.0292
     13 C           8.1527   -3.9893   26.5023 C.2     1  UNL1        0.2320
     14 N           9.0081   -4.4006   27.6637 N.2     1  UNL1       -0.0311
     15 C           8.5740   -4.0839   29.0642 C.2     1  UNL1        0.3720
     16 N           9.2038   -4.3607   30.3971 N.2     1  UNL1       -0.0308
     17 C           8.3036   -3.8038   31.4598 C.2     1  UNL1        0.2358
     18 C           7.1175   -3.1827   30.7837 C.2     1  UNL1        0.0507
     19 C           7.2846   -3.3557   29.3032 C.2     1  UNL1        0.0743
     20 C           6.4291   -2.9444   28.1416 C.3     1  UNL1        0.0645
     21 C           5.9663   -2.5070   31.4681 C.ar    1  UNL1        0.0067
     22 C           5.5237   -2.9699   32.8245 C.ar    1  UNL1        0.0208
     23 C           4.3725   -2.2942   33.5088 C.ar    1  UNL1        0.0989
     24 N           3.6639   -1.1557   32.8367 N.ar    1  UNL1       -0.2423
     25 C           4.1065   -0.6929   31.4803 C.ar    1  UNL1        0.0989
     26 C           5.2577   -1.3686   30.7960 C.ar    1  UNL1        0.0208
     27 C           3.7478   -3.0036   19.5405 C.3     1  UNL1        0.0759
     28 C           3.2618   -4.3349   19.0493 C.3     1  UNL1        0.0215
     29 C           3.8213   -1.8382   18.5990 C.3     1  UNL1        0.0182
     30 C           4.5122   -1.1104   17.4841 C.3     1  UNL1        0.0017
     31 C           3.2576   -0.5473   18.0832 C.3     1  UNL1        0.0017
@<TRIPOS>BOND
     1     1     2    1
     2     2     3   ar
     3     3     4   ar
     4     4    12    1
     5    12    13    2
     6    13    14    1
     7    14    15    2
     8    15    16    1
     9    16    17    2
    10    17    18    1
    11    18    21    1
    12    21    22   ar
    13    22    23   ar
    14    23    24   ar
    15    24    25   ar
    16    25    26   ar
    17    18    19    2
    18    19    20    1
    19     4     5   ar
    20     5     6   ar
    21     6     7   ar
    22     7     8    1
    23     8     9    2
    24     8    10   am
    25    10    27    1
    26    27    28    1
    27    27    29    1
    28    29    30    1
    29    30    31    1
    30    10    11    1
    31     7     2   ar
    32    31    29    1
    33    20    12    1
    34    11     6    1
    35    19    15    1
    36    26    21   ar
@<TRIPOS>MOLECULE
*****
 31 36 0 0 0
SMALL
GASTEIGER

@<TRIPOS>ATOM
      1 C           3.2721   -0.2959   26.9292 C.3     1  UNL1        0.0312
      2 C           4.2754   -1.2618   26.3721 C.ar    1  UNL1       -0.0177
      3 C           4.3078   -1.5432   24.8991 C.ar    1  UNL1       -0.0043
      4 C           5.3111   -2.5091   24.3420 C.ar    1  UNL1       -0.0005
      5 C           6.2821   -3.1935   25.2578 C.ar    1  UNL1       -0.0027
      6 C           6.2497   -2.9120   26.7308 C.ar    1  UNL1        0.0017
      7 C           5.2464   -1.9461   27.2879 C.ar    1  UNL1        0.0473
      8 C           5.4518   -1.8689   28.7718 C.2     1  UNL1        0.2486
      9 O           4.6650   -1.0222   29.7278 O.2     1  UNL1       -0.2699
     10 N           6.5820   -2.7871   29.1318 N.am    1  UNL1       -0.2736
     11 C           7.0751   -3.4317   27.8703 C.3     1  UNL1        0.1205
     12 C           5.3435   -2.7906   22.8689 C.2     1  UNL1        0.0292
     13 C           6.2732   -3.8346   22.3251 C.2     1  UNL1        0.2320
     14 N           6.3056   -4.1161   20.8521 N.2     1  UNL1       -0.0311
     15 C           5.4082   -3.3536   19.9229 C.2     1  UNL1        0.3720
     16 N           5.2205   -3.4121   18.4359 N.2     1  UNL1       -0.0308
     17 C           4.1748   -2.4043   18.0607 C.2     1  UNL1        0.2358
     18 C           3.7162   -1.7230   19.3159 C.2     1  UNL1        0.0507
     19 C           4.4784   -2.3096   20.4667 C.2     1  UNL1        0.0743
     20 C           4.4461   -2.0282   21.9398 C.3     1  UNL1        0.0645
     21 C           2.6776   -0.6443   19.4044 C.ar    1  UNL1        0.0067
     22 C           2.8775    0.6511   18.6751 C.ar    1  UNL1        0.0208
     23 C           1.8388    1.7297   18.7637 C.ar    1  UNL1        0.0989
     24 N           0.6003    1.5129   19.5817 N.ar    1  UNL1       -0.2423
     25 C           0.4004    0.2175   20.3110 C.ar    1  UNL1        0.0989
     26 C           1.4391   -0.8611   20.2224 C.ar    1  UNL1        0.0208
     27 C           7.1239   -3.0197   30.5110 C.3     1  UNL1        0.0759
     28 C           7.3305   -1.8610   31.4409 C.3     1  UNL1        0.0215
     29 C           7.4592   -4.4109   30.9603 C.3     1  UNL1        0.0182
     30 C           8.4584   -5.5174   31.1253 C.3     1  UNL1        0.0017
     31 C           7.0406   -5.7143   31.5735 C.3     1  UNL1        0.0017
@<TRIPOS>BOND
     1     1     2    1
     2     2     3   ar
     3     3     4   ar
     4     4    12    1
     5    12    13    2
     6    13    14    1
     7    14    15    2
     8    15    16    1
     9    16    17    2
    10    17    18    1
    11    18    21    1
    12    21    22   ar
    13    22    23   ar
    14    23    24   ar
    15    24    25   ar
    16    25    26   ar
    17    18    19    2
    18    19    20    1
    19     4     5   ar
    20     5     6   ar
    21     6     7   ar
    22     7     8    1
    23     8     9    2
    24     8    10   am
    25    10    27    1
    26    27    28    1
    27    27    29    1
    28    29    30    1
    29    30    31    1
    30    10    11    1
    31     7     2   ar
    32    31    29    1
    33    20    12    1
    34    11     6    1
    35    19    15    1
    36    26    21   ar
@<TRIPOS>MOLECULE
*****
 31 36 0 0 0
SMALL
GASTEIGER

@<TRIPOS>ATOM
      1 C           2.5039   -0.1566   23.5640 C.3     1  UNL1        0.0312
      2 C           2.2204   -0.0492   22.0949 C.ar    1  UNL1       -0.0177
      3 C           1.2642    0.9901   21.5897 C.ar    1  UNL1       -0.0043
      4 C           0.9807    1.0975   20.1206 C.ar    1  UNL1       -0.0005
      5 C           1.6534    0.1656   19.1569 C.ar    1  UNL1       -0.0027
      6 C           2.6096   -0.8738   19.6621 C.ar    1  UNL1        0.0017
      7 C           2.8931   -0.9811   21.1312 C.ar    1  UNL1        0.0473
      8 C           3.8752   -2.0968   21.3334 C.2     1  UNL1        0.2486
      9 O           4.4355   -2.5506   22.6487 O.2     1  UNL1       -0.2699
     10 N           4.1987   -2.6789   19.9893 N.am    1  UNL1       -0.2736
     11 C           3.4165   -1.9230   18.9564 C.3     1  UNL1        0.1205
     12 C           0.0244    2.1369   19.6154 C.2     1  UNL1        0.0292
     13 C           0.1829    2.6921   18.2310 C.2     1  UNL1        0.2320
     14 N          -0.7734    3.7315   17.7257 N.2     1  UNL1       -0.0311
     15 C          -1.8882    4.2156   18.6048 C.2     1  UNL1        0.3720
     16 N          -2.9763    5.2237   18.3823 N.2     1  UNL1       -0.0308
     17 C          -3.8074    5.2915   19.6292 C.2     1  UNL1        0.2358
     18 C          -3.2328    4.3253   20.6223 C.2     1  UNL1        0.0507
     19 C          -2.0467    3.6604   19.9892 C.2     1  UNL1        0.0743
     20 C          -1.0904    2.6210   20.4945 C.3     1  UNL1        0.0645
     21 C          -3.7531    4.0691   22.0057 C.ar    1  UNL1        0.0067
     22 C          -2.7989    3.9610   23.1579 C.ar    1  UNL1        0.0208
     23 C          -3.3193    3.7048   24.5412 C.ar    1  UNL1        0.0989
     24 N          -4.7939    3.5567   24.7723 N.ar    1  UNL1       -0.2423
     25 C          -5.7482    3.6648   23.6201 C.ar    1  UNL1        0.0989
     26 C          -5.2278    3.9210   22.2368 C.ar    1  UNL1        0.0208
     27 C           5.1392   -3.8170   19.7246 C.3     1  UNL1        0.0759
     28 C           4.6604   -5.0281   18.9803 C.3     1  UNL1        0.0215
     29 C           6.5586   -3.7441   20.2042 C.3     1  UNL1        0.0182
     30 C           7.9000   -3.0730   20.1950 C.3     1  UNL1        0.0017
     31 C           7.6756   -4.2890   21.0441 C.3     1  UNL1        0.0017
@<TRIPOS>BOND
     1     1     2    1
     2     2     3   ar
     3     3     4   ar
     4     4    12    1
     5    12    13    2
     6    13    14    1
     7    14    15    2
     8    15    16    1
     9    16    17    2
    10    17    18    1
    11    18    21    1
    12    21    22   ar
    13    22    23   ar
    14    23    24   ar
    15    24    25   ar
    16    25    26   ar
    17    18    19    2
    18    19    20    1
    19     4     5   ar
    20     5     6   ar
    21     6     7   ar
    22     7     8    1
    23     8     9    2
    24     8    10   am
    25    10    27    1
    26    27    28    1
    27    27    29    1
    28    29    30    1
    29    30    31    1
    30    10    11    1
    31     7     2   ar
    32    31    29    1
    33    20    12    1
    34    11     6    1
    35    19    15    1
    36    26    21   ar
