@<TRIPOS>MOLECULE
*****
 24 25 0 0 0
SMALL
GASTEIGER

@<TRIPOS>ATOM
      1 C         -10.8174  -17.4386   22.8678 C.3     1  UNL1        0.0713
      2 C         -11.7078  -18.5610   23.3121 C.3     1  UNL1        0.0257
      3 C         -13.1182  -18.0507   23.3395 C.3     1  UNL1        0.0690
      4 N         -13.0993  -16.6130   22.9121 N.3     1  UNL1       -0.2971
      5 C         -11.6774  -16.2347   22.6206 C.3     1  UNL1        0.0759
      6 H         -13.4677  -16.0249   23.6596 H       1  UNL1        0.1233
      7 C          -9.6983  -16.5281   22.4572 C.2     1  UNL1        0.1736
      8 O          -9.6105  -16.0386   21.0421 O.2     1  UNL1       -0.2913
      9 C          -8.6669  -16.1072   23.4618 C.ar    1  UNL1        0.0356
     10 C          -7.2402  -15.9201   23.0385 C.ar    1  UNL1        0.0042
     11 C          -6.2089  -15.4992   24.0431 C.ar    1  UNL1        0.0150
     12 C          -6.6044  -15.2653   25.4710 C.ar    1  UNL1        0.0522
     13 N          -5.5730  -14.8444   26.4756 N.pl3   1  UNL1       -0.3563
     14 C          -8.0312  -15.4524   25.8943 C.ar    1  UNL1        0.0706
     15 CL         -8.4267  -15.2186   27.3222 Cl      1  UNL1       -0.0810
     16 C          -9.0624  -15.8734   24.8897 C.ar    1  UNL1        0.0155
     17 H          -4.6365  -14.7216   26.1977 H       1  UNL1        0.1424
     18 H          -5.8326  -14.6909   27.4128 H       1  UNL1        0.1424
     19 C          -9.7235  -18.4521   23.0291 C.3     1  UNL1        0.0087
     20 C          -9.5536  -19.5407   22.0112 C.3     1  UNL1        0.0005
     21 C          -9.4370  -19.3685   19.9001 C.3     1  UNL1        0.0000
     22 C          -8.4363  -19.4666   21.0131 C.3     1  UNL1        0.0000
     23 C          -7.4355  -19.5647   22.1262 C.3     1  UNL1        0.0000
     24 C          -7.3189  -19.3925   20.0151 C.3     1  UNL1        0.0000
@<TRIPOS>BOND
     1    21    22    1
     2    22    23    1
     3    22    24    1
     4    22    20    1
     5    20    19    1
     6    19     1    1
     7     1     7    1
     8     7     8    2
     9     7     9    1
    10     9    10   ar
    11    10    11   ar
    12    11    12   ar
    13    12    13    1
    14    12    14   ar
    15    14    15    1
    16    14    16   ar
    17     1     2    1
    18     2     3    1
    19     3     4    1
    20     4     5    1
    21     5     1    1
    22    16     9   ar
    23    13    17    1
    24    13    18    1
    25     4     6    1
@<TRIPOS>MOLECULE
*****
 24 25 0 0 0
SMALL
GASTEIGER

@<TRIPOS>ATOM
      1 C          -8.4913  -16.4897   23.9172 C.3     1  UNL1        0.0713
      2 C          -8.8887  -16.6258   25.3572 C.3     1  UNL1        0.0257
      3 C          -8.2075  -15.5361   26.1310 C.3     1  UNL1        0.0690
      4 N          -7.3893  -14.7266   25.1693 N.3     1  UNL1       -0.2971
      5 C          -7.5646  -15.3159   23.8010 C.3     1  UNL1        0.0759
      6 H          -6.4057  -14.7608   25.4374 H       1  UNL1        0.1233
      7 C          -8.2784  -16.6039   22.4368 C.2     1  UNL1        0.1736
      8 O          -8.8161  -15.5472   21.5180 O.2     1  UNL1       -0.2913
      9 C          -7.5277  -17.7749   21.8752 C.ar    1  UNL1        0.0356
     10 C          -8.1381  -18.6037   20.7841 C.ar    1  UNL1        0.0042
     11 C          -7.3874  -19.7746   20.2226 C.ar    1  UNL1        0.0150
     12 C          -6.0264  -20.1168   20.7521 C.ar    1  UNL1        0.0522
     13 N          -5.2757  -21.2878   20.1905 N.pl3   1  UNL1       -0.3563
     14 C          -5.4160  -19.2880   21.8432 C.ar    1  UNL1        0.0706
     15 CL         -4.0549  -19.6302   22.3727 Cl      1  UNL1       -0.0810
     16 C          -6.1666  -18.1171   22.4048 C.ar    1  UNL1        0.0155
     17 H          -5.6763  -21.8317   19.4744 H       1  UNL1        0.1424
     18 H          -4.3824  -21.5124   20.5381 H       1  UNL1        0.1424
     19 C          -9.3735  -17.6873   23.7239 C.3     1  UNL1        0.0087
     20 C         -10.8643  -17.5406   23.7992 C.3     1  UNL1        0.0005
     21 C         -11.3159  -19.1846   22.5369 C.3     1  UNL1        0.0000
     22 C         -11.7003  -17.7351   22.5690 C.3     1  UNL1        0.0000
     23 C         -12.0848  -16.2855   22.6012 C.3     1  UNL1        0.0000
     24 C         -12.5363  -17.9295   21.3389 C.3     1  UNL1        0.0000
@<TRIPOS>BOND
     1    21    22    1
     2    22    23    1
     3    22    24    1
     4    22    20    1
     5    20    19    1
     6    19     1    1
     7     1     7    1
     8     7     8    2
     9     7     9    1
    10     9    10   ar
    11    10    11   ar
    12    11    12   ar
    13    12    13    1
    14    12    14   ar
    15    14    15    1
    16    14    16   ar
    17     1     2    1
    18     2     3    1
    19     3     4    1
    20     4     5    1
    21     5     1    1
    22    16     9   ar
    23    13    17    1
    24    13    18    1
    25     4     6    1
@<TRIPOS>MOLECULE
*****
 24 25 0 0 0
SMALL
GASTEIGER

@<TRIPOS>ATOM
      1 C          -8.2564  -16.1366   23.9788 C.3     1  UNL1        0.0713
      2 C          -8.8395  -16.1637   25.3605 C.3     1  UNL1        0.0257
      3 C          -7.8536  -15.5236   26.2924 C.3     1  UNL1        0.0690
      4 N          -6.6612  -15.1009   25.4865 N.3     1  UNL1       -0.2971
      5 C          -6.9101  -15.4798   24.0566 C.3     1  UNL1        0.0759
      6 H          -5.8258  -15.5749   25.8298 H       1  UNL1        0.1233
      7 C          -7.9409  -16.2519   22.5169 C.2     1  UNL1        0.1736
      8 O          -8.0970  -15.0600   21.6197 O.2     1  UNL1       -0.2913
      9 C          -7.4693  -17.5591   21.9521 C.ar    1  UNL1        0.0356
     10 C          -6.2848  -18.2533   22.5562 C.ar    1  UNL1        0.0042
     11 C          -5.8132  -19.5605   21.9914 C.ar    1  UNL1        0.0150
     12 C          -6.5262  -20.1734   20.8227 C.ar    1  UNL1        0.0522
     13 N          -6.0546  -21.4806   20.2579 N.pl3   1  UNL1       -0.3563
     14 C          -7.7107  -19.4791   20.2186 C.ar    1  UNL1        0.0706
     15 CL         -8.4237  -20.0920   19.0499 Cl      1  UNL1       -0.0810
     16 C          -8.1823  -18.1720   20.7834 C.ar    1  UNL1        0.0155
     17 H          -5.2772  -21.9362   20.6544 H       1  UNL1        0.1424
     18 H          -6.5226  -21.8829   19.4908 H       1  UNL1        0.1424
     19 C          -9.5367  -16.8175   23.5953 C.3     1  UNL1        0.0087
     20 C          -9.8922  -18.1426   24.2017 C.3     1  UNL1        0.0005
     21 C         -11.5222  -18.3207   22.8557 C.3     1  UNL1        0.0000
     22 C         -10.4396  -19.2401   23.3380 C.3     1  UNL1        0.0000
     23 C          -9.3569  -20.1595   23.8204 C.3     1  UNL1        0.0000
     24 C         -10.9868  -20.3377   22.4744 C.3     1  UNL1        0.0000
@<TRIPOS>BOND
     1    21    22    1
     2    22    23    1
     3    22    24    1
     4    22    20    1
     5    20    19    1
     6    19     1    1
     7     1     7    1
     8     7     8    2
     9     7     9    1
    10     9    10   ar
    11    10    11   ar
    12    11    12   ar
    13    12    13    1
    14    12    14   ar
    15    14    15    1
    16    14    16   ar
    17     1     2    1
    18     2     3    1
    19     3     4    1
    20     4     5    1
    21     5     1    1
    22    16     9   ar
    23    13    17    1
    24    13    18    1
    25     4     6    1
@<TRIPOS>MOLECULE
*****
 24 25 0 0 0
SMALL
GASTEIGER

@<TRIPOS>ATOM
      1 C         -10.7481  -17.9430   22.5834 C.3     1  UNL1        0.0713
      2 C         -11.4100  -16.6295   22.8777 C.3     1  UNL1        0.0257
      3 C         -12.5267  -16.4423   21.8939 C.3     1  UNL1        0.0690
      4 N         -12.5550  -17.6402   20.9915 N.3     1  UNL1       -0.2971
      5 C         -11.4558  -18.5677   21.4176 C.3     1  UNL1        0.0759
      6 H         -12.4072  -17.3491   20.0251 H       1  UNL1        0.1233
      7 C          -9.9014  -19.1800   22.5304 C.2     1  UNL1        0.1736
      8 O         -10.3770  -20.4431   23.1849 O.2     1  UNL1       -0.2913
      9 C          -8.5789  -19.1539   21.8228 C.ar    1  UNL1        0.0356
     10 C          -8.5237  -19.2972   20.3307 C.ar    1  UNL1        0.0042
     11 C          -7.2013  -19.2711   19.6232 C.ar    1  UNL1        0.0150
     12 C          -5.9342  -19.1018   20.4078 C.ar    1  UNL1        0.0522
     13 N          -4.6117  -19.0757   19.7003 N.pl3   1  UNL1       -0.3563
     14 C          -5.9894  -18.9586   21.8999 C.ar    1  UNL1        0.0706
     15 CL         -4.7222  -18.7893   22.6846 Cl      1  UNL1       -0.0810
     16 C          -7.3118  -18.9847   22.6074 C.ar    1  UNL1        0.0155
     17 H          -4.5755  -19.1697   18.7209 H       1  UNL1        0.1424
     18 H          -3.7800  -18.9646   20.2152 H       1  UNL1        0.1424
     19 C          -9.8634  -17.5770   23.7380 C.3     1  UNL1        0.0087
     20 C          -9.5408  -16.1374   24.0088 C.3     1  UNL1        0.0005
     21 C          -7.8452  -15.4983   22.9059 C.3     1  UNL1        0.0000
     22 C          -8.1383  -15.7357   24.3577 C.3     1  UNL1        0.0000
     23 C          -8.4316  -15.9732   25.8095 C.3     1  UNL1        0.0000
     24 C          -6.7359  -15.3341   24.7066 C.3     1  UNL1        0.0000
@<TRIPOS>BOND
     1    21    22    1
     2    22    23    1
     3    22    24    1
     4    22    20    1
     5    20    19    1
     6    19     1    1
     7     1     7    1
     8     7     8    2
     9     7     9    1
    10     9    10   ar
    11    10    11   ar
    12    11    12   ar
    13    12    13    1
    14    12    14   ar
    15    14    15    1
    16    14    16   ar
    17     1     2    1
    18     2     3    1
    19     3     4    1
    20     4     5    1
    21     5     1    1
    22    16     9   ar
    23    13    17    1
    24    13    18    1
    25     4     6    1
@<TRIPOS>MOLECULE
*****
 24 25 0 0 0
SMALL
GASTEIGER

@<TRIPOS>ATOM
      1 C         -11.0128  -17.1282   21.7158 C.3     1  UNL1        0.0713
      2 C         -11.9113  -18.3155   21.5341 C.3     1  UNL1        0.0257
      3 C         -13.2033  -18.0316   22.2414 C.3     1  UNL1        0.0690
      4 N         -13.1032  -16.6689   22.8603 N.3     1  UNL1       -0.2971
      5 C         -11.7494  -16.1106   22.5354 C.3     1  UNL1        0.0759
      6 H         -13.2151  -16.7390   23.8717 H       1  UNL1        0.1233
      7 C          -9.9122  -16.1091   21.7266 C.2     1  UNL1        0.1736
      8 O          -9.7371  -15.1818   20.5607 O.2     1  UNL1       -0.2913
      9 C          -8.9865  -16.0173   22.9035 C.ar    1  UNL1        0.0356
     10 C          -9.4980  -16.3038   24.2841 C.ar    1  UNL1        0.0042
     11 C          -8.5724  -16.2120   25.4609 C.ar    1  UNL1        0.0150
     12 C          -7.1353  -15.8338   25.2569 C.ar    1  UNL1        0.0522
     13 N          -6.2096  -15.7420   26.4338 N.pl3   1  UNL1       -0.3563
     14 C          -6.6238  -15.5473   23.8763 C.ar    1  UNL1        0.0706
     15 CL         -5.1867  -15.1691   23.6724 Cl      1  UNL1       -0.0810
     16 C          -7.5494  -15.6391   22.6996 C.ar    1  UNL1        0.0155
     17 H          -6.5454  -15.9300   27.3400 H       1  UNL1        0.1424
     18 H          -5.2664  -15.4938   26.3000 H       1  UNL1        0.1424
     19 C         -10.0460  -17.9328   20.8985 C.3     1  UNL1        0.0087
     20 C          -9.6277  -19.2973   21.3600 C.3     1  UNL1        0.0005
     21 C          -7.7567  -19.2523   20.3615 C.3     1  UNL1        0.0000
     22 C          -8.2047  -19.5498   21.7617 C.3     1  UNL1        0.0000
     23 C          -8.6528  -19.8472   23.1620 C.3     1  UNL1        0.0000
     24 C          -6.7818  -19.8023   22.1635 C.3     1  UNL1        0.0000
@<TRIPOS>BOND
     1    21    22    1
     2    22    23    1
     3    22    24    1
     4    22    20    1
     5    20    19    1
     6    19     1    1
     7     1     7    1
     8     7     8    2
     9     7     9    1
    10     9    10   ar
    11    10    11   ar
    12    11    12   ar
    13    12    13    1
    14    12    14   ar
    15    14    15    1
    16    14    16   ar
    17     1     2    1
    18     2     3    1
    19     3     4    1
    20     4     5    1
    21     5     1    1
    22    16     9   ar
    23    13    17    1
    24    13    18    1
    25     4     6    1
@<TRIPOS>MOLECULE
*****
 24 25 0 0 0
SMALL
GASTEIGER

@<TRIPOS>ATOM
      1 C           5.6436   -0.9873   18.3976 C.3     1  UNL1        0.0713
      2 C           6.9166   -1.4345   19.0529 C.3     1  UNL1        0.0257
      3 C           7.7021   -0.2113   19.4230 C.3     1  UNL1        0.0690
      4 N           6.9145    0.9919   18.9964 N.3     1  UNL1       -0.2971
      5 C           5.6423    0.5123   18.3627 C.3     1  UNL1        0.0759
      6 H           7.4527    1.5369   18.3228 H       1  UNL1        0.1233
      7 C           4.3128   -0.8474   17.7201 C.2     1  UNL1        0.1736
      8 O           4.1759   -1.1713   16.2619 O.2     1  UNL1       -0.2913
      9 C           3.1187   -0.3836   18.5007 C.ar    1  UNL1        0.0356
     10 C           2.7171   -1.1024   19.7545 C.ar    1  UNL1        0.0042
     11 C           1.5231   -0.6386   20.5350 C.ar    1  UNL1        0.0150
     12 C           0.7308    0.5439   20.0617 C.ar    1  UNL1        0.0522
     13 N          -0.4633    1.0076   20.8424 N.pl3   1  UNL1       -0.3563
     14 C           1.1325    1.2626   18.8080 C.ar    1  UNL1        0.0706
     15 CL          0.3402    2.4451   18.3347 Cl      1  UNL1       -0.0810
     16 C           2.3264    0.7989   18.0274 C.ar    1  UNL1        0.0155
     17 H          -0.7269    0.5359   21.6653 H       1  UNL1        0.1424
     18 H          -0.9833    1.7837   20.5318 H       1  UNL1        0.1424
     19 C           5.3667   -2.4576   18.2910 C.3     1  UNL1        0.0087
     20 C           5.6047   -3.3531   19.4705 C.3     1  UNL1        0.0005
     21 C           4.4842   -4.8758   18.5083 C.3     1  UNL1        0.0000
     22 C           4.5450   -4.3234   19.9015 C.3     1  UNL1        0.0000
     23 C           4.6059   -3.7710   21.2948 C.3     1  UNL1        0.0000
     24 C           3.4855   -5.2937   20.3325 C.3     1  UNL1        0.0000
@<TRIPOS>BOND
     1    21    22    1
     2    22    23    1
     3    22    24    1
     4    22    20    1
     5    20    19    1
     6    19     1    1
     7     1     7    1
     8     7     8    2
     9     7     9    1
    10     9    10   ar
    11    10    11   ar
    12    11    12   ar
    13    12    13    1
    14    12    14   ar
    15    14    15    1
    16    14    16   ar
    17     1     2    1
    18     2     3    1
    19     3     4    1
    20     4     5    1
    21     5     1    1
    22    16     9   ar
    23    13    17    1
    24    13    18    1
    25     4     6    1
@<TRIPOS>MOLECULE
*****
 24 25 0 0 0
SMALL
GASTEIGER

@<TRIPOS>ATOM
      1 C           4.6988   -3.1417   20.1795 C.3     1  UNL1        0.0713
      2 C           5.2456   -3.6848   18.8926 C.3     1  UNL1        0.0257
      3 C           4.7134   -5.0757   18.7131 C.3     1  UNL1        0.0690
      4 N           3.8377   -5.3922   19.8891 N.3     1  UNL1       -0.2971
      5 C           3.8287   -4.1970   20.7954 C.3     1  UNL1        0.0759
      6 H           4.2069   -6.2019   20.3876 H       1  UNL1        0.1233
      7 C           4.3172   -2.3432   21.3906 C.2     1  UNL1        0.1736
      8 O           5.0777   -2.5146   22.6721 O.2     1  UNL1       -0.2913
      9 C           3.1752   -1.3732   21.3201 C.ar    1  UNL1        0.0356
     10 C           2.2036   -1.4402   20.1794 C.ar    1  UNL1        0.0042
     11 C           1.0616   -0.4702   20.1090 C.ar    1  UNL1        0.0150
     12 C           0.8913    0.5668   21.1794 C.ar    1  UNL1        0.0522
     13 N          -0.2508    1.5368   21.1089 N.pl3   1  UNL1       -0.3563
     14 C           1.8629    0.6337   22.3201 C.ar    1  UNL1        0.0706
     15 CL          1.6925    1.6707   23.3905 Cl      1  UNL1       -0.0810
     16 C           3.0049   -0.3363   22.3905 C.ar    1  UNL1        0.0155
     17 H          -0.8885    1.4928   20.3602 H       1  UNL1        0.1424
     18 H          -0.3626    2.2174   21.8114 H       1  UNL1        0.1424
     19 C           5.4892   -1.9195   19.8169 C.3     1  UNL1        0.0087
     20 C           5.4219   -1.3692   18.4231 C.3     1  UNL1        0.0005
     21 C           3.9988   -0.6061   17.0475 C.3     1  UNL1        0.0000
     22 C           4.7996   -0.0270   18.1759 C.3     1  UNL1        0.0000
     23 C           5.6004    0.5522   19.3043 C.3     1  UNL1        0.0000
     24 C           4.1773    1.3153   17.9288 C.3     1  UNL1        0.0000
@<TRIPOS>BOND
     1    21    22    1
     2    22    23    1
     3    22    24    1
     4    22    20    1
     5    20    19    1
     6    19     1    1
     7     1     7    1
     8     7     8    2
     9     7     9    1
    10     9    10   ar
    11    10    11   ar
    12    11    12   ar
    13    12    13    1
    14    12    14   ar
    15    14    15    1
    16    14    16   ar
    17     1     2    1
    18     2     3    1
    19     3     4    1
    20     4     5    1
    21     5     1    1
    22    16     9   ar
    23    13    17    1
    24    13    18    1
    25     4     6    1
@<TRIPOS>MOLECULE
*****
 24 25 0 0 0
SMALL
GASTEIGER

@<TRIPOS>ATOM
      1 C           5.4370   -3.0372   19.8210 C.3     1  UNL1        0.0713
      2 C           6.8964   -2.9023   19.5017 C.3     1  UNL1        0.0257
      3 C           7.6714   -3.6333   20.5577 C.3     1  UNL1        0.0690
      4 N           6.6910   -4.2200   21.5295 N.3     1  UNL1       -0.2971
      5 C           5.3100   -3.8516   21.0742 C.3     1  UNL1        0.0759
      6 H           6.8601   -3.8429   22.4620 H       1  UNL1        0.1233
      7 C           3.9387   -3.0004   19.8809 C.2     1  UNL1        0.1736
      8 O           3.1349   -4.0823   19.2227 O.2     1  UNL1       -0.2913
      9 C           3.2441   -1.8815   20.5991 C.ar    1  UNL1        0.0356
     10 C           3.7583   -1.4087   21.9265 C.ar    1  UNL1        0.0042
     11 C           3.0637   -0.2899   22.6446 C.ar    1  UNL1        0.0150
     12 C           1.8549    0.3562   22.0352 C.ar    1  UNL1        0.0522
     13 N           1.1603    1.4751   22.7534 N.pl3   1  UNL1       -0.3563
     14 C           1.3406   -0.1165   20.7078 C.ar    1  UNL1        0.0706
     15 CL          0.1318    0.5296   20.0985 Cl      1  UNL1       -0.0810
     16 C           2.0352   -1.2353   19.9897 C.ar    1  UNL1        0.0155
     17 H           1.4978    1.7854   23.6246 H       1  UNL1        0.1424
     18 H           0.3669    1.8992   22.3535 H       1  UNL1        0.1424
     19 C           5.2506   -2.2151   18.5803 C.3     1  UNL1        0.0087
     20 C           5.8586   -0.8469   18.4889 C.3     1  UNL1        0.0005
     21 C           4.2870   -0.2156   17.2115 C.3     1  UNL1        0.0000
     22 C           4.9751    0.3629   18.4122 C.3     1  UNL1        0.0000
     23 C           5.6632    0.9413   19.6131 C.3     1  UNL1        0.0000
     24 C           4.0916    1.5727   18.3358 C.3     1  UNL1        0.0000
@<TRIPOS>BOND
     1    21    22    1
     2    22    23    1
     3    22    24    1
     4    22    20    1
     5    20    19    1
     6    19     1    1
     7     1     7    1
     8     7     8    2
     9     7     9    1
    10     9    10   ar
    11    10    11   ar
    12    11    12   ar
    13    12    13    1
    14    12    14   ar
    15    14    15    1
    16    14    16   ar
    17     1     2    1
    18     2     3    1
    19     3     4    1
    20     4     5    1
    21     5     1    1
    22    16     9   ar
    23    13    17    1
    24    13    18    1
    25     4     6    1
@<TRIPOS>MOLECULE
*****
 24 25 0 0 0
SMALL
GASTEIGER

@<TRIPOS>ATOM
      1 C           5.1085   -2.0061   19.0264 C.3     1  UNL1        0.0713
      2 C           6.2205   -2.4240   19.9423 C.3     1  UNL1        0.0257
      3 C           6.1542   -3.9140   20.1022 C.3     1  UNL1        0.0690
      4 N           5.0012   -4.4170   19.2851 N.3     1  UNL1       -0.2971
      5 C           4.3550   -3.2379   18.6202 C.3     1  UNL1        0.0759
      6 H           4.3269   -4.8859   19.8899 H       1  UNL1        0.1233
      7 C           4.1105   -1.3000   18.1574 C.2     1  UNL1        0.1736
      8 O           4.2876   -1.2893   16.6680 O.2     1  UNL1       -0.2913
      9 C           2.9352   -0.6044   18.7780 C.ar    1  UNL1        0.0356
     10 C           2.2258   -1.2260   19.9442 C.ar    1  UNL1        0.0042
     11 C           1.0506   -0.5305   20.5647 C.ar    1  UNL1        0.0150
     12 C           0.5847    0.7867   20.0188 C.ar    1  UNL1        0.0522
     13 N          -0.5906    1.4823   20.6393 N.pl3   1  UNL1       -0.3563
     14 C           1.2941    1.4084   18.8526 C.ar    1  UNL1        0.0706
     15 CL          0.8283    2.7256   18.3067 Cl      1  UNL1       -0.0810
     16 C           2.4693    0.7128   18.2321 C.ar    1  UNL1        0.0155
     17 H          -1.0562    1.0743   21.4048 H       1  UNL1        0.1424
     18 H          -0.8963    2.3468   20.2811 H       1  UNL1        0.1424
     19 C           5.6534   -0.6268   19.2509 C.3     1  UNL1        0.0087
     20 C           5.9097   -0.1395   20.6462 C.3     1  UNL1        0.0005
     21 C           4.6643   -0.0591   22.3616 C.3     1  UNL1        0.0000
     22 C           5.0105    0.8943   21.2567 C.3     1  UNL1        0.0000
     23 C           5.3568    1.8479   20.1516 C.3     1  UNL1        0.0000
     24 C           4.1114    1.9283   21.8670 C.3     1  UNL1        0.0000
@<TRIPOS>BOND
     1    21    22    1
     2    22    23    1
     3    22    24    1
     4    22    20    1
     5    20    19    1
     6    19     1    1
     7     1     7    1
     8     7     8    2
     9     7     9    1
    10     9    10   ar
    11    10    11   ar
    12    11    12   ar
    13    12    13    1
    14    12    14   ar
    15    14    15    1
    16    14    16   ar
    17     1     2    1
    18     2     3    1
    19     3     4    1
    20     4     5    1
    21     5     1    1
    22    16     9   ar
    23    13    17    1
    24    13    18    1
    25     4     6    1
