@<TRIPOS>MOLECULE
*****
 24 26 0 0 0
SMALL
GASTEIGER

@<TRIPOS>ATOM
      1 C         -10.0998  -18.6855   24.1108 C.ar    1  UNL1        0.1386
      2 C          -9.4750  -20.0101   23.7870 C.ar    1  UNL1        0.0369
      3 C          -8.2223  -20.0673   22.9640 C.ar    1  UNL1        0.0043
      4 C          -7.5944  -18.7998   22.4647 C.ar    1  UNL1        0.0153
      5 C          -8.2193  -17.4752   22.7884 C.ar    1  UNL1        0.0043
      6 C          -9.4720  -17.4180   23.6115 C.ar    1  UNL1        0.0369
      7 C          -6.3417  -18.8570   21.6416 C.2     1  UNL1        0.0767
      8 N          -6.3780  -18.4709   20.1926 N.2     1  UNL1       -0.1836
      9 N          -5.1252  -18.5281   19.3696 N.am    1  UNL1       -0.2062
     10 C          -3.8362  -18.9714   19.9955 C.2     1  UNL1        0.2415
     11 O          -2.5835  -19.0286   19.1725 O.2     1  UNL1       -0.2734
     12 C          -3.7999  -19.3575   21.4446 C.3     1  UNL1        0.0931
     13 C          -5.0526  -19.3003   22.2676 C.3     1  UNL1        0.0570
     14 H          -5.1491  -18.2747   18.4185 H       1  UNL1        0.1772
     15 O         -11.3526  -18.6283   24.9339 O.3     1  UNL1       -0.4754
     16 C         -12.6905  -18.5585   24.2594 C.3     1  UNL1        0.2068
     17 C         -12.9663  -17.4840   23.2497 C.3     1  UNL1        0.0646
     18 C         -13.1386  -17.8407   21.8030 C.3     1  UNL1        0.0759
     19 C         -11.2944  -16.0001   19.8382 C.3     1  UNL1        0.0173
     20 C         -11.1140  -17.4662   20.0984 C.3     1  UNL1        0.0576
     21 C         -10.0542  -18.3438   19.5012 C.3     1  UNL1        0.0174
     22 C         -10.2469  -19.7323   20.0353 C.3     1  UNL1        0.0187
     23 C         -11.4257  -19.7127   20.9625 C.3     1  UNL1        0.0721
     24 N         -11.9617  -18.3123   21.0016 N.3     1  UNL1       -0.2738
@<TRIPOS>BOND
     1    20    19    1
     2    20    21    1
     3    21    22    1
     4    22    23    1
     5    23    24    1
     6    24    18    1
     7    18    17    1
     8    17    16    1
     9    16    15    1
    10    15     1    1
    11     1     2   ar
    12     2     3   ar
    13     3     4   ar
    14     4     7    1
    15     7     8    2
    16     8     9    1
    17     9    10   am
    18    10    11    2
    19    10    12    1
    20    12    13    1
    21     4     5   ar
    22     5     6   ar
    23    24    20    1
    24     6     1   ar
    25    13     7    1
    26     9    14    1
@<TRIPOS>MOLECULE
*****
 24 26 0 0 0
SMALL
GASTEIGER

@<TRIPOS>ATOM
      1 C          -9.0956  -19.5914   21.3523 C.ar    1  UNL1        0.1386
      2 C          -8.5805  -19.3887   19.9582 C.ar    1  UNL1        0.0369
      3 C          -7.1070  -19.2458   19.7166 C.ar    1  UNL1        0.0043
      4 C          -6.1487  -19.3056   20.8690 C.ar    1  UNL1        0.0153
      5 C          -6.6638  -19.5082   22.2630 C.ar    1  UNL1        0.0043
      6 C          -8.1373  -19.6512   22.5047 C.ar    1  UNL1        0.0369
      7 C          -4.6752  -19.1626   20.6272 C.2     1  UNL1        0.0767
      8 N          -4.1812  -18.5067   19.3720 N.2     1  UNL1       -0.1836
      9 N          -2.7077  -18.3638   19.1302 N.am    1  UNL1       -0.2062
     10 C          -1.7282  -18.8768   20.1438 C.2     1  UNL1        0.2415
     11 O          -0.2547  -18.7339   19.9021 O.2     1  UNL1       -0.2734
     12 C          -2.2222  -19.5327   21.3991 C.3     1  UNL1        0.0931
     13 C          -3.6957  -19.6756   21.6408 C.3     1  UNL1        0.0570
     14 H          -2.3835  -17.9333   18.3063 H       1  UNL1        0.1772
     15 O         -10.5692  -19.7343   21.5940 O.3     1  UNL1       -0.4754
     16 C         -11.1210  -19.5735   22.9795 C.3     1  UNL1        0.2068
     17 C         -12.1951  -18.5609   23.2462 C.3     1  UNL1        0.0646
     18 C         -11.8332  -17.1196   23.4498 C.3     1  UNL1        0.0759
     19 C         -10.6650  -16.1220   20.5707 C.3     1  UNL1        0.0173
     20 C          -9.8966  -16.1939   21.8569 C.3     1  UNL1        0.0576
     21 C          -8.4563  -15.8199   22.0455 C.3     1  UNL1        0.0174
     22 C          -8.1031  -16.0473   23.4855 C.3     1  UNL1        0.0187
     23 C          -9.3251  -16.5619   24.1868 C.3     1  UNL1        0.0721
     24 N         -10.4336  -16.6525   23.1803 N.3     1  UNL1       -0.2738
@<TRIPOS>BOND
     1    20    19    1
     2    20    21    1
     3    21    22    1
     4    22    23    1
     5    23    24    1
     6    24    18    1
     7    18    17    1
     8    17    16    1
     9    16    15    1
    10    15     1    1
    11     1     2   ar
    12     2     3   ar
    13     3     4   ar
    14     4     7    1
    15     7     8    2
    16     8     9    1
    17     9    10   am
    18    10    11    2
    19    10    12    1
    20    12    13    1
    21     4     5   ar
    22     5     6   ar
    23    24    20    1
    24     6     1   ar
    25    13     7    1
    26     9    14    1
@<TRIPOS>MOLECULE
*****
 24 26 0 0 0
SMALL
GASTEIGER

@<TRIPOS>ATOM
      1 C          -6.8544  -18.8700   20.8672 C.ar    1  UNL1        0.1386
      2 C          -6.9337  -18.2891   22.2479 C.ar    1  UNL1        0.0369
      3 C          -8.2590  -18.1846   22.9426 C.ar    1  UNL1        0.0043
      4 C          -9.5050  -18.6608   22.2565 C.ar    1  UNL1        0.0153
      5 C          -9.4257  -19.2416   20.8758 C.ar    1  UNL1        0.0043
      6 C          -8.1004  -19.3462   20.1812 C.ar    1  UNL1        0.0369
      7 C         -10.8303  -18.5562   22.9512 C.2     1  UNL1        0.0767
      8 N         -10.9694  -19.0110   24.3738 N.2     1  UNL1       -0.1836
      9 N         -12.2948  -18.9064   25.0685 N.am    1  UNL1       -0.2062
     10 C         -13.4810  -18.3470   24.3406 C.2     1  UNL1        0.2415
     11 O         -14.8063  -18.2424   25.0352 O.2     1  UNL1       -0.2734
     12 C         -13.3419  -17.8923   22.9179 C.3     1  UNL1        0.0931
     13 C         -12.0166  -17.9969   22.2233 C.3     1  UNL1        0.0570
     14 H         -12.3860  -19.2048   26.0023 H       1  UNL1        0.1772
     15 O          -5.5290  -18.9745   20.1725 O.3     1  UNL1       -0.4754
     16 C          -4.9236  -20.3217   19.9110 C.3     1  UNL1        0.2068
     17 C          -3.4546  -20.5381   20.1244 C.3     1  UNL1        0.0646
     18 C          -2.7711  -19.9267   21.3114 C.3     1  UNL1        0.0759
     19 C          -3.6706  -17.4507   23.2374 C.3     1  UNL1        0.0173
     20 C          -2.6689  -17.3820   22.1230 C.3     1  UNL1        0.0576
     21 C          -1.9048  -16.1631   21.6982 C.3     1  UNL1        0.0174
     22 C          -1.0191  -16.5479   20.5503 C.3     1  UNL1        0.0187
     23 C          -1.2358  -18.0046   20.2657 C.3     1  UNL1        0.0721
     24 N          -2.2555  -18.5201   21.2377 N.3     1  UNL1       -0.2738
@<TRIPOS>BOND
     1    20    19    1
     2    20    21    1
     3    21    22    1
     4    22    23    1
     5    23    24    1
     6    24    18    1
     7    18    17    1
     8    17    16    1
     9    16    15    1
    10    15     1    1
    11     1     2   ar
    12     2     3   ar
    13     3     4   ar
    14     4     7    1
    15     7     8    2
    16     8     9    1
    17     9    10   am
    18    10    11    2
    19    10    12    1
    20    12    13    1
    21     4     5   ar
    22     5     6   ar
    23    24    20    1
    24     6     1   ar
    25    13     7    1
    26     9    14    1
@<TRIPOS>MOLECULE
*****
 24 26 0 0 0
SMALL
GASTEIGER

@<TRIPOS>ATOM
      1 C          -8.0691  -19.4844   21.7561 C.ar    1  UNL1        0.1386
      2 C          -7.4514  -19.9836   20.4836 C.ar    1  UNL1        0.0369
      3 C          -6.0022  -19.7207   20.1998 C.ar    1  UNL1        0.0043
      4 C          -5.1706  -18.9586   21.1886 C.ar    1  UNL1        0.0153
      5 C          -5.7882  -18.4594   22.4611 C.ar    1  UNL1        0.0043
      6 C          -7.2375  -18.7224   22.7448 C.ar    1  UNL1        0.0369
      7 C          -3.7213  -18.6956   20.9047 C.2     1  UNL1        0.0767
      8 N          -2.7591  -18.4973   22.0382 N.2     1  UNL1       -0.1836
      9 N          -1.3098  -18.2344   21.7544 N.am    1  UNL1       -0.2062
     10 C          -0.8228  -18.1698   20.3371 C.2     1  UNL1        0.2415
     11 O           0.6264  -17.9069   20.0532 O.2     1  UNL1       -0.2734
     12 C          -1.7851  -18.3681   19.2036 C.3     1  UNL1        0.0931
     13 C          -3.2343  -18.6311   19.4875 C.3     1  UNL1        0.0570
     14 H          -0.6782  -18.1042   22.4983 H       1  UNL1        0.1772
     15 O          -9.5184  -19.7474   22.0399 O.3     1  UNL1       -0.4754
     16 C          -9.9373  -20.2668   23.3832 C.3     1  UNL1        0.2068
     17 C         -10.4823  -19.3243   24.4152 C.3     1  UNL1        0.0646
     18 C         -10.3359  -17.8430   24.2298 C.3     1  UNL1        0.0759
     19 C         -13.4861  -17.8165   23.3785 C.3     1  UNL1        0.0173
     20 C         -12.3638  -17.1659   22.6255 C.3     1  UNL1        0.0576
     21 C         -12.4925  -16.3889   21.3489 C.3     1  UNL1        0.0174
     22 C         -11.1239  -15.9208   20.9512 C.3     1  UNL1        0.0187
     23 C         -10.1495  -16.4086   21.9820 C.3     1  UNL1        0.0721
     24 N         -10.9158  -17.1781   23.0168 N.3     1  UNL1       -0.2738
@<TRIPOS>BOND
     1    20    19    1
     2    20    21    1
     3    21    22    1
     4    22    23    1
     5    23    24    1
     6    24    18    1
     7    18    17    1
     8    17    16    1
     9    16    15    1
    10    15     1    1
    11     1     2   ar
    12     2     3   ar
    13     3     4   ar
    14     4     7    1
    15     7     8    2
    16     8     9    1
    17     9    10   am
    18    10    11    2
    19    10    12    1
    20    12    13    1
    21     4     5   ar
    22     5     6   ar
    23    24    20    1
    24     6     1   ar
    25    13     7    1
    26     9    14    1
@<TRIPOS>MOLECULE
*****
 24 26 0 0 0
SMALL
GASTEIGER

@<TRIPOS>ATOM
      1 C          -5.8288  -15.6337   26.0499 C.ar    1  UNL1        0.1386
      2 C          -4.8675  -16.7582   26.2972 C.ar    1  UNL1        0.0369
      3 C          -3.9876  -17.2506   25.1868 C.ar    1  UNL1        0.0043
      4 C          -4.0690  -16.6184   23.8289 C.ar    1  UNL1        0.0153
      5 C          -5.0303  -15.4939   23.5815 C.ar    1  UNL1        0.0043
      6 C          -5.9103  -15.0015   24.6920 C.ar    1  UNL1        0.0369
      7 C          -3.1890  -17.1109   22.7184 C.2     1  UNL1        0.0767
      8 N          -2.2967  -16.1521   21.9873 N.2     1  UNL1       -0.1836
      9 N          -1.4167  -16.6446   20.8767 N.am    1  UNL1       -0.2062
     10 C          -1.4291  -18.0958   20.4974 C.2     1  UNL1        0.2415
     11 O          -0.5491  -18.5882   19.3869 O.2     1  UNL1       -0.2734
     12 C          -2.3215  -19.0545   21.2285 C.3     1  UNL1        0.0931
     13 C          -3.2014  -18.5621   22.3390 C.3     1  UNL1        0.0570
     14 H          -0.8310  -16.0153   20.3969 H       1  UNL1        0.1772
     15 O          -6.7088  -15.1412   27.1604 O.3     1  UNL1       -0.4754
     16 C          -8.1568  -15.5309   27.1989 C.3     1  UNL1        0.2068
     17 C          -8.6171  -16.7766   26.5014 C.3     1  UNL1        0.0646
     18 C          -9.1756  -16.6953   25.1117 C.3     1  UNL1        0.0759
     19 C          -7.5923  -17.8858   22.5184 C.3     1  UNL1        0.0173
     20 C          -8.7934  -18.4983   23.1757 C.3     1  UNL1        0.0576
     21 C          -9.4777  -19.7655   22.7563 C.3     1  UNL1        0.0174
     22 C         -10.6284  -20.0016   23.6892 C.3     1  UNL1        0.0187
     23 C         -10.6553  -18.8802   24.6851 C.3     1  UNL1        0.0721
     24 N          -9.5212  -17.9511   24.3677 N.3     1  UNL1       -0.2738
@<TRIPOS>BOND
     1    20    19    1
     2    20    21    1
     3    21    22    1
     4    22    23    1
     5    23    24    1
     6    24    18    1
     7    18    17    1
     8    17    16    1
     9    16    15    1
    10    15     1    1
    11     1     2   ar
    12     2     3   ar
    13     3     4   ar
    14     4     7    1
    15     7     8    2
    16     8     9    1
    17     9    10   am
    18    10    11    2
    19    10    12    1
    20    12    13    1
    21     4     5   ar
    22     5     6   ar
    23    24    20    1
    24     6     1   ar
    25    13     7    1
    26     9    14    1
@<TRIPOS>MOLECULE
*****
 24 26 0 0 0
SMALL
GASTEIGER

@<TRIPOS>ATOM
      1 C          -8.6735  -17.7073   23.6089 C.ar    1  UNL1        0.1386
      2 C          -8.4018  -18.9084   22.7525 C.ar    1  UNL1        0.0369
      3 C          -7.0392  -19.1145   22.1603 C.ar    1  UNL1        0.0043
      4 C          -5.9483  -18.1195   22.4245 C.ar    1  UNL1        0.0153
      5 C          -6.2199  -16.9184   23.2810 C.ar    1  UNL1        0.0043
      6 C          -7.5826  -16.7123   23.8731 C.ar    1  UNL1        0.0369
      7 C          -4.5856  -18.3256   21.8323 C.2     1  UNL1        0.0767
      8 N          -4.4437  -18.9546   20.4780 N.2     1  UNL1       -0.1836
      9 N          -3.0810  -19.1607   19.8858 N.am    1  UNL1       -0.2062
     10 C          -1.8602  -18.7379   20.6479 C.2     1  UNL1        0.2415
     11 O          -0.4976  -18.9440   20.0558 O.2     1  UNL1       -0.2734
     12 C          -2.0021  -18.1090   22.0024 C.3     1  UNL1        0.0931
     13 C          -3.3648  -17.9028   22.5945 C.3     1  UNL1        0.0570
     14 H          -2.9879  -19.5735   18.9968 H       1  UNL1        0.1772
     15 O         -10.0362  -17.5011   24.2011 O.3     1  UNL1       -0.4754
     16 C         -10.8826  -18.6847   24.5653 C.3     1  UNL1        0.2068
     17 C         -12.3780  -18.5849   24.5035 C.3     1  UNL1        0.0646
     18 C         -13.0433  -18.0424   23.2734 C.3     1  UNL1        0.0759
     19 C         -11.4365  -20.2071   21.4345 C.3     1  UNL1        0.0173
     20 C         -11.4878  -18.7249   21.2096 C.3     1  UNL1        0.0576
     21 C         -10.8094  -17.9775   20.1000 C.3     1  UNL1        0.0174
     22 C         -11.1287  -16.5206   20.2595 C.3     1  UNL1        0.0187
     23 C         -12.0044  -16.3676   21.4677 C.3     1  UNL1        0.0721
     24 N         -12.2263  -17.7299   22.0549 N.3     1  UNL1       -0.2738
@<TRIPOS>BOND
     1    20    19    1
     2    20    21    1
     3    21    22    1
     4    22    23    1
     5    23    24    1
     6    24    18    1
     7    18    17    1
     8    17    16    1
     9    16    15    1
    10    15     1    1
    11     1     2   ar
    12     2     3   ar
    13     3     4   ar
    14     4     7    1
    15     7     8    2
    16     8     9    1
    17     9    10   am
    18    10    11    2
    19    10    12    1
    20    12    13    1
    21     4     5   ar
    22     5     6   ar
    23    24    20    1
    24     6     1   ar
    25    13     7    1
    26     9    14    1
@<TRIPOS>MOLECULE
*****
 24 26 0 0 0
SMALL
GASTEIGER

@<TRIPOS>ATOM
      1 C          -8.4079  -19.5381   21.1317 C.ar    1  UNL1        0.1386
      2 C          -7.8168  -19.4238   19.7579 C.ar    1  UNL1        0.0369
      3 C          -6.3365  -19.2480   19.5906 C.ar    1  UNL1        0.0043
      4 C          -5.4475  -19.1865   20.7971 C.ar    1  UNL1        0.0153
      5 C          -6.0386  -19.3008   22.1709 C.ar    1  UNL1        0.0043
      6 C          -7.5188  -19.4766   22.3382 C.ar    1  UNL1        0.0369
      7 C          -3.9672  -19.0107   20.6298 C.2     1  UNL1        0.0767
      8 N          -3.3456  -19.1387   19.2706 N.2     1  UNL1       -0.1836
      9 N          -1.8653  -18.9629   19.1033 N.am    1  UNL1       -0.2062
     10 C          -1.0067  -18.6591   20.2951 C.2     1  UNL1        0.2415
     11 O           0.4735  -18.4833   20.1278 O.2     1  UNL1       -0.2734
     12 C          -1.6283  -18.5311   21.6543 C.3     1  UNL1        0.0931
     13 C          -3.1085  -18.7069   21.8216 C.3     1  UNL1        0.0570
     14 H          -1.4574  -19.0469   18.2112 H       1  UNL1        0.1772
     15 O          -9.8882  -19.7139   21.2991 O.3     1  UNL1       -0.4754
     16 C         -10.4249  -20.4744   22.4752 C.3     1  UNL1        0.2068
     17 C         -10.5985  -19.7869   23.7971 C.3     1  UNL1        0.0646
     18 C         -10.7261  -18.2935   23.8546 C.3     1  UNL1        0.0759
     19 C          -8.7151  -16.0927   22.5272 C.3     1  UNL1        0.0173
     20 C          -8.7762  -16.4693   23.9779 C.3     1  UNL1        0.0576
     21 C          -7.9236  -15.9004   25.0731 C.3     1  UNL1        0.0174
     22 C          -8.3210  -16.5604   26.3602 C.3     1  UNL1        0.0187
     23 C          -9.4192  -17.5372   26.0604 C.3     1  UNL1        0.0721
     24 N          -9.7005  -17.4809   24.5880 N.3     1  UNL1       -0.2738
@<TRIPOS>BOND
     1    20    19    1
     2    20    21    1
     3    21    22    1
     4    22    23    1
     5    23    24    1
     6    24    18    1
     7    18    17    1
     8    17    16    1
     9    16    15    1
    10    15     1    1
    11     1     2   ar
    12     2     3   ar
    13     3     4   ar
    14     4     7    1
    15     7     8    2
    16     8     9    1
    17     9    10   am
    18    10    11    2
    19    10    12    1
    20    12    13    1
    21     4     5   ar
    22     5     6   ar
    23    24    20    1
    24     6     1   ar
    25    13     7    1
    26     9    14    1
@<TRIPOS>MOLECULE
*****
 24 26 0 0 0
SMALL
GASTEIGER

@<TRIPOS>ATOM
      1 C           5.2013   -2.5399   18.4075 C.ar    1  UNL1        0.1386
      2 C           6.6146   -2.3088   18.8534 C.ar    1  UNL1        0.0369
      3 C           7.0813   -2.8444   20.1745 C.ar    1  UNL1        0.0043
      4 C           6.1346   -3.6111   21.0496 C.ar    1  UNL1        0.0153
      5 C           4.7212   -3.8422   20.6037 C.ar    1  UNL1        0.0043
      6 C           4.2546   -3.3066   19.2826 C.ar    1  UNL1        0.0369
      7 C           6.6013   -4.1468   22.3708 C.2     1  UNL1        0.0767
      8 N           7.6191   -5.2476   22.4165 N.2     1  UNL1       -0.1836
      9 N           8.0859   -5.7832   23.7376 N.am    1  UNL1       -0.2062
     10 C           7.5347   -5.2180   25.0130 C.2     1  UNL1        0.2415
     11 O           8.0013   -5.7535   26.3341 O.2     1  UNL1       -0.2734
     12 C           6.5168   -4.1171   24.9673 C.3     1  UNL1        0.0931
     13 C           6.0501   -3.5815   23.6462 C.3     1  UNL1        0.0570
     14 H           8.7539   -6.5057   23.7676 H       1  UNL1        0.1772
     15 O           4.7346   -2.0042   17.0863 O.3     1  UNL1       -0.4754
     16 C           4.4306   -0.5433   16.9345 C.3     1  UNL1        0.2068
     17 C           3.2903    0.0684   17.6933 C.3     1  UNL1        0.0646
     18 C           3.5601    0.8894   18.9193 C.3     1  UNL1        0.0759
     19 C           1.1012   -0.6543   20.4093 C.3     1  UNL1        0.0173
     20 C           2.4893   -0.4794   20.9502 C.3     1  UNL1        0.0576
     21 C           2.9908   -0.9835   22.2709 C.3     1  UNL1        0.0174
     22 C           4.4311   -0.5854   22.4024 C.3     1  UNL1        0.0187
     23 C           4.8196    0.1646   21.1628 C.3     1  UNL1        0.0721
     24 N           3.6195    0.2301   20.2653 N.3     1  UNL1       -0.2738
@<TRIPOS>BOND
     1    20    19    1
     2    20    21    1
     3    21    22    1
     4    22    23    1
     5    23    24    1
     6    24    18    1
     7    18    17    1
     8    17    16    1
     9    16    15    1
    10    15     1    1
    11     1     2   ar
    12     2     3   ar
    13     3     4   ar
    14     4     7    1
    15     7     8    2
    16     8     9    1
    17     9    10   am
    18    10    11    2
    19    10    12    1
    20    12    13    1
    21     4     5   ar
    22     5     6   ar
    23    24    20    1
    24     6     1   ar
    25    13     7    1
    26     9    14    1
@<TRIPOS>MOLECULE
*****
 24 26 0 0 0
SMALL
GASTEIGER

@<TRIPOS>ATOM
      1 C          -6.8039  -18.2400   22.4395 C.ar    1  UNL1        0.1386
      2 C          -7.5351  -16.9613   22.7226 C.ar    1  UNL1        0.0369
      3 C          -8.9848  -16.9955   23.1061 C.ar    1  UNL1        0.0043
      4 C          -9.7033  -18.3084   23.2066 C.ar    1  UNL1        0.0153
      5 C          -8.9721  -19.5871   22.9235 C.ar    1  UNL1        0.0043
      6 C          -7.5224  -19.5529   22.5399 C.ar    1  UNL1        0.0369
      7 C         -11.1531  -18.3425   23.5901 C.2     1  UNL1        0.0767
      8 N         -11.5707  -18.9654   24.8892 N.2     1  UNL1       -0.1836
      9 N         -13.0205  -18.9995   25.2727 N.am    1  UNL1       -0.2062
     10 C         -14.0526  -18.4108   24.3572 C.2     1  UNL1        0.2415
     11 O         -15.5023  -18.4449   24.7407 O.2     1  UNL1       -0.2734
     12 C         -13.6348  -17.7879   23.0581 C.3     1  UNL1        0.0931
     13 C         -12.1851  -17.7538   22.6746 C.3     1  UNL1        0.0570
     14 H         -13.2946  -19.4084   26.1253 H       1  UNL1        0.1772
     15 O          -5.3541  -18.2058   22.0559 O.3     1  UNL1       -0.4754
     16 C          -4.6619  -19.4655   21.6271 C.3     1  UNL1        0.2068
     17 C          -3.2019  -19.6543   21.9149 C.3     1  UNL1        0.0646
     18 C          -2.2242  -18.5683   21.5765 C.3     1  UNL1        0.0759
     19 C           0.6279  -17.8884   20.1437 C.3     1  UNL1        0.0173
     20 C          -0.7213  -17.8376   19.4903 C.3     1  UNL1        0.0576
     21 C          -0.9964  -17.4653   18.0635 C.3     1  UNL1        0.0174
     22 C          -2.4775  -17.5477   17.8402 C.3     1  UNL1        0.0187
     23 C          -3.1176  -17.9709   19.1291 C.3     1  UNL1        0.0721
     24 N          -2.0323  -18.1501   20.1488 N.3     1  UNL1       -0.2738
@<TRIPOS>BOND
     1    20    19    1
     2    20    21    1
     3    21    22    1
     4    22    23    1
     5    23    24    1
     6    24    18    1
     7    18    17    1
     8    17    16    1
     9    16    15    1
    10    15     1    1
    11     1     2   ar
    12     2     3   ar
    13     3     4   ar
    14     4     7    1
    15     7     8    2
    16     8     9    1
    17     9    10   am
    18    10    11    2
    19    10    12    1
    20    12    13    1
    21     4     5   ar
    22     5     6   ar
    23    24    20    1
    24     6     1   ar
    25    13     7    1
    26     9    14    1
