@<TRIPOS>MOLECULE
*****
 28 30 0 0 0
SMALL
GASTEIGER

@<TRIPOS>ATOM
      1 C          -9.9143  -18.3398   22.7222 C.3     1  UNL1        0.0377
      2 C         -10.6399  -19.0455   21.6153 C.3     1  UNL1        0.0075
      3 C          -9.8804  -19.5572   20.4273 C.3     1  UNL1        0.0219
      4 C          -8.3951  -19.3631   20.3463 C.3     1  UNL1        0.0950
      5 N          -7.6695  -18.6574   21.4532 N.am    1  UNL1       -0.2637
      6 C          -6.1843  -18.4632   21.3722 C.2     1  UNL1        0.3077
      7 O          -5.4587  -17.7575   22.4792 O.2     1  UNL1       -0.2522
      8 N          -5.4248  -18.9749   20.1842 N.am    1  UNL1       -0.2681
      9 C          -8.4290  -18.1457   22.6412 C.3     1  UNL1        0.0989
     10 H          -5.9010  -19.4381   19.4577 H       1  UNL1        0.1564
     11 C          -3.9396  -18.7808   20.1033 C.ar    1  UNL1        0.0516
     12 C          -3.0394  -19.4614   21.0915 C.ar    1  UNL1        0.0156
     13 C          -1.5543  -19.2674   21.0106 C.ar    1  UNL1        0.0127
     14 C          -0.9692  -18.3926   19.9416 C.ar    1  UNL1        0.0578
     15 CL          0.5160  -18.1985   19.8607 Cl      1  UNL1       -0.0822
     16 C          -1.8695  -17.7120   18.9534 C.ar    1  UNL1        0.0127
     17 C          -3.3547  -17.9061   19.0343 C.ar    1  UNL1        0.0156
     18 C         -11.3166  -18.2818   23.2516 C.ar    1  UNL1       -0.0212
     19 C         -12.4032  -17.6547   22.4295 C.ar    1  UNL1       -0.0042
     20 C         -13.8055  -17.5967   22.9588 C.ar    1  UNL1       -0.0003
     21 C         -14.1211  -18.1658   24.3103 C.ar    1  UNL1       -0.0000
     22 C         -13.0345  -18.7929   25.1324 C.ar    1  UNL1       -0.0003
     23 C         -11.6322  -18.8509   24.6031 C.ar    1  UNL1       -0.0042
     24 C          -9.6756  -17.6139   24.0131 C.3     1  UNL1        0.0116
     25 C          -9.3387  -16.1523   24.0004 C.3     1  UNL1        0.0421
     26 O          -7.2058  -14.7523   24.4913 O.co2   1  UNL1       -0.5492
     27 C          -8.3408  -15.6041   24.9771 C.2     1  UNL1        0.0503
     28 O          -8.4781  -15.9079   26.4396 O.co2   1  UNL1       -0.5492
@<TRIPOS>UNITY_ATOM_ATTR
26 1
charge -1
@<TRIPOS>BOND
     1    26    27   ar
     2    27    28   ar
     3    27    25    1
     4    25    24    1
     5    24     1    1
     6     1    18    1
     7    18    19   ar
     8    19    20   ar
     9    20    21   ar
    10    21    22   ar
    11    22    23   ar
    12     1     2    1
    13     2     3    1
    14     3     4    1
    15     4     5    1
    16     5     6   am
    17     6     7    2
    18     6     8   am
    19     8    11    1
    20    11    12   ar
    21    12    13   ar
    22    13    14   ar
    23    14    15    1
    24    14    16   ar
    25    16    17   ar
    26     5     9    1
    27     9     1    1
    28    23    18   ar
    29    17    11   ar
    30     8    10    1
@<TRIPOS>MOLECULE
*****
 28 30 0 0 0
SMALL
GASTEIGER

@<TRIPOS>ATOM
      1 C         -10.7816  -18.5468   23.2499 C.3     1  UNL1        0.0377
      2 C         -10.8834  -19.8316   24.0173 C.3     1  UNL1        0.0075
      3 C          -9.6940  -20.7395   24.1211 C.3     1  UNL1        0.0219
      4 C          -8.4026  -20.3626   23.4574 C.3     1  UNL1        0.0950
      5 N          -8.3008  -19.0779   22.6900 N.am    1  UNL1       -0.2637
      6 C          -7.0094  -18.7010   22.0263 C.2     1  UNL1        0.3077
      7 O          -6.9077  -17.4162   21.2589 O.2     1  UNL1       -0.2522
      8 N          -5.8200  -19.6089   22.1300 N.am    1  UNL1       -0.2681
      9 C          -9.4903  -18.1699   22.5862 C.3     1  UNL1        0.0989
     10 H          -5.8868  -20.4522   22.6337 H       1  UNL1        0.1564
     11 C          -4.5287  -19.2320   21.4663 C.ar    1  UNL1        0.0516
     12 C          -3.3937  -18.6930   22.2858 C.ar    1  UNL1        0.0156
     13 C          -2.1025  -18.3161   21.6222 C.ar    1  UNL1        0.0127
     14 C          -1.9461  -18.4781   20.1391 C.ar    1  UNL1        0.0578
     15 CL         -0.6547  -18.1011   19.4755 Cl      1  UNL1       -0.0822
     16 C          -3.0810  -19.0170   19.3197 C.ar    1  UNL1        0.0127
     17 C          -4.3723  -19.3940   19.9834 C.ar    1  UNL1        0.0156
     18 C         -12.2099  -18.4679   23.7016 C.ar    1  UNL1       -0.0212
     19 C         -12.5513  -18.6696   25.1482 C.ar    1  UNL1       -0.0042
     20 C         -13.9795  -18.5908   25.5997 C.ar    1  UNL1       -0.0003
     21 C         -15.0663  -18.3102   24.6047 C.ar    1  UNL1       -0.0000
     22 C         -14.7249  -18.1084   23.1581 C.ar    1  UNL1       -0.0003
     23 C         -13.2967  -18.1873   22.7065 C.ar    1  UNL1       -0.0042
     24 C         -11.1758  -17.2346   22.6393 C.3     1  UNL1        0.0116
     25 C         -10.4789  -16.7418   21.4059 C.3     1  UNL1        0.0421
     26 O         -10.5607  -15.1119   19.3843 O.co2   1  UNL1       -0.5492
     27 C         -11.2586  -16.0403   20.3335 C.2     1  UNL1        0.0503
     28 O         -12.7362  -16.2673   20.2104 O.co2   1  UNL1       -0.5492
@<TRIPOS>UNITY_ATOM_ATTR
26 1
charge -1
@<TRIPOS>BOND
     1    26    27   ar
     2    27    28   ar
     3    27    25    1
     4    25    24    1
     5    24     1    1
     6     1    18    1
     7    18    19   ar
     8    19    20   ar
     9    20    21   ar
    10    21    22   ar
    11    22    23   ar
    12     1     2    1
    13     2     3    1
    14     3     4    1
    15     4     5    1
    16     5     6   am
    17     6     7    2
    18     6     8   am
    19     8    11    1
    20    11    12   ar
    21    12    13   ar
    22    13    14   ar
    23    14    15    1
    24    14    16   ar
    25    16    17   ar
    26     5     9    1
    27     9     1    1
    28    23    18   ar
    29    17    11   ar
    30     8    10    1
@<TRIPOS>MOLECULE
*****
 28 30 0 0 0
SMALL
GASTEIGER

@<TRIPOS>ATOM
      1 C          -4.4336  -18.2313   21.4782 C.3     1  UNL1        0.0377
      2 C          -4.4621  -18.9827   20.1804 C.3     1  UNL1        0.0075
      3 C          -5.7552  -19.5424   19.6660 C.3     1  UNL1        0.0219
      4 C          -7.0198  -19.3508   20.4497 C.3     1  UNL1        0.0950
      5 N          -6.9913  -18.5994   21.7475 N.am    1  UNL1       -0.2637
      6 C          -8.2560  -18.4077   22.5312 C.2     1  UNL1        0.3077
      7 O          -8.2274  -17.6563   23.8291 O.2     1  UNL1       -0.2522
      8 N          -9.5491  -18.9675   22.0169 N.am    1  UNL1       -0.2681
      9 C          -5.6982  -18.0396   22.2619 C.3     1  UNL1        0.0989
     10 H          -9.5678  -19.4607   21.1650 H       1  UNL1        0.1564
     11 C         -10.8136  -18.7758   22.8005 C.ar    1  UNL1        0.0516
     12 C         -10.9154  -19.3037   24.2009 C.ar    1  UNL1        0.0156
     13 C         -12.1798  -19.1121   24.9846 C.ar    1  UNL1        0.0127
     14 C         -13.3427  -18.3925   24.3680 C.ar    1  UNL1        0.0578
     15 CL        -14.6072  -18.2008   25.1517 Cl      1  UNL1       -0.0822
     16 C         -13.2409  -17.8646   22.9677 C.ar    1  UNL1        0.0127
     17 C         -11.9764  -18.0563   22.1839 C.ar    1  UNL1        0.0156
     18 C          -2.9842  -18.1524   21.0997 C.ar    1  UNL1       -0.0212
     19 C          -2.2950  -16.8214   21.0438 C.ar    1  UNL1       -0.0042
     20 C          -0.8457  -16.7426   20.6653 C.ar    1  UNL1       -0.0003
     21 C          -0.0856  -17.9949   20.3428 C.ar    1  UNL1       -0.0000
     22 C          -0.7748  -19.3260   20.3988 C.ar    1  UNL1       -0.0003
     23 C          -2.2241  -19.4047   20.7773 C.ar    1  UNL1       -0.0042
     24 C          -3.9017  -17.4525   22.6447 C.3     1  UNL1        0.0116
     25 C          -4.8490  -16.8593   23.6451 C.3     1  UNL1        0.0421
     26 O          -4.5666  -14.4633   22.6810 O.co2   1  UNL1       -0.5492
     27 C          -4.9181  -15.3713   23.8220 C.2     1  UNL1        0.0503
     28 O          -5.3388  -14.7916   25.1399 O.co2   1  UNL1       -0.5492
@<TRIPOS>UNITY_ATOM_ATTR
26 1
charge -1
@<TRIPOS>BOND
     1    26    27   ar
     2    27    28   ar
     3    27    25    1
     4    25    24    1
     5    24     1    1
     6     1    18    1
     7    18    19   ar
     8    19    20   ar
     9    20    21   ar
    10    21    22   ar
    11    22    23   ar
    12     1     2    1
    13     2     3    1
    14     3     4    1
    15     4     5    1
    16     5     6   am
    17     6     7    2
    18     6     8   am
    19     8    11    1
    20    11    12   ar
    21    12    13   ar
    22    13    14   ar
    23    14    15    1
    24    14    16   ar
    25    16    17   ar
    26     5     9    1
    27     9     1    1
    28    23    18   ar
    29    17    11   ar
    30     8    10    1
@<TRIPOS>MOLECULE
*****
 28 30 0 0 0
SMALL
GASTEIGER

@<TRIPOS>ATOM
      1 C           3.3907   -1.2469   21.4270 C.3     1  UNL1        0.0377
      2 C           2.9571   -0.2453   22.4559 C.3     1  UNL1        0.0075
      3 C           3.3995   -0.3949   23.8813 C.3     1  UNL1        0.0219
      4 C           4.2755   -1.5462   24.2778 C.3     1  UNL1        0.0950
      5 N           4.7091   -2.5478   23.2489 N.am    1  UNL1       -0.2637
      6 C           5.5851   -3.6991   23.6455 C.2     1  UNL1        0.3077
      7 O           6.0186   -4.7007   22.6165 O.2     1  UNL1       -0.2522
      8 N           6.0274   -3.8488   25.0709 N.am    1  UNL1       -0.2681
      9 C           4.2667   -2.3982   21.8235 C.3     1  UNL1        0.0989
     10 H           5.7428   -3.1914   25.7463 H       1  UNL1        0.1564
     11 C           6.9034   -5.0001   25.4673 C.ar    1  UNL1        0.0516
     12 C           6.5401   -5.8457   26.6519 C.ar    1  UNL1        0.0156
     13 C           7.4159   -6.9969   27.0484 C.ar    1  UNL1        0.0127
     14 C           8.6552   -7.3027   26.2604 C.ar    1  UNL1        0.0578
     15 CL          9.5311   -8.4541   26.6569 Cl      1  UNL1       -0.0822
     16 C           9.0184   -6.4572   25.0759 C.ar    1  UNL1        0.0127
     17 C           8.1425   -5.3058   24.6794 C.ar    1  UNL1        0.0156
     18 C           2.5658   -0.3332   20.5697 C.ar    1  UNL1       -0.0212
     19 C           1.1115   -0.1287   20.8747 C.ar    1  UNL1       -0.0042
     20 C           0.2867    0.7849   20.0174 C.ar    1  UNL1       -0.0003
     21 C           0.9162    1.4940   18.8551 C.ar    1  UNL1       -0.0000
     22 C           2.3705    1.2894   18.5501 C.ar    1  UNL1       -0.0003
     23 C           3.1953    0.3758   19.4073 C.ar    1  UNL1       -0.0042
     24 C           3.5379   -1.9312   20.1003 C.3     1  UNL1        0.0116
     25 C           3.8365   -3.4000   20.0431 C.3     1  UNL1        0.0421
     26 O           5.1661   -3.0440   17.8396 O.co2   1  UNL1       -0.5492
     27 C           4.6457   -3.9573   18.9096 C.2     1  UNL1        0.0503
     28 O           4.9344   -5.4279   18.8463 O.co2   1  UNL1       -0.5492
@<TRIPOS>UNITY_ATOM_ATTR
26 1
charge -1
@<TRIPOS>BOND
     1    26    27   ar
     2    27    28   ar
     3    27    25    1
     4    25    24    1
     5    24     1    1
     6     1    18    1
     7    18    19   ar
     8    19    20   ar
     9    20    21   ar
    10    21    22   ar
    11    22    23   ar
    12     1     2    1
    13     2     3    1
    14     3     4    1
    15     4     5    1
    16     5     6   am
    17     6     7    2
    18     6     8   am
    19     8    11    1
    20    11    12   ar
    21    12    13   ar
    22    13    14   ar
    23    14    15    1
    24    14    16   ar
    25    16    17   ar
    26     5     9    1
    27     9     1    1
    28    23    18   ar
    29    17    11   ar
    30     8    10    1
@<TRIPOS>MOLECULE
*****
 28 30 0 0 0
SMALL
GASTEIGER

@<TRIPOS>ATOM
      1 C           3.9710   -1.5002   22.0661 C.3     1  UNL1        0.0377
      2 C           3.0664   -0.5305   22.7669 C.3     1  UNL1        0.0075
      3 C           3.0832   -0.4366   24.2638 C.3     1  UNL1        0.0219
      4 C           4.0047   -1.3124   25.0600 C.3     1  UNL1        0.0950
      5 N           4.9093   -2.2822   24.3592 N.am    1  UNL1       -0.2637
      6 C           5.8308   -3.1580   25.1553 C.2     1  UNL1        0.3077
      7 O           6.7354   -4.1278   24.4544 O.2     1  UNL1       -0.2522
      8 N           5.8476   -3.0641   26.6522 N.am    1  UNL1       -0.2681
      9 C           4.8925   -2.3761   22.8622 C.3     1  UNL1        0.0989
     10 H           5.2538   -2.4276   27.1122 H       1  UNL1        0.1564
     11 C           6.7690   -3.9400   27.4483 C.ar    1  UNL1        0.0516
     12 C           6.2921   -5.2713   27.9486 C.ar    1  UNL1        0.0156
     13 C           7.2135   -6.1472   28.7446 C.ar    1  UNL1        0.0127
     14 C           8.6119   -5.6919   29.0403 C.ar    1  UNL1        0.0578
     15 CL          9.5333   -6.5679   29.8364 Cl      1  UNL1       -0.0822
     16 C           9.0888   -4.3607   28.5400 C.ar    1  UNL1        0.0127
     17 C           8.1673   -3.4847   27.7439 C.ar    1  UNL1        0.0156
     18 C           3.2804   -0.8872   20.8839 C.ar    1  UNL1       -0.0212
     19 C           1.7847   -0.7758   20.8637 C.ar    1  UNL1       -0.0042
     20 C           1.0942   -0.1629   19.6816 C.ar    1  UNL1       -0.0003
     21 C           1.8994    0.3387   18.5197 C.ar    1  UNL1       -0.0000
     22 C           3.3951    0.2274   18.5399 C.ar    1  UNL1       -0.0003
     23 C           4.0856   -0.3856   19.7220 C.ar    1  UNL1       -0.0042
     24 C           4.6358   -2.2571   20.9547 C.3     1  UNL1        0.0116
     25 C           4.5716   -3.7554   20.9243 C.3     1  UNL1        0.0421
     26 O           3.1070   -3.8130   18.7791 O.co2   1  UNL1       -0.5492
     27 C           4.1136   -4.4615   19.6827 C.2     1  UNL1        0.0503
     28 O           4.6621   -5.8160   19.3446 O.co2   1  UNL1       -0.5492
@<TRIPOS>UNITY_ATOM_ATTR
26 1
charge -1
@<TRIPOS>BOND
     1    26    27   ar
     2    27    28   ar
     3    27    25    1
     4    25    24    1
     5    24     1    1
     6     1    18    1
     7    18    19   ar
     8    19    20   ar
     9    20    21   ar
    10    21    22   ar
    11    22    23   ar
    12     1     2    1
    13     2     3    1
    14     3     4    1
    15     4     5    1
    16     5     6   am
    17     6     7    2
    18     6     8   am
    19     8    11    1
    20    11    12   ar
    21    12    13   ar
    22    13    14   ar
    23    14    15    1
    24    14    16   ar
    25    16    17   ar
    26     5     9    1
    27     9     1    1
    28    23    18   ar
    29    17    11   ar
    30     8    10    1
