@<TRIPOS>MOLECULE
*****
 22 23 0 0 0
SMALL
GASTEIGER

@<TRIPOS>ATOM
      1 C          -8.2671  -17.7129   22.5228 C.3     1  UNL1        0.1895
      2 C          -9.7506  -17.5423   22.6637 C.ar    1  UNL1        0.0172
      3 C         -10.5447  -18.5229   23.4749 C.ar    1  UNL1       -0.0008
      4 C         -12.0283  -18.3523   23.6158 C.ar    1  UNL1       -0.0002
      5 C         -12.7178  -17.2011   22.9455 C.ar    1  UNL1       -0.0000
      6 C         -11.9238  -16.2205   22.1343 C.ar    1  UNL1       -0.0002
      7 C         -10.4402  -16.3912   21.9934 C.ar    1  UNL1       -0.0008
      8 O          -7.3550  -16.5385   22.7196 O.3     1  UNL1       -0.4740
      9 C          -5.5238  -15.9679   24.4721 C.ar    1  UNL1        0.1023
     10 C          -5.1401  -15.5403   25.8577 C.ar    1  UNL1        0.0142
     11 C          -6.2037  -15.2557   26.8764 C.ar    1  UNL1        0.0123
     12 C          -7.6511  -15.3987   26.5095 C.ar    1  UNL1        0.0607
     13 CL         -8.7147  -15.1142   27.5282 Cl      1  UNL1       -0.0821
     14 C          -8.0348  -15.8263   25.1239 C.ar    1  UNL1        0.0490
     15 C          -6.9712  -16.1109   24.1053 C.ar    1  UNL1        0.1492
     16 N          -3.3966  -16.5370   22.4348 N.1     1  UNL1       -0.1907
     17 C          -4.4602  -16.2524   23.4534 C.1     1  UNL1        0.1035
     18 C          -7.6955  -19.0581   22.1850 C.3     1  UNL1        0.0650
     19 C          -6.2130  -19.2257   22.0302 C.3     1  UNL1        0.0692
     20 N          -5.4892  -18.5149   20.9253 N.3     1  UNL1       -0.3210
     21 H          -5.7975  -18.8826   20.0252 H       1  UNL1        0.1189
     22 H          -4.4850  -18.6621   21.0268 H       1  UNL1        0.1189
@<TRIPOS>BOND
     1    16    17    3
     2    17     9    1
     3     9    10   ar
     4    10    11   ar
     5    11    12   ar
     6    12    13    1
     7    12    14   ar
     8    14    15   ar
     9    15     8    1
    10     8     1    1
    11     1    18    1
    12    18    19    1
    13    19    20    1
    14     1     2    1
    15     2     3   ar
    16     3     4   ar
    17     4     5   ar
    18     5     6   ar
    19     6     7   ar
    20    15     9   ar
    21     7     2   ar
    22    20    21    1
    23    20    22    1
@<TRIPOS>MOLECULE
*****
 22 23 0 0 0
SMALL
GASTEIGER

@<TRIPOS>ATOM
      1 C          -9.3247  -17.0787   24.0037 C.3     1  UNL1        0.1895
      2 C          -8.3238  -16.4654   24.9376 C.ar    1  UNL1        0.0172
      3 C          -7.0521  -15.8823   24.3963 C.ar    1  UNL1       -0.0008
      4 C          -6.0512  -15.2690   25.3302 C.ar    1  UNL1       -0.0002
      5 C          -6.3219  -15.2388   26.8053 C.ar    1  UNL1       -0.0000
      6 C          -7.5936  -15.8219   27.3464 C.ar    1  UNL1       -0.0002
      7 C          -8.5945  -16.4352   26.4126 C.ar    1  UNL1       -0.0008
      8 O          -9.3189  -16.7090   22.5500 O.3     1  UNL1       -0.4740
      9 C         -10.1217  -18.1629   20.5521 C.ar    1  UNL1        0.1023
     10 C          -9.8456  -19.2091   19.5133 C.ar    1  UNL1        0.0142
     11 C          -8.4907  -19.8478   19.4336 C.ar    1  UNL1        0.0123
     12 C          -7.4118  -19.4402   20.3927 C.ar    1  UNL1        0.0607
     13 CL         -6.0569  -20.0788   20.3130 Cl      1  UNL1       -0.0821
     14 C          -7.6879  -18.3940   21.4315 C.ar    1  UNL1        0.0490
     15 C          -9.0428  -17.7553   21.5112 C.ar    1  UNL1        0.1492
     16 N         -12.8315  -16.8856   20.7115 N.1     1  UNL1       -0.1907
     17 C         -11.4766  -17.5243   20.6318 C.1     1  UNL1        0.1035
     18 C         -10.3314  -18.0617   24.5237 C.3     1  UNL1        0.0650
     19 C         -10.1606  -19.5264   24.2489 C.3     1  UNL1        0.0692
     20 N         -10.1553  -20.5068   25.3842 N.3     1  UNL1       -0.3210
     21 H          -9.3349  -20.3459   25.9685 H       1  UNL1        0.1189
     22 H         -10.1276  -21.4565   25.0131 H       1  UNL1        0.1189
@<TRIPOS>BOND
     1    16    17    3
     2    17     9    1
     3     9    10   ar
     4    10    11   ar
     5    11    12   ar
     6    12    13    1
     7    12    14   ar
     8    14    15   ar
     9    15     8    1
    10     8     1    1
    11     1    18    1
    12    18    19    1
    13    19    20    1
    14     1     2    1
    15     2     3   ar
    16     3     4   ar
    17     4     5   ar
    18     5     6   ar
    19     6     7   ar
    20    15     9   ar
    21     7     2   ar
    22    20    21    1
    23    20    22    1
@<TRIPOS>MOLECULE
*****
 22 23 0 0 0
SMALL
GASTEIGER

@<TRIPOS>ATOM
      1 C          -7.3361  -18.4466   21.4784 C.3     1  UNL1        0.1895
      2 C          -5.9289  -18.9333   21.2973 C.ar    1  UNL1        0.0172
      3 C          -4.9783  -18.9282   22.4577 C.ar    1  UNL1       -0.0008
      4 C          -3.5711  -19.4149   22.2767 C.ar    1  UNL1       -0.0002
      5 C          -3.1144  -19.9068   20.9351 C.ar    1  UNL1       -0.0000
      6 C          -4.0649  -19.9119   19.7748 C.ar    1  UNL1       -0.0002
      7 C          -5.4722  -19.4252   19.9559 C.ar    1  UNL1       -0.0008
      8 O          -7.6026  -16.9867   21.6964 O.3     1  UNL1       -0.4740
      9 C          -8.9953  -16.2773   23.7718 C.ar    1  UNL1        0.1023
     10 C          -9.0613  -15.7269   25.1656 C.ar    1  UNL1        0.0142
     11 C          -7.8006  -15.3355   25.8778 C.ar    1  UNL1        0.0123
     12 C          -6.4738  -15.4944   25.1963 C.ar    1  UNL1        0.0607
     13 CL         -5.2131  -15.1030   25.9086 Cl      1  UNL1       -0.0821
     14 C          -6.4079  -16.0448   23.8025 C.ar    1  UNL1        0.0490
     15 C          -7.6686  -16.4363   23.0903 C.ar    1  UNL1        0.1492
     16 N         -11.5168  -17.0602   22.3473 N.1     1  UNL1       -0.1907
     17 C         -10.2561  -16.6688   23.0595 C.1     1  UNL1        0.1035
     18 C          -8.4770  -19.4199   21.4415 C.3     1  UNL1        0.0650
     19 C          -9.4669  -19.3728   20.3156 C.3     1  UNL1        0.0692
     20 N          -9.9440  -18.0509   19.7913 N.3     1  UNL1       -0.3210
     21 H         -10.4837  -17.5736   20.5133 H       1  UNL1        0.1189
     22 H         -10.5318  -18.2023   18.9716 H       1  UNL1        0.1189
@<TRIPOS>BOND
     1    16    17    3
     2    17     9    1
     3     9    10   ar
     4    10    11   ar
     5    11    12   ar
     6    12    13    1
     7    12    14   ar
     8    14    15   ar
     9    15     8    1
    10     8     1    1
    11     1    18    1
    12    18    19    1
    13    19    20    1
    14     1     2    1
    15     2     3   ar
    16     3     4   ar
    17     4     5   ar
    18     5     6   ar
    19     6     7   ar
    20    15     9   ar
    21     7     2   ar
    22    20    21    1
    23    20    22    1
@<TRIPOS>MOLECULE
*****
 22 23 0 0 0
SMALL
GASTEIGER

@<TRIPOS>ATOM
      1 C          -7.7505  -17.7249   21.9454 C.3     1  UNL1        0.1895
      2 C          -6.6029  -18.6143   21.5687 C.ar    1  UNL1        0.0172
      3 C          -5.3073  -18.5253   22.3195 C.ar    1  UNL1       -0.0008
      4 C          -4.1596  -19.4147   21.9428 C.ar    1  UNL1       -0.0002
      5 C          -4.3076  -20.3931   20.8153 C.ar    1  UNL1       -0.0000
      6 C          -5.6032  -20.4819   20.0646 C.ar    1  UNL1       -0.0002
      7 C          -6.7508  -19.5925   20.4413 C.ar    1  UNL1       -0.0008
      8 O          -9.0092  -17.7386   21.1297 O.3     1  UNL1       -0.4740
      9 C         -11.3501  -16.6184   21.2535 C.ar    1  UNL1        0.1023
     10 C         -12.6816  -16.4625   21.9263 C.ar    1  UNL1        0.0142
     11 C         -13.0038  -17.2708   23.1481 C.ar    1  UNL1        0.0123
     12 C         -11.9944  -18.2350   23.6972 C.ar    1  UNL1        0.0607
     13 CL        -12.3166  -19.0433   24.9190 Cl      1  UNL1       -0.0821
     14 C         -10.6629  -18.3909   23.0243 C.ar    1  UNL1        0.0490
     15 C         -10.3408  -17.5826   21.8025 C.ar    1  UNL1        0.1492
     16 N         -10.7058  -15.0018   18.8098 N.1     1  UNL1       -0.1907
     17 C         -11.0279  -15.8101   20.0317 C.1     1  UNL1        0.1035
     18 C          -7.6394  -16.8217   23.1380 C.3     1  UNL1        0.0650
     19 C          -7.5749  -15.3350   22.9494 C.3     1  UNL1        0.0692
     20 N          -7.9684  -14.7279   21.6355 N.3     1  UNL1       -0.3210
     21 H          -7.3085  -15.0202   20.9147 H       1  UNL1        0.1189
     22 H          -7.9578  -13.7110   21.7140 H       1  UNL1        0.1189
@<TRIPOS>BOND
     1    16    17    3
     2    17     9    1
     3     9    10   ar
     4    10    11   ar
     5    11    12   ar
     6    12    13    1
     7    12    14   ar
     8    14    15   ar
     9    15     8    1
    10     8     1    1
    11     1    18    1
    12    18    19    1
    13    19    20    1
    14     1     2    1
    15     2     3   ar
    16     3     4   ar
    17     4     5   ar
    18     5     6   ar
    19     6     7   ar
    20    15     9   ar
    21     7     2   ar
    22    20    21    1
    23    20    22    1
@<TRIPOS>MOLECULE
*****
 22 23 0 0 0
SMALL
GASTEIGER

@<TRIPOS>ATOM
      1 C          -8.8327  -16.6565   23.2540 C.3     1  UNL1        0.1895
      2 C         -10.2733  -17.0695   23.3169 C.ar    1  UNL1        0.0172
      3 C         -10.6932  -18.1916   24.2195 C.ar    1  UNL1       -0.0008
      4 C         -12.1338  -18.6046   24.2824 C.ar    1  UNL1       -0.0002
      5 C         -13.1547  -17.8954   23.4427 C.ar    1  UNL1       -0.0000
      6 C         -12.7348  -16.7733   22.5402 C.ar    1  UNL1       -0.0002
      7 C         -11.2942  -16.3603   22.4773 C.ar    1  UNL1       -0.0008
      8 O          -8.0771  -16.7648   21.9628 O.3     1  UNL1       -0.4740
      9 C          -7.9408  -19.0699   20.7719 C.ar    1  UNL1        0.1023
     10 C          -7.1815  -20.3228   20.4501 C.ar    1  UNL1        0.0142
     11 C          -5.7993  -20.5236   20.9970 C.ar    1  UNL1        0.0123
     12 C          -5.1763  -19.4715   21.8659 C.ar    1  UNL1        0.0607
     13 CL         -3.7941  -19.6723   22.4129 Cl      1  UNL1       -0.0821
     14 C          -5.9356  -18.2186   22.1878 C.ar    1  UNL1        0.0490
     15 C          -7.3178  -18.0178   21.6408 C.ar    1  UNL1        0.1492
     16 N         -10.7052  -18.6683   19.6780 N.1     1  UNL1       -0.1907
     17 C          -9.3230  -18.8691   20.2250 C.1     1  UNL1        0.1035
     18 C          -8.1476  -16.1353   24.4825 C.3     1  UNL1        0.0650
     19 C          -7.2643  -14.9263   24.3927 C.3     1  UNL1        0.0692
     20 N          -6.2929  -14.7898   23.2580 N.3     1  UNL1       -0.3210
     21 H          -5.5807  -15.5164   23.3309 H       1  UNL1        0.1189
     22 H          -5.8483  -13.8727   23.2995 H       1  UNL1        0.1189
@<TRIPOS>BOND
     1    16    17    3
     2    17     9    1
     3     9    10   ar
     4    10    11   ar
     5    11    12   ar
     6    12    13    1
     7    12    14   ar
     8    14    15   ar
     9    15     8    1
    10     8     1    1
    11     1    18    1
    12    18    19    1
    13    19    20    1
    14     1     2    1
    15     2     3   ar
    16     3     4   ar
    17     4     5   ar
    18     5     6   ar
    19     6     7   ar
    20    15     9   ar
    21     7     2   ar
    22    20    21    1
    23    20    22    1
@<TRIPOS>MOLECULE
*****
 22 23 0 0 0
SMALL
GASTEIGER

@<TRIPOS>ATOM
      1 C          -7.4083  -18.4707   22.1446 C.3     1  UNL1        0.1895
      2 C          -6.0379  -18.9444   21.7603 C.ar    1  UNL1        0.0172
      3 C          -5.8591  -19.8311   20.5637 C.ar    1  UNL1       -0.0008
      4 C          -4.4887  -20.3049   20.1795 C.ar    1  UNL1       -0.0002
      5 C          -3.2972  -19.8920   20.9919 C.ar    1  UNL1       -0.0000
      6 C          -3.4761  -19.0053   22.1884 C.ar    1  UNL1       -0.0002
      7 C          -4.8465  -18.5316   22.5727 C.ar    1  UNL1       -0.0008
      8 O          -8.6216  -19.1761   21.6152 O.3     1  UNL1       -0.4740
      9 C         -10.8024  -18.9305   23.0058 C.ar    1  UNL1        0.1023
     10 C         -12.1625  -18.3265   23.1930 C.ar    1  UNL1        0.0142
     11 C         -12.7021  -17.3639   22.1769 C.ar    1  UNL1        0.0123
     12 C         -11.8814  -17.0054   20.9736 C.ar    1  UNL1        0.0607
     13 CL        -12.4209  -16.0429   19.9575 Cl      1  UNL1       -0.0821
     14 C         -10.5213  -17.6095   20.7864 C.ar    1  UNL1        0.0490
     15 C          -9.9818  -18.5721   21.8025 C.ar    1  UNL1        0.1492
     16 N          -9.7234  -20.8556   25.0379 N.1     1  UNL1       -0.1907
     17 C         -10.2629  -19.8931   24.0219 C.1     1  UNL1        0.1035
     18 C          -7.5654  -17.2914   23.0583 C.3     1  UNL1        0.0650
     19 C          -7.7451  -15.9171   22.4849 C.3     1  UNL1        0.0692
     20 N          -7.7140  -14.7185   23.3862 N.3     1  UNL1       -0.3210
     21 H          -8.5151  -14.7464   24.0169 H       1  UNL1        0.1189
     22 H          -7.7538  -13.8688   22.8233 H       1  UNL1        0.1189
@<TRIPOS>BOND
     1    16    17    3
     2    17     9    1
     3     9    10   ar
     4    10    11   ar
     5    11    12   ar
     6    12    13    1
     7    12    14   ar
     8    14    15   ar
     9    15     8    1
    10     8     1    1
    11     1    18    1
    12    18    19    1
    13    19    20    1
    14     1     2    1
    15     2     3   ar
    16     3     4   ar
    17     4     5   ar
    18     5     6   ar
    19     6     7   ar
    20    15     9   ar
    21     7     2   ar
    22    20    21    1
    23    20    22    1
@<TRIPOS>MOLECULE
*****
 22 23 0 0 0
SMALL
GASTEIGER

@<TRIPOS>ATOM
      1 C          -8.8651  -16.8521   23.1948 C.3     1  UNL1        0.1895
      2 C         -10.1952  -17.2291   22.6128 C.ar    1  UNL1        0.0172
      3 C         -10.3487  -17.3798   21.1283 C.ar    1  UNL1       -0.0008
      4 C         -11.6788  -17.7568   20.5463 C.ar    1  UNL1       -0.0002
      5 C         -12.8554  -17.9831   21.4489 C.ar    1  UNL1       -0.0000
      6 C         -12.7018  -17.8324   22.9333 C.ar    1  UNL1       -0.0002
      7 C         -11.3717  -17.4554   23.5153 C.ar    1  UNL1       -0.0008
      8 O          -7.6833  -16.6471   22.2941 O.3     1  UNL1       -0.4740
      9 C          -5.3377  -17.5132   22.9998 C.ar    1  UNL1        0.1023
     10 C          -4.2614  -18.5554   22.9259 C.ar    1  UNL1        0.0142
     11 C          -4.4544  -19.7737   22.0724 C.ar    1  UNL1        0.0123
     12 C          -5.7237  -19.9498   21.2928 C.ar    1  UNL1        0.0607
     13 CL         -5.9167  -21.1681   20.4393 Cl      1  UNL1       -0.0821
     14 C          -6.8000  -18.9076   21.3667 C.ar    1  UNL1        0.0490
     15 C          -6.6070  -17.6893   22.2202 C.ar    1  UNL1        0.1492
     16 N          -4.9516  -15.0766   24.7068 N.1     1  UNL1       -0.1907
     17 C          -5.1446  -16.2949   23.8533 C.1     1  UNL1        0.1035
     18 C          -8.7169  -16.6799   24.6775 C.3     1  UNL1        0.0650
     19 C          -8.3764  -15.3343   25.2460 C.3     1  UNL1        0.0692
     20 N          -7.8801  -14.2430   24.3445 N.3     1  UNL1       -0.3210
     21 H          -6.9698  -14.5033   23.9649 H       1  UNL1        0.1189
     22 H          -7.7918  -13.3769   24.8758 H       1  UNL1        0.1189
@<TRIPOS>BOND
     1    16    17    3
     2    17     9    1
     3     9    10   ar
     4    10    11   ar
     5    11    12   ar
     6    12    13    1
     7    12    14   ar
     8    14    15   ar
     9    15     8    1
    10     8     1    1
    11     1    18    1
    12    18    19    1
    13    19    20    1
    14     1     2    1
    15     2     3   ar
    16     3     4   ar
    17     4     5   ar
    18     5     6   ar
    19     6     7   ar
    20    15     9   ar
    21     7     2   ar
    22    20    21    1
    23    20    22    1
@<TRIPOS>MOLECULE
*****
 22 23 0 0 0
SMALL
GASTEIGER

@<TRIPOS>ATOM
      1 C          -7.4350  -18.7127   22.5034 C.3     1  UNL1        0.1895
      2 C          -6.1365  -19.1759   21.9124 C.ar    1  UNL1        0.0172
      3 C          -4.8383  -18.6499   22.4491 C.ar    1  UNL1       -0.0008
      4 C          -3.5397  -19.1131   21.8582 C.ar    1  UNL1       -0.0002
      5 C          -3.5394  -20.1023   20.7305 C.ar    1  UNL1       -0.0000
      6 C          -4.8376  -20.6282   20.1938 C.ar    1  UNL1       -0.0002
      7 C          -6.1362  -20.1650   20.7848 C.ar    1  UNL1       -0.0008
      8 O          -8.6126  -19.6408   22.5472 O.3     1  UNL1       -0.4740
      9 C         -10.4350  -18.8441   20.8756 C.ar    1  UNL1        0.1023
     10 C         -11.8147  -18.3182   20.6115 C.ar    1  UNL1        0.0142
     11 C         -12.7517  -18.0631   21.7547 C.ar    1  UNL1        0.0123
     12 C         -12.3091  -18.3339   23.1620 C.ar    1  UNL1        0.0607
     13 CL        -13.2461  -18.0788   24.3052 Cl      1  UNL1       -0.0821
     14 C         -10.9294  -18.8598   23.4261 C.ar    1  UNL1        0.0490
     15 C          -9.9923  -19.1149   22.2829 C.ar    1  UNL1        0.1492
     16 N          -8.5610  -19.3544   18.5892 N.1     1  UNL1       -0.1907
     17 C          -9.4980  -19.0992   19.7324 C.1     1  UNL1        0.1035
     18 C          -7.5560  -17.3212   23.0506 C.3     1  UNL1        0.0650
     19 C          -8.1363  -16.2293   22.2016 C.3     1  UNL1        0.0692
     20 N          -7.6547  -14.8179   22.3627 N.3     1  UNL1       -0.3210
     21 H          -7.9157  -14.4729   23.2864 H       1  UNL1        0.1189
     22 H          -8.0811  -14.2294   21.6470 H       1  UNL1        0.1189
@<TRIPOS>BOND
     1    16    17    3
     2    17     9    1
     3     9    10   ar
     4    10    11   ar
     5    11    12   ar
     6    12    13    1
     7    12    14   ar
     8    14    15   ar
     9    15     8    1
    10     8     1    1
    11     1    18    1
    12    18    19    1
    13    19    20    1
    14     1     2    1
    15     2     3   ar
    16     3     4   ar
    17     4     5   ar
    18     5     6   ar
    19     6     7   ar
    20    15     9   ar
    21     7     2   ar
    22    20    21    1
    23    20    22    1
@<TRIPOS>MOLECULE
*****
 22 23 0 0 0
SMALL
GASTEIGER

@<TRIPOS>ATOM
      1 C          -8.9249  -16.6634   22.5773 C.3     1  UNL1        0.1895
      2 C          -9.3031  -17.9757   23.1977 C.ar    1  UNL1        0.0172
      3 C          -8.5721  -19.2269   22.8101 C.ar    1  UNL1       -0.0008
      4 C          -8.9503  -20.5392   23.4305 C.ar    1  UNL1       -0.0002
      5 C         -10.0595  -20.6002   24.4385 C.ar    1  UNL1       -0.0000
      6 C         -10.7905  -19.3491   24.8260 C.ar    1  UNL1       -0.0002
      7 C         -10.4123  -18.0368   24.2056 C.ar    1  UNL1       -0.0008
      8 O          -7.5783  -16.0634   22.8540 O.3     1  UNL1       -0.4740
      9 C          -5.7038  -15.8762   24.6432 C.ar    1  UNL1        0.1023
     10 C          -5.2790  -15.6062   26.0562 C.ar    1  UNL1        0.0142
     11 C          -6.3040  -15.2535   27.0931 C.ar    1  UNL1        0.0123
     12 C          -7.7536  -15.1708   26.7169 C.ar    1  UNL1        0.0607
     13 CL         -8.7786  -14.8181   27.7538 Cl      1  UNL1       -0.0821
     14 C          -8.1784  -15.4407   25.3039 C.ar    1  UNL1        0.0490
     15 C          -7.1535  -15.7934   24.2670 C.ar    1  UNL1        0.1492
     16 N          -3.6539  -16.5816   22.5694 N.1     1  UNL1       -0.1907
     17 C          -4.6789  -16.2289   23.6063 C.1     1  UNL1        0.1035
     18 C          -9.8934  -15.9511   21.6801 C.3     1  UNL1        0.0650
     19 C         -10.8071  -16.7378   20.7879 C.3     1  UNL1        0.0692
     20 N         -12.1850  -17.0998   21.2574 N.3     1  UNL1       -0.3210
     21 H         -12.1174  -17.7452   22.0443 H       1  UNL1        0.1189
     22 H         -12.6977  -17.5445   20.4960 H       1  UNL1        0.1189
@<TRIPOS>BOND
     1    16    17    3
     2    17     9    1
     3     9    10   ar
     4    10    11   ar
     5    11    12   ar
     6    12    13    1
     7    12    14   ar
     8    14    15   ar
     9    15     8    1
    10     8     1    1
    11     1    18    1
    12    18    19    1
    13    19    20    1
    14     1     2    1
    15     2     3   ar
    16     3     4   ar
    17     4     5   ar
    18     5     6   ar
    19     6     7   ar
    20    15     9   ar
    21     7     2   ar
    22    20    21    1
    23    20    22    1
