@<TRIPOS>MOLECULE
*****
 38 42 0 0 0
SMALL
GASTEIGER

@<TRIPOS>ATOM
      1 C           7.9467   -4.2915   31.4037 C.3     1  UNL1        0.0972
      2 C           8.8638   -3.2356   31.9459 C.3     1  UNL1        0.0431
      3 C           8.0234   -2.1983   32.6297 C.3     1  UNL1        0.0968
      4 N           6.5869   -2.6130   32.5101 N.am    1  UNL1       -0.2623
      5 C           5.4052   -1.8654   33.0529 C.2     1  UNL1        0.3073
      6 O           4.0201   -2.4060   32.8548 O.2     1  UNL1       -0.2523
      7 N           5.6086   -0.5772   33.7939 N.am    1  UNL1       -0.2626
      8 C           6.9271    0.0833   34.0684 C.3     1  UNL1        0.0964
      9 C           6.6626    1.3455   34.8346 C.3     1  UNL1        0.0390
     10 C           5.1806    1.4650   35.0336 C.3     1  UNL1        0.0758
     11 C           4.5292    0.2768   34.3904 C.3     1  UNL1        0.1106
     12 C           6.5394   -3.9067   31.7524 C.3     1  UNL1        0.1147
     13 C           8.3863   -5.4999   29.1461 C.2     1  UNL1        0.2551
     14 O           8.8032   -6.7253   28.3882 O.2     1  UNL1       -0.2694
     15 N           8.3636   -5.5170   30.6458 N.am    1  UNL1       -0.2738
     16 C           8.7579   -6.7596   31.3876 C.3     1  UNL1        0.1152
     17 C           6.7371   -2.6676   27.0667 C.ar    1  UNL1        0.0296
     18 C           8.0335   -2.0225   27.4582 C.ar    1  UNL1        0.0071
     19 C           8.8091   -3.0050   28.2848 C.ar    1  UNL1        0.0115
     20 C           7.9920   -4.2572   28.4042 C.ar    1  UNL1        0.0830
     21 S           6.7115   -4.0487   27.6514 S.2     1  UNL1       -0.0824
     22 C           2.4132   -0.1630   23.7454 C.3     1  UNL1        0.0310
     23 C           3.4942   -0.7892   24.5757 C.ar    1  UNL1       -0.0218
     24 C           3.6489   -0.4064   26.0177 C.ar    1  UNL1       -0.0042
     25 C           4.7299   -1.0325   26.8481 C.ar    1  UNL1        0.0002
     26 C           5.6561   -2.0414   26.2364 C.ar    1  UNL1        0.0060
     27 C           5.5014   -2.4242   24.7944 C.ar    1  UNL1        0.0002
     28 C           4.4204   -1.7980   23.9640 C.ar    1  UNL1       -0.0042
     29 N           4.4742    2.5775   35.7500 N.3     1  UNL1       -0.2982
     30 H           3.9879    3.1236   35.0390 H       1  UNL1        0.1232
     31 C           3.4683    2.2627   36.8173 C.3     1  UNL1        0.0540
     32 C           3.5662    0.9775   37.5846 C.3     1  UNL1        0.0157
     33 C           2.5604    0.6626   38.6519 C.3     1  UNL1        0.0014
     34 C           1.4566    1.6330   38.9518 C.3     1  UNL1        0.0001
     35 C           0.2400    2.2288   39.5961 C.3     1  UNL1        0.0000
     36 C           1.1321    0.5547   39.9428 C.3     1  UNL1        0.0000
     37 C           1.3586    2.9181   38.1846 C.3     1  UNL1        0.0014
     38 C           2.3645    3.2330   37.1173 C.3     1  UNL1        0.0157
@<TRIPOS>BOND
     1    22    23    1
     2    23    24   ar
     3    24    25   ar
     4    25    26   ar
     5    26    17    1
     6    17    18   ar
     7    18    19   ar
     8    19    20   ar
     9    20    13    1
    10    13    14    2
    11    13    15   am
    12    15    16    1
    13     1    15    1
    14     1     2    1
    15     2     3    1
    16     3     4    1
    17     4     5   am
    18     5     6    2
    19     5     7   am
    20     7     8    1
    21     8     9    1
    22     9    10    1
    23    10    29    1
    24    29    31    1
    25    31    32    1
    26    32    33    1
    27    33    34    1
    28    34    35    1
    29    34    36    1
    30    34    37    1
    31    37    38    1
    32    10    11    1
    33     4    12    1
    34    20    21   ar
    35    26    27   ar
    36    27    28   ar
    37    28    23   ar
    38    21    17   ar
    39    12     1    1
    40    11     7    1
    41    38    31    1
    42    29    30    1
@<TRIPOS>MOLECULE
*****
 38 42 0 0 0
SMALL
GASTEIGER

@<TRIPOS>ATOM
      1 C           7.7815   -3.1912   21.0406 C.3     1  UNL1        0.0972
      2 C           7.3940   -4.5966   21.3938 C.3     1  UNL1        0.0431
      3 C           7.2690   -4.6818   22.8862 C.3     1  UNL1        0.0968
      4 N           7.5794   -3.3291   23.4553 N.am    1  UNL1       -0.2623
      5 C           7.5740   -2.9621   24.9097 C.2     1  UNL1        0.3073
      6 O           7.9070   -1.5614   25.3309 O.2     1  UNL1       -0.2523
      7 N           7.2357   -3.9956   25.9428 N.am    1  UNL1       -0.2626
      8 C           6.8838   -5.4287   25.6739 C.3     1  UNL1        0.0964
      9 C           6.6205   -6.0963   26.9911 C.3     1  UNL1        0.0390
     10 C           6.8096   -5.0758   28.0740 C.3     1  UNL1        0.0758
     11 C           7.1898   -3.7775   27.4261 C.3     1  UNL1        0.1106
     12 C           7.8961   -2.4079   22.3147 C.3     1  UNL1        0.1147
     13 C           6.8764   -2.0668   18.8804 C.2     1  UNL1        0.2551
     14 O           7.1085   -1.5377   17.4961 O.2     1  UNL1       -0.2694
     15 N           8.0137   -2.6621   19.6563 N.am    1  UNL1       -0.2738
     16 C           9.3832   -2.7283   19.0480 C.3     1  UNL1        0.1152
     17 C           3.5970   -1.2818   20.8026 C.ar    1  UNL1        0.0296
     18 C           3.2017   -2.5157   20.0468 C.ar    1  UNL1        0.0071
     19 C           4.3820   -2.9600   19.2348 C.ar    1  UNL1        0.0115
     20 C           5.5068   -2.0006   19.4886 C.ar    1  UNL1        0.0830
     21 S           5.0217   -0.9635   20.4576 S.2     1  UNL1       -0.0824
     22 C           0.0946    1.8336   24.5480 C.3     1  UNL1        0.0310
     23 C           0.9702    1.0548   23.6116 C.ar    1  UNL1       -0.0218
     24 C           2.1468    0.2923   24.1446 C.ar    1  UNL1       -0.0042
     25 C           3.0224   -0.4866   23.2083 C.ar    1  UNL1        0.0002
     26 C           2.7214   -0.5029   21.7389 C.ar    1  UNL1        0.0060
     27 C           1.5448    0.2596   21.2059 C.ar    1  UNL1        0.0002
     28 C           0.6692    1.0384   22.1422 C.ar    1  UNL1       -0.0042
     29 N           6.6470   -5.3121   29.5463 N.3     1  UNL1       -0.2982
     30 H           7.1013   -6.2015   29.7537 H       1  UNL1        0.1232
     31 C           7.1811   -4.3133   30.5297 C.3     1  UNL1        0.0540
     32 C           6.2975   -3.2111   31.0341 C.3     1  UNL1        0.0157
     33 C           6.8316   -2.2122   32.0175 C.3     1  UNL1        0.0014
     34 C           8.2492   -2.3156   32.4965 C.3     1  UNL1        0.0001
     35 C           9.5124   -1.9978   33.2404 C.3     1  UNL1        0.0000
     36 C           7.8043   -1.1031   33.2592 C.3     1  UNL1        0.0000
     37 C           9.1328   -3.4178   31.9922 C.3     1  UNL1        0.0014
     38 C           8.5987   -4.4167   31.0087 C.3     1  UNL1        0.0157
@<TRIPOS>BOND
     1    22    23    1
     2    23    24   ar
     3    24    25   ar
     4    25    26   ar
     5    26    17    1
     6    17    18   ar
     7    18    19   ar
     8    19    20   ar
     9    20    13    1
    10    13    14    2
    11    13    15   am
    12    15    16    1
    13     1    15    1
    14     1     2    1
    15     2     3    1
    16     3     4    1
    17     4     5   am
    18     5     6    2
    19     5     7   am
    20     7     8    1
    21     8     9    1
    22     9    10    1
    23    10    29    1
    24    29    31    1
    25    31    32    1
    26    32    33    1
    27    33    34    1
    28    34    35    1
    29    34    36    1
    30    34    37    1
    31    37    38    1
    32    10    11    1
    33     4    12    1
    34    20    21   ar
    35    26    27   ar
    36    27    28   ar
    37    28    23   ar
    38    21    17   ar
    39    12     1    1
    40    11     7    1
    41    38    31    1
    42    29    30    1
@<TRIPOS>MOLECULE
*****
 38 42 0 0 0
SMALL
GASTEIGER

@<TRIPOS>ATOM
      1 C           4.2995   -1.3595   20.1856 C.3     1  UNL1        0.0972
      2 C           3.1003   -1.6212   21.0478 C.3     1  UNL1        0.0431
      3 C           3.4118   -1.1395   22.4338 C.3     1  UNL1        0.0968
      4 N           4.8036   -0.5801   22.4282 N.am    1  UNL1       -0.2623
      5 C           5.5208    0.0115   23.6053 C.2     1  UNL1        0.3073
      6 O           6.9180    0.5339   23.4471 O.2     1  UNL1       -0.2523
      7 N           4.8409    0.0806   24.9405 N.am    1  UNL1       -0.2626
      8 C           3.4536   -0.3991   25.2493 C.3     1  UNL1        0.0964
      9 C           3.1842   -0.1345   26.7011 C.3     1  UNL1        0.0390
     10 C           4.4049    0.5086   27.2894 C.3     1  UNL1        0.0758
     11 C           5.4288    0.6416   26.2013 C.3     1  UNL1        0.1106
     12 C           5.3522   -0.7160   21.0387 C.3     1  UNL1        0.1147
     13 C           3.8564   -0.7504   17.6991 C.2     1  UNL1        0.2551
     14 O           3.9811   -1.0751   16.2400 O.2     1  UNL1       -0.2694
     15 N           4.4242   -1.6843   18.7265 N.am    1  UNL1       -0.2738
     16 C           5.1166   -2.9428   18.2947 C.3     1  UNL1        0.1152
     17 C           1.4355    2.0979   18.7440 C.ar    1  UNL1        0.0296
     18 C           2.7612    2.7922   18.8462 C.ar    1  UNL1        0.0071
     19 C           3.8295    1.8098   18.4672 C.ar    1  UNL1        0.0115
     20 C           3.1640    0.5082   18.1308 C.ar    1  UNL1        0.0830
     21 S           1.6844    0.6864   18.3019 S.2     1  UNL1       -0.0824
     22 C          -3.9223    4.5385   19.9007 C.3     1  UNL1        0.0310
     23 C          -2.5829    3.9283   19.6115 C.ar    1  UNL1       -0.0218
     24 C          -1.9460    4.1197   18.2670 C.ar    1  UNL1       -0.0042
     25 C          -0.6066    3.5096   17.9778 C.ar    1  UNL1        0.0002
     26 C           0.0960    2.7081   19.0332 C.ar    1  UNL1        0.0060
     27 C          -0.5408    2.5167   20.3777 C.ar    1  UNL1        0.0002
     28 C          -1.8802    3.1268   20.6669 C.ar    1  UNL1       -0.0042
     29 N           4.5723    0.9426   28.7155 N.3     1  UNL1       -0.2982
     30 H           3.7341    1.4680   28.9637 H       1  UNL1        0.1232
     31 C           4.7759   -0.0818   29.7921 C.3     1  UNL1        0.0540
     32 C           5.9434   -1.0211   29.7226 C.3     1  UNL1        0.0157
     33 C           6.1470   -2.0454   30.7993 C.3     1  UNL1        0.0014
     34 C           5.1832   -2.1305   31.9455 C.3     1  UNL1        0.0001
     35 C           4.5482   -2.5982   33.2214 C.3     1  UNL1        0.0000
     36 C           6.1301   -3.2322   32.3191 C.3     1  UNL1        0.0000
     37 C           4.0158   -1.1913   32.0150 C.3     1  UNL1        0.0014
     38 C           3.8121   -0.1669   30.9383 C.3     1  UNL1        0.0157
@<TRIPOS>BOND
     1    22    23    1
     2    23    24   ar
     3    24    25   ar
     4    25    26   ar
     5    26    17    1
     6    17    18   ar
     7    18    19   ar
     8    19    20   ar
     9    20    13    1
    10    13    14    2
    11    13    15   am
    12    15    16    1
    13     1    15    1
    14     1     2    1
    15     2     3    1
    16     3     4    1
    17     4     5   am
    18     5     6    2
    19     5     7   am
    20     7     8    1
    21     8     9    1
    22     9    10    1
    23    10    29    1
    24    29    31    1
    25    31    32    1
    26    32    33    1
    27    33    34    1
    28    34    35    1
    29    34    36    1
    30    34    37    1
    31    37    38    1
    32    10    11    1
    33     4    12    1
    34    20    21   ar
    35    26    27   ar
    36    27    28   ar
    37    28    23   ar
    38    21    17   ar
    39    12     1    1
    40    11     7    1
    41    38    31    1
    42    29    30    1
@<TRIPOS>MOLECULE
*****
 38 42 0 0 0
SMALL
GASTEIGER

@<TRIPOS>ATOM
      1 C           7.6663   -2.7258   21.0396 C.3     1  UNL1        0.0972
      2 C           7.4152   -1.5928   21.9900 C.3     1  UNL1        0.0431
      3 C           7.2578   -2.1683   23.3662 C.3     1  UNL1        0.0968
      4 N           7.4117   -3.6570   23.2664 N.am    1  UNL1       -0.2623
      5 C           7.3278   -4.6304   24.4046 C.2     1  UNL1        0.3073
      6 O           7.5033   -6.0983   24.1507 O.2     1  UNL1       -0.2523
      7 N           7.0684   -4.1358   25.7968 N.am    1  UNL1       -0.2626
      8 C           6.8731   -2.7048   26.2020 C.3     1  UNL1        0.0964
      9 C           6.6427   -2.6700   27.6838 C.3     1  UNL1        0.0390
     10 C           6.6956   -4.0795   28.1944 C.3     1  UNL1        0.0758
     11 C           6.9587   -4.9854   27.0282 C.3     1  UNL1        0.1106
     12 C           7.6641   -4.0016   21.8285 C.3     1  UNL1        0.1147
     13 C           6.7180   -2.3373   18.6522 C.2     1  UNL1        0.2551
     14 O           6.9335   -2.2159   17.1727 O.2     1  UNL1       -0.2694
     15 N           7.8818   -2.6043   19.5602 N.am    1  UNL1       -0.2738
     16 C           9.2609   -2.7498   18.9887 C.3     1  UNL1        0.1152
     17 C           3.2936   -1.2218   20.0992 C.ar    1  UNL1        0.0296
     18 C           3.1392   -2.7138   20.1068 C.ar    1  UNL1        0.0071
     19 C           4.4033   -3.3133   19.5656 C.ar    1  UNL1        0.0115
     20 C           5.3388   -2.1918   19.2236 C.ar    1  UNL1        0.0830
     21 S           4.6530   -0.8992   19.5534 S.2     1  UNL1       -0.0824
     22 C          -0.8068    2.7572   21.9308 C.3     1  UNL1        0.0310
     23 C           0.2183    1.7625   21.4729 C.ar    1  UNL1       -0.0218
     24 C           0.2143    1.2815   20.0522 C.ar    1  UNL1       -0.0042
     25 C           1.2394    0.2867   19.5943 C.ar    1  UNL1        0.0002
     26 C           2.2685   -0.2270   20.5571 C.ar    1  UNL1        0.0060
     27 C           2.2724    0.2540   21.9779 C.ar    1  UNL1        0.0002
     28 C           1.2473    1.2488   22.4358 C.ar    1  UNL1       -0.0042
     29 N           6.5168   -4.5077   29.6208 N.3     1  UNL1       -0.2982
     30 H           6.9947   -5.4032   29.7214 H       1  UNL1        0.1232
     31 C           7.0045   -3.6291   30.7344 C.3     1  UNL1        0.0540
     32 C           8.4333   -3.7109   31.1835 C.3     1  UNL1        0.0157
     33 C           8.9210   -2.8323   32.2971 C.3     1  UNL1        0.0014
     34 C           7.9798   -1.8718   32.9616 C.3     1  UNL1        0.0001
     35 C           7.4738   -0.8118   33.8947 C.3     1  UNL1        0.0000
     36 C           9.2329   -1.5856   33.7347 C.3     1  UNL1        0.0000
     37 C           6.5510   -1.7899   32.5125 C.3     1  UNL1        0.0014
     38 C           6.0633   -2.6686   31.3989 C.3     1  UNL1        0.0157
@<TRIPOS>BOND
     1    22    23    1
     2    23    24   ar
     3    24    25   ar
     4    25    26   ar
     5    26    17    1
     6    17    18   ar
     7    18    19   ar
     8    19    20   ar
     9    20    13    1
    10    13    14    2
    11    13    15   am
    12    15    16    1
    13     1    15    1
    14     1     2    1
    15     2     3    1
    16     3     4    1
    17     4     5   am
    18     5     6    2
    19     5     7   am
    20     7     8    1
    21     8     9    1
    22     9    10    1
    23    10    29    1
    24    29    31    1
    25    31    32    1
    26    32    33    1
    27    33    34    1
    28    34    35    1
    29    34    36    1
    30    34    37    1
    31    37    38    1
    32    10    11    1
    33     4    12    1
    34    20    21   ar
    35    26    27   ar
    36    27    28   ar
    37    28    23   ar
    38    21    17   ar
    39    12     1    1
    40    11     7    1
    41    38    31    1
    42    29    30    1
@<TRIPOS>MOLECULE
*****
 38 42 0 0 0
SMALL
GASTEIGER

@<TRIPOS>ATOM
      1 C           3.6989   -0.5763   19.5922 C.3     1  UNL1        0.0972
      2 C           3.0755   -1.3933   20.6849 C.3     1  UNL1        0.0431
      3 C           2.4253   -0.4515   21.6545 C.3     1  UNL1        0.0968
      4 N           2.6467    0.9476   21.1612 N.am    1  UNL1       -0.2623
      5 C           2.1655    2.2033   21.8257 C.2     1  UNL1        0.3073
      6 O           2.4647    3.5388   21.2117 O.2     1  UNL1       -0.2523
      7 N           1.3851    2.1236   23.1042 N.am    1  UNL1       -0.2626
      8 C           1.0114    0.8664   23.8321 C.3     1  UNL1        0.0964
      9 C           0.2367    1.2528   25.0571 C.3     1  UNL1        0.0390
     10 C           0.1316    2.7489   25.0862 C.3     1  UNL1        0.0758
     11 C           0.8413    3.2870   23.8793 C.3     1  UNL1        0.1106
     12 C           3.4338    0.8705   19.8866 C.3     1  UNL1        0.1147
     13 C           5.7353   -1.8644   18.6208 C.2     1  UNL1        0.2551
     14 O           6.4910   -2.4000   17.4410 O.2     1  UNL1       -0.2694
     15 N           4.4545   -1.1119   18.4124 N.am    1  UNL1       -0.2738
     16 C           3.9295   -0.8950   17.0242 C.3     1  UNL1        0.1152
     17 C           6.9411   -3.1511   22.0785 C.ar    1  UNL1        0.0296
     18 C           7.1958   -1.6790   22.2122 C.ar    1  UNL1        0.0071
     19 C           6.7751   -1.0177   20.9332 C.ar    1  UNL1        0.0115
     20 C           6.2604   -2.0812   20.0090 C.ar    1  UNL1        0.0830
     21 S           6.3630   -3.3997   20.7169 S.2     1  UNL1       -0.0824
     22 C           8.0415   -7.3143   26.2567 C.3     1  UNL1        0.0310
     23 C           7.7664   -6.2735   25.2121 C.ar    1  UNL1       -0.0218
     24 C           8.3571   -6.4131   23.8404 C.ar    1  UNL1       -0.0042
     25 C           8.0820   -5.3723   22.7959 C.ar    1  UNL1        0.0002
     26 C           7.2162   -4.1919   23.1230 C.ar    1  UNL1        0.0060
     27 C           6.6256   -4.0523   24.4947 C.ar    1  UNL1        0.0002
     28 C           6.9007   -5.0931   25.5393 C.ar    1  UNL1       -0.0042
     29 N          -0.5615    3.5636   26.1377 N.3     1  UNL1       -0.2982
     30 H          -0.0452    4.4395   26.2195 H       1  UNL1        0.1232
     31 C          -2.0074    3.9272   25.9728 C.3     1  UNL1        0.0540
     32 C          -2.6634    4.8565   26.9506 C.3     1  UNL1        0.0157
     33 C          -4.1093    5.2200   26.7856 C.3     1  UNL1        0.0014
     34 C          -4.8992    4.6542   25.6429 C.3     1  UNL1        0.0001
     35 C          -6.0566    4.3779   24.7296 C.3     1  UNL1        0.0000
     36 C          -5.9571    5.4876   26.3035 C.3     1  UNL1        0.0000
     37 C          -4.2433    3.7249   24.6652 C.3     1  UNL1        0.0014
     38 C          -2.7973    3.3614   24.8301 C.3     1  UNL1        0.0157
@<TRIPOS>BOND
     1    22    23    1
     2    23    24   ar
     3    24    25   ar
     4    25    26   ar
     5    26    17    1
     6    17    18   ar
     7    18    19   ar
     8    19    20   ar
     9    20    13    1
    10    13    14    2
    11    13    15   am
    12    15    16    1
    13     1    15    1
    14     1     2    1
    15     2     3    1
    16     3     4    1
    17     4     5   am
    18     5     6    2
    19     5     7   am
    20     7     8    1
    21     8     9    1
    22     9    10    1
    23    10    29    1
    24    29    31    1
    25    31    32    1
    26    32    33    1
    27    33    34    1
    28    34    35    1
    29    34    36    1
    30    34    37    1
    31    37    38    1
    32    10    11    1
    33     4    12    1
    34    20    21   ar
    35    26    27   ar
    36    27    28   ar
    37    28    23   ar
    38    21    17   ar
    39    12     1    1
    40    11     7    1
    41    38    31    1
    42    29    30    1
@<TRIPOS>MOLECULE
*****
 38 42 0 0 0
SMALL
GASTEIGER

@<TRIPOS>ATOM
      1 C           5.0964   -0.6553   34.3759 C.3     1  UNL1        0.0972
      2 C           4.3418   -1.8075   33.7817 C.3     1  UNL1        0.0431
      3 C           5.2963   -2.6028   32.9413 C.3     1  UNL1        0.0968
      4 N           6.6409   -1.9422   33.0159 N.am    1  UNL1       -0.2623
      5 C           7.8898   -2.4040   32.3253 C.2     1  UNL1        0.3073
      6 O           9.1678   -1.6372   32.4945 O.2     1  UNL1       -0.2523
      7 N           7.8606   -3.6328   31.4654 N.am    1  UNL1       -0.2626
      8 C           6.6632   -4.4974   31.2036 C.3     1  UNL1        0.0964
      9 C           7.0864   -5.6116   30.2928 C.3     1  UNL1        0.0390
     10 C           8.5452   -5.4356   29.9917 C.3     1  UNL1        0.0758
     11 C           9.0238   -4.2126   30.7165 C.3     1  UNL1        0.1106
     12 C           6.5174   -0.7386   33.9026 C.3     1  UNL1        0.1147
     13 C           3.9329    1.6442   34.7052 C.2     1  UNL1        0.2551
     14 O           3.3661    2.6950   35.6131 O.2     1  UNL1       -0.2694
     15 N           4.5297    0.3955   35.2838 N.am    1  UNL1       -0.2738
     16 C           4.5597    0.1979   36.7704 C.3     1  UNL1        0.1152
     17 C           3.1525    1.8882   30.9108 C.ar    1  UNL1        0.0296
     18 C           4.5604    2.4041   30.9510 C.ar    1  UNL1        0.0071
     19 C           5.0241    2.3755   32.3772 C.ar    1  UNL1        0.0115
     20 C           3.9028    1.8419   33.2186 C.ar    1  UNL1        0.0830
     21 S           2.7461    1.5408   32.3123 S.2     1  UNL1       -0.0824
     22 C          -0.2551    1.3152   26.0058 C.3     1  UNL1        0.0310
     23 C           0.5968    1.4585   27.2320 C.ar    1  UNL1       -0.0218
     24 C           0.1309    2.3132   28.3732 C.ar    1  UNL1       -0.0042
     25 C           0.9828    2.4564   29.5995 C.ar    1  UNL1        0.0002
     26 C           2.3006    1.7450   29.6846 C.ar    1  UNL1        0.0060
     27 C           2.7665    0.8903   28.5434 C.ar    1  UNL1        0.0002
     28 C           1.9146    0.7470   27.3171 C.ar    1  UNL1       -0.0042
     29 N           9.3791   -6.3261   29.1191 N.3     1  UNL1       -0.2982
     30 H           9.2766   -7.2738   29.4822 H       1  UNL1        0.1232
     31 C           9.1111   -6.3958   27.6449 C.3     1  UNL1        0.0540
     32 C           9.5240   -7.6082   26.8640 C.3     1  UNL1        0.0157
     33 C           9.2560   -7.6779   25.3898 C.3     1  UNL1        0.0014
     34 C           8.5750   -6.5352   24.6965 C.3     1  UNL1        0.0001
     35 C           7.9638   -5.7147   23.5997 C.3     1  UNL1        0.0000
     36 C           8.7757   -7.4626   23.5348 C.3     1  UNL1        0.0000
     37 C           8.1622   -5.3230   25.4773 C.3     1  UNL1        0.0014
     38 C           8.4302   -5.2532   26.9516 C.3     1  UNL1        0.0157
@<TRIPOS>BOND
     1    22    23    1
     2    23    24   ar
     3    24    25   ar
     4    25    26   ar
     5    26    17    1
     6    17    18   ar
     7    18    19   ar
     8    19    20   ar
     9    20    13    1
    10    13    14    2
    11    13    15   am
    12    15    16    1
    13     1    15    1
    14     1     2    1
    15     2     3    1
    16     3     4    1
    17     4     5   am
    18     5     6    2
    19     5     7   am
    20     7     8    1
    21     8     9    1
    22     9    10    1
    23    10    29    1
    24    29    31    1
    25    31    32    1
    26    32    33    1
    27    33    34    1
    28    34    35    1
    29    34    36    1
    30    34    37    1
    31    37    38    1
    32    10    11    1
    33     4    12    1
    34    20    21   ar
    35    26    27   ar
    36    27    28   ar
    37    28    23   ar
    38    21    17   ar
    39    12     1    1
    40    11     7    1
    41    38    31    1
    42    29    30    1
@<TRIPOS>MOLECULE
*****
 38 42 0 0 0
SMALL
GASTEIGER

@<TRIPOS>ATOM
      1 C          -0.4212    2.9358   25.6501 C.3     1  UNL1        0.0972
      2 C           0.9199    3.5493   25.9236 C.3     1  UNL1        0.0431
      3 C           1.5925    2.7371   26.9904 C.3     1  UNL1        0.0968
      4 N           0.6670    1.6215   27.3762 N.am    1  UNL1       -0.2623
      5 C           0.9383    0.5680   28.4089 C.2     1  UNL1        0.3073
      6 O          -0.0875   -0.4901   28.6885 O.2     1  UNL1       -0.2523
      7 N           2.2355    0.5727   29.1621 N.am    1  UNL1       -0.2626
      8 C           3.3503    1.5617   28.9919 C.3     1  UNL1        0.0964
      9 C           4.4494    1.1894   29.9424 C.3     1  UNL1        0.0390
     10 C           4.0138   -0.0297   30.7001 C.3     1  UNL1        0.0758
     11 C           2.6456   -0.4109   30.2178 C.3     1  UNL1        0.1106
     12 C          -0.5775    1.7443   26.5479 C.3     1  UNL1        0.1147
     13 C          -1.1402    3.3315   23.1851 C.2     1  UNL1        0.2551
     14 O          -2.1480    3.8231   22.1888 O.2     1  UNL1       -0.2694
     15 N          -1.4291    3.4274   24.6539 N.am    1  UNL1       -0.2738
     16 C          -2.7258    4.0148   25.1264 C.3     1  UNL1        0.1152
     17 C           1.8491    1.1541   22.0066 C.ar    1  UNL1        0.0296
     18 C           2.4550    2.5257   21.9640 C.ar    1  UNL1        0.0071
     19 C           1.4089    3.5083   22.4003 C.ar    1  UNL1        0.0115
     20 C           0.1566    2.7440   22.7125 C.ar    1  UNL1        0.0830
     21 S           0.4286    1.2891   22.4692 S.2     1  UNL1       -0.0824
     22 C           4.6209   -3.9717   20.5775 C.3     1  UNL1        0.0310
     23 C           3.9280   -2.6903   20.9347 C.ar    1  UNL1       -0.0218
     24 C           4.0606   -2.1264   22.3184 C.ar    1  UNL1       -0.0042
     25 C           3.3676   -0.8450   22.6757 C.ar    1  UNL1        0.0002
     26 C           2.5421   -0.1273   21.6493 C.ar    1  UNL1        0.0060
     27 C           2.4095   -0.6912   20.2657 C.ar    1  UNL1        0.0002
     28 C           3.1024   -1.9726   19.9084 C.ar    1  UNL1       -0.0042
     29 N           4.8073   -0.7425   31.7547 N.3     1  UNL1       -0.2982
     30 H           4.1582   -0.9705   32.5078 H       1  UNL1        0.1232
     31 C           5.5391   -2.0073   31.4161 C.3     1  UNL1        0.0540
     32 C           5.7896   -3.0363   32.4784 C.3     1  UNL1        0.0157
     33 C           6.5214   -4.3011   32.1397 C.3     1  UNL1        0.0014
     34 C           7.0026   -4.5369   30.7387 C.3     1  UNL1        0.0001
     35 C           7.6489   -5.2116   29.5652 C.3     1  UNL1        0.0000
     36 C           7.4776   -5.8002   31.3935 C.3     1  UNL1        0.0000
     37 C           6.7522   -3.5080   29.6765 C.3     1  UNL1        0.0014
     38 C           6.0203   -2.2431   30.0151 C.3     1  UNL1        0.0157
@<TRIPOS>BOND
     1    22    23    1
     2    23    24   ar
     3    24    25   ar
     4    25    26   ar
     5    26    17    1
     6    17    18   ar
     7    18    19   ar
     8    19    20   ar
     9    20    13    1
    10    13    14    2
    11    13    15   am
    12    15    16    1
    13     1    15    1
    14     1     2    1
    15     2     3    1
    16     3     4    1
    17     4     5   am
    18     5     6    2
    19     5     7   am
    20     7     8    1
    21     8     9    1
    22     9    10    1
    23    10    29    1
    24    29    31    1
    25    31    32    1
    26    32    33    1
    27    33    34    1
    28    34    35    1
    29    34    36    1
    30    34    37    1
    31    37    38    1
    32    10    11    1
    33     4    12    1
    34    20    21   ar
    35    26    27   ar
    36    27    28   ar
    37    28    23   ar
    38    21    17   ar
    39    12     1    1
    40    11     7    1
    41    38    31    1
    42    29    30    1
@<TRIPOS>MOLECULE
*****
 38 42 0 0 0
SMALL
GASTEIGER

@<TRIPOS>ATOM
      1 C          -0.4715    2.9090   25.3396 C.3     1  UNL1        0.0972
      2 C           0.8936    3.4288   25.6809 C.3     1  UNL1        0.0431
      3 C           1.4334    2.6056   26.8127 C.3     1  UNL1        0.0968
      4 N           0.4020    1.5770   27.1709 N.am    1  UNL1       -0.2623
      5 C           0.5261    0.5426   28.2500 C.2     1  UNL1        0.3073
      6 O          -0.5941   -0.4247   28.4940 O.2     1  UNL1       -0.2523
      7 N           1.7702    0.4755   29.0851 N.am    1  UNL1       -0.2626
      8 C           2.9668    1.3711   28.9580 C.3     1  UNL1        0.0964
      9 C           3.9724    0.9501   29.9884 C.3     1  UNL1        0.0390
     10 C           3.3973   -0.2056   30.7523 C.3     1  UNL1        0.0758
     11 C           2.0363   -0.4989   30.1941 C.3     1  UNL1        0.1106
     12 C          -0.7753    1.7646   26.2605 C.3     1  UNL1        0.1147
     13 C          -0.9761    3.3216   22.8246 C.2     1  UNL1        0.2551
     14 O          -1.8788    3.8530   21.7509 O.2     1  UNL1       -0.2694
     15 N          -1.3742    3.4404   24.2659 N.am    1  UNL1       -0.2738
     16 C          -2.6750    4.0905   24.6335 C.3     1  UNL1        0.1152
     17 C           1.9812    1.0068   21.8438 C.ar    1  UNL1        0.0296
     18 C           2.6717    2.3351   21.9382 C.ar    1  UNL1        0.0071
     19 C           1.6480    3.3639   22.3171 C.ar    1  UNL1        0.0115
     20 C           0.3247    2.6715   22.4569 C.ar    1  UNL1        0.0830
     21 S           0.5307    1.2148   22.1644 S.2     1  UNL1       -0.0824
     22 C           4.5671   -4.2200   20.4320 C.3     1  UNL1        0.0310
     23 C           3.9206   -2.9133   20.7849 C.ar    1  UNL1       -0.0218
     24 C           4.0000   -2.3924   22.1893 C.ar    1  UNL1       -0.0042
     25 C           3.3535   -1.0857   22.5423 C.ar    1  UNL1        0.0002
     26 C           2.6277   -0.2999   21.4909 C.ar    1  UNL1        0.0060
     27 C           2.5483   -0.8207   20.0865 C.ar    1  UNL1        0.0002
     28 C           3.1947   -2.1275   19.7335 C.ar    1  UNL1       -0.0042
     29 N           4.0659   -0.9392   31.8769 N.3     1  UNL1       -0.2982
     30 H           5.0334   -1.0942   31.5934 H       1  UNL1        0.1232
     31 C           4.1085   -0.3320   33.2479 C.3     1  UNL1        0.0540
     32 C           4.7992   -1.0539   34.3667 C.3     1  UNL1        0.0157
     33 C           4.8417   -0.4468   35.7377 C.3     1  UNL1        0.0014
     34 C           4.1936    0.8822   35.9898 C.3     1  UNL1        0.0001
     35 C           3.7294    2.1084   36.7184 C.3     1  UNL1        0.0000
     36 C           4.7231    0.5861   37.3617 C.3     1  UNL1        0.0000
     37 C           3.5030    1.6041   34.8711 C.3     1  UNL1        0.0014
     38 C           3.4604    0.9970   33.5000 C.3     1  UNL1        0.0157
@<TRIPOS>BOND
     1    22    23    1
     2    23    24   ar
     3    24    25   ar
     4    25    26   ar
     5    26    17    1
     6    17    18   ar
     7    18    19   ar
     8    19    20   ar
     9    20    13    1
    10    13    14    2
    11    13    15   am
    12    15    16    1
    13     1    15    1
    14     1     2    1
    15     2     3    1
    16     3     4    1
    17     4     5   am
    18     5     6    2
    19     5     7   am
    20     7     8    1
    21     8     9    1
    22     9    10    1
    23    10    29    1
    24    29    31    1
    25    31    32    1
    26    32    33    1
    27    33    34    1
    28    34    35    1
    29    34    36    1
    30    34    37    1
    31    37    38    1
    32    10    11    1
    33     4    12    1
    34    20    21   ar
    35    26    27   ar
    36    27    28   ar
    37    28    23   ar
    38    21    17   ar
    39    12     1    1
    40    11     7    1
    41    38    31    1
    42    29    30    1
@<TRIPOS>MOLECULE
*****
 38 42 0 0 0
SMALL
GASTEIGER

@<TRIPOS>ATOM
      1 C           1.5059    1.4879   19.6358 C.3     1  UNL1        0.0972
      2 C           1.0817    0.0935   19.9902 C.3     1  UNL1        0.0431
      3 C           2.3157   -0.7035   20.2936 C.3     1  UNL1        0.0968
      4 N           3.5026    0.1984   20.1267 N.am    1  UNL1       -0.2623
      5 C           4.9380   -0.1865   20.3305 C.2     1  UNL1        0.3073
      6 O           6.0231    0.8286   20.1254 O.2     1  UNL1       -0.2523
      7 N           5.2883   -1.5866   20.7393 N.am    1  UNL1       -0.2626
      8 C           4.3168   -2.7038   20.9802 C.3     1  UNL1        0.0964
      9 C           5.0997   -3.9229   21.3688 C.3     1  UNL1        0.0390
     10 C           6.5549   -3.5591   21.3682 C.3     1  UNL1        0.0758
     11 C           6.6714   -2.1151   20.9791 C.3     1  UNL1        0.1106
     12 C           3.0022    1.5527   19.7201 C.3     1  UNL1        0.1147
     13 C           0.1435    3.5954   20.3082 C.2     1  UNL1        0.2551
     14 O          -0.7683    4.7265   19.9350 O.2     1  UNL1       -0.2694
     15 N           0.5941    2.6189   19.2625 N.am    1  UNL1       -0.2738
     16 C           0.1328    2.7735   17.8437 C.3     1  UNL1        0.1152
     17 C           0.6851    2.8298   24.0746 C.ar    1  UNL1        0.0296
     18 C           1.9440    3.5766   23.7467 C.ar    1  UNL1        0.0071
     19 C           1.8944    3.9543   22.2959 C.ar    1  UNL1        0.0115
     20 C           0.6048    3.4409   21.7271 C.ar    1  UNL1        0.0830
     21 S          -0.1425    2.7460   22.8265 S.2     1  UNL1       -0.0824
     22 C          -0.7820    0.5739   29.4373 C.3     1  UNL1        0.0310
     23 C          -0.4152    1.1379   28.0967 C.ar    1  UNL1       -0.0218
     24 C          -1.4144    1.9476   27.3248 C.ar    1  UNL1       -0.0042
     25 C          -1.0476    2.5116   25.9841 C.ar    1  UNL1        0.0002
     26 C           0.3183    2.2658   25.4153 C.ar    1  UNL1        0.0060
     27 C           1.3175    1.4560   26.1872 C.ar    1  UNL1        0.0002
     28 C           0.9508    0.8920   27.5278 C.ar    1  UNL1       -0.0042
     29 N           7.6935   -4.4779   21.6985 N.3     1  UNL1       -0.2982
     30 H           8.5442   -3.9160   21.6661 H       1  UNL1        0.1232
     31 C           7.7093   -5.2125   23.0062 C.3     1  UNL1        0.0540
     32 C           8.3505   -6.5654   23.0988 C.3     1  UNL1        0.0157
     33 C           8.3662   -7.3000   24.4065 C.3     1  UNL1        0.0014
     34 C           7.7409   -6.6816   25.6217 C.3     1  UNL1        0.0001
     35 C           7.2831   -6.5128   27.0401 C.3     1  UNL1        0.0000
     36 C           8.2230   -7.9759   26.2068 C.3     1  UNL1        0.0000
     37 C           7.0999   -5.3288   25.5291 C.3     1  UNL1        0.0014
     38 C           7.0840   -4.5941   24.2214 C.3     1  UNL1        0.0157
@<TRIPOS>BOND
     1    22    23    1
     2    23    24   ar
     3    24    25   ar
     4    25    26   ar
     5    26    17    1
     6    17    18   ar
     7    18    19   ar
     8    19    20   ar
     9    20    13    1
    10    13    14    2
    11    13    15   am
    12    15    16    1
    13     1    15    1
    14     1     2    1
    15     2     3    1
    16     3     4    1
    17     4     5   am
    18     5     6    2
    19     5     7   am
    20     7     8    1
    21     8     9    1
    22     9    10    1
    23    10    29    1
    24    29    31    1
    25    31    32    1
    26    32    33    1
    27    33    34    1
    28    34    35    1
    29    34    36    1
    30    34    37    1
    31    37    38    1
    32    10    11    1
    33     4    12    1
    34    20    21   ar
    35    26    27   ar
    36    27    28   ar
    37    28    23   ar
    38    21    17   ar
    39    12     1    1
    40    11     7    1
    41    38    31    1
    42    29    30    1
