@<TRIPOS>MOLECULE
*****
 31 33 0 0 0
SMALL
GASTEIGER

@<TRIPOS>ATOM
      1 C          -6.8695  -17.1991   23.2989 C.ar    1  UNL1        0.1329
      2 N          -6.7631  -16.0769   24.2885 N.ar    1  UNL1       -0.1993
      3 C          -5.4152  -15.6203   24.7625 C.ar    1  UNL1        0.2148
      4 N          -5.3088  -14.4980   25.7522 N.pl3   1  UNL1       -0.3274
      5 N          -4.1737  -16.2857   24.2469 N.ar    1  UNL1       -0.2139
      6 C          -4.2801  -17.4080   23.2572 C.ar    1  UNL1        0.0870
      7 C          -3.0387  -18.0735   22.7416 C.ar    1  UNL1        0.0193
      8 C          -3.1451  -19.1956   21.7520 C.ar    1  UNL1        0.0017
      9 C          -4.4930  -19.6523   21.2780 C.ar    1  UNL1        0.0047
     10 C          -5.7345  -18.9868   21.7936 C.ar    1  UNL1        0.0575
     11 C          -5.6280  -17.8647   22.7832 C.ar    1  UNL1        0.0535
     12 H          -6.1236  -14.0612   26.0906 H       1  UNL1        0.1452
     13 H          -4.4241  -14.1983   26.0633 H       1  UNL1        0.1452
     14 C          -7.0823  -19.4435   21.3196 C.2     1  UNL1        0.2462
     15 O          -7.9058  -20.3622   22.1728 O.2     1  UNL1       -0.2701
     16 N          -7.6068  -18.9815   19.9925 N.am    1  UNL1       -0.2987
     17 H          -7.0664  -18.3785   19.4325 H       1  UNL1        0.1500
     18 C          -8.9547  -19.4382   19.5185 C.3     1  UNL1        0.0944
     19 C          -9.0586  -20.4638   18.4288 C.3     1  UNL1        0.0262
     20 C         -10.1986  -18.8693   20.1341 C.ar    1  UNL1       -0.0045
     21 C         -10.6508  -17.4863   19.7698 C.ar    1  UNL1       -0.0027
     22 C         -11.8947  -16.9174   20.3854 C.ar    1  UNL1       -0.0003
     23 C         -12.6864  -17.7316   21.3655 C.ar    1  UNL1       -0.0000
     24 C         -12.2342  -19.1146   21.7299 C.ar    1  UNL1       -0.0003
     25 C         -10.9902  -19.6834   21.1142 C.ar    1  UNL1       -0.0027
     26 N          -8.2174  -17.6558   22.8249 N.pl3   1  UNL1       -0.3180
     27 H          -8.2904  -18.4284   22.2192 H       1  UNL1        0.1482
     28 C          -9.4540  -16.9352   23.2738 C.3     1  UNL1        0.0882
     29 C         -10.3664  -17.5681   24.2823 C.3     1  UNL1        0.0212
     30 C         -10.2008  -20.1164   24.7608 C.3     1  UNL1        0.0001
     31 C          -9.8733  -18.7008   25.1332 C.3     1  UNL1        0.0017
@<TRIPOS>BOND
     1    30    31    1
     2    31    29    1
     3    29    28    1
     4    28    26    1
     5    26     1    1
     6     1     2   ar
     7     2     3   ar
     8     3     4    1
     9     3     5   ar
    10     5     6   ar
    11     6     7   ar
    12     7     8   ar
    13     8     9   ar
    14     9    10   ar
    15    10    14    1
    16    14    15    2
    17    14    16   am
    18    16    18    1
    19    18    19    1
    20    18    20    1
    21    20    21   ar
    22    21    22   ar
    23    22    23   ar
    24    23    24   ar
    25    24    25   ar
    26    10    11   ar
    27    11     1   ar
    28    11     6   ar
    29    25    20   ar
    30    26    27    1
    31     4    12    1
    32     4    13    1
    33    16    17    1
@<TRIPOS>MOLECULE
*****
 31 33 0 0 0
SMALL
GASTEIGER

@<TRIPOS>ATOM
      1 C          -4.7475  -17.7797   22.6105 C.ar    1  UNL1        0.1329
      2 N          -3.2717  -17.6818   22.8602 N.ar    1  UNL1       -0.1993
      3 C          -2.3329  -18.6431   22.1935 C.ar    1  UNL1        0.2148
      4 N          -0.8570  -18.5451   22.4433 N.pl3   1  UNL1       -0.3274
      5 N          -2.8698  -19.7022   21.2771 N.ar    1  UNL1       -0.2139
      6 C          -4.3456  -19.8002   21.0274 C.ar    1  UNL1        0.0870
      7 C          -4.8826  -20.8594   20.1110 C.ar    1  UNL1        0.0193
      8 C          -6.3584  -20.9573   19.8613 C.ar    1  UNL1        0.0017
      9 C          -7.2972  -19.9960   20.5280 C.ar    1  UNL1        0.0047
     10 C          -6.7603  -18.9368   21.4444 C.ar    1  UNL1        0.0575
     11 C          -5.2845  -18.8389   21.6941 C.ar    1  UNL1        0.0535
     12 H          -0.5046  -17.8500   23.0448 H       1  UNL1        0.1452
     13 H          -0.2408  -19.1760   22.0057 H       1  UNL1        0.1452
     14 C          -7.6992  -17.9755   22.1110 C.2     1  UNL1        0.2462
     15 O          -7.8812  -16.5955   21.5523 O.2     1  UNL1       -0.2701
     16 N          -8.4560  -18.3943   23.3365 N.am    1  UNL1       -0.2987
     17 H          -8.3365  -19.3001   23.7033 H       1  UNL1        0.1500
     18 C          -9.3949  -17.4330   24.0032 C.3     1  UNL1        0.0944
     19 C          -8.8514  -16.2986   24.8204 C.3     1  UNL1        0.0262
     20 C         -10.8772  -17.6062   23.8527 C.ar    1  UNL1       -0.0045
     21 C         -11.6102  -18.5842   24.7223 C.ar    1  UNL1       -0.0027
     22 C         -13.0925  -18.7573   24.5719 C.ar    1  UNL1       -0.0003
     23 C         -13.8420  -17.9524   23.5517 C.ar    1  UNL1       -0.0000
     24 C         -13.1090  -16.9743   22.6821 C.ar    1  UNL1       -0.0003
     25 C         -11.6265  -16.8013   22.8327 C.ar    1  UNL1       -0.0027
     26 N          -5.6864  -16.8184   23.2772 N.pl3   1  UNL1       -0.3180
     27 H          -6.6155  -17.0863   23.4625 H       1  UNL1        0.1482
     28 C          -5.2098  -15.4491   23.6615 C.3     1  UNL1        0.0882
     29 C          -5.5301  -14.8970   25.0189 C.3     1  UNL1        0.0212
     30 C          -6.4873  -15.6260   27.3217 C.3     1  UNL1        0.0001
     31 C          -5.4793  -15.7902   26.2230 C.3     1  UNL1        0.0017
@<TRIPOS>BOND
     1    30    31    1
     2    31    29    1
     3    29    28    1
     4    28    26    1
     5    26     1    1
     6     1     2   ar
     7     2     3   ar
     8     3     4    1
     9     3     5   ar
    10     5     6   ar
    11     6     7   ar
    12     7     8   ar
    13     8     9   ar
    14     9    10   ar
    15    10    14    1
    16    14    15    2
    17    14    16   am
    18    16    18    1
    19    18    19    1
    20    18    20    1
    21    20    21   ar
    22    21    22   ar
    23    22    23   ar
    24    23    24   ar
    25    24    25   ar
    26    10    11   ar
    27    11     1   ar
    28    11     6   ar
    29    25    20   ar
    30    26    27    1
    31     4    12    1
    32     4    13    1
    33    16    17    1
@<TRIPOS>MOLECULE
*****
 31 33 0 0 0
SMALL
GASTEIGER

@<TRIPOS>ATOM
      1 C          -6.6164  -17.2128   23.2344 C.ar    1  UNL1        0.1329
      2 N          -5.2406  -17.4280   22.6768 N.ar    1  UNL1       -0.1993
      3 C          -4.0455  -16.8741   23.3944 C.ar    1  UNL1        0.2148
      4 N          -2.6697  -17.0893   22.8368 N.pl3   1  UNL1       -0.3274
      5 N          -4.2262  -16.1052   24.6696 N.ar    1  UNL1       -0.2139
      6 C          -5.6020  -15.8900   25.2271 C.ar    1  UNL1        0.0870
      7 C          -5.7827  -15.1210   26.5023 C.ar    1  UNL1        0.0193
      8 C          -7.1585  -14.9058   27.0598 C.ar    1  UNL1        0.0017
      9 C          -8.3536  -15.4597   26.3422 C.ar    1  UNL1        0.0047
     10 C          -8.1729  -16.2287   25.0671 C.ar    1  UNL1        0.0575
     11 C          -6.7971  -16.4438   24.5096 C.ar    1  UNL1        0.0535
     12 H          -2.5511  -17.5941   21.9999 H       1  UNL1        0.1452
     13 H          -1.8853  -16.7258   23.3078 H       1  UNL1        0.1452
     14 C          -9.3680  -16.7825   24.3495 C.2     1  UNL1        0.2462
     15 O          -9.8436  -18.1735   24.6474 O.2     1  UNL1       -0.2701
     16 N         -10.0876  -15.9453   23.3340 N.am    1  UNL1       -0.2987
     17 H          -9.7755  -15.0323   23.1385 H       1  UNL1        0.1500
     18 C         -11.2827  -16.4991   22.6164 C.3     1  UNL1        0.0944
     19 C         -12.6344  -15.8826   22.8240 C.3     1  UNL1        0.0262
     20 C         -11.1263  -17.6694   21.6913 C.ar    1  UNL1       -0.0045
     21 C         -10.6990  -17.4503   20.2702 C.ar    1  UNL1       -0.0027
     22 C         -10.5425  -18.6205   19.3451 C.ar    1  UNL1       -0.0003
     23 C         -10.8133  -20.0101   19.8410 C.ar    1  UNL1       -0.0000
     24 C         -11.2405  -20.2293   21.2621 C.ar    1  UNL1       -0.0003
     25 C         -11.3970  -19.0589   22.1872 C.ar    1  UNL1       -0.0027
     26 N          -7.8115  -17.7667   22.5168 N.pl3   1  UNL1       -0.3180
     27 H          -8.6117  -17.2075   22.3889 H       1  UNL1        0.1482
     28 C          -7.7875  -19.1724   21.9940 C.3     1  UNL1        0.0882
     29 C          -7.1827  -19.4635   20.6526 C.3     1  UNL1        0.0212
     30 C          -4.7187  -20.1837   20.2525 C.3     1  UNL1        0.0001
     31 C          -6.1513  -20.5437   20.5134 C.3     1  UNL1        0.0017
@<TRIPOS>BOND
     1    30    31    1
     2    31    29    1
     3    29    28    1
     4    28    26    1
     5    26     1    1
     6     1     2   ar
     7     2     3   ar
     8     3     4    1
     9     3     5   ar
    10     5     6   ar
    11     6     7   ar
    12     7     8   ar
    13     8     9   ar
    14     9    10   ar
    15    10    14    1
    16    14    15    2
    17    14    16   am
    18    16    18    1
    19    18    19    1
    20    18    20    1
    21    20    21   ar
    22    21    22   ar
    23    22    23   ar
    24    23    24   ar
    25    24    25   ar
    26    10    11   ar
    27    11     1   ar
    28    11     6   ar
    29    25    20   ar
    30    26    27    1
    31     4    12    1
    32     4    13    1
    33    16    17    1
@<TRIPOS>MOLECULE
*****
 31 33 0 0 0
SMALL
GASTEIGER

@<TRIPOS>ATOM
      1 C          -6.7530  -17.2877   23.3277 C.ar    1  UNL1        0.1329
      2 N          -6.6513  -16.1818   24.3360 N.ar    1  UNL1       -0.1993
      3 C          -5.3044  -15.6996   24.7870 C.ar    1  UNL1        0.2148
      4 N          -5.2027  -14.5937   25.7954 N.pl3   1  UNL1       -0.3274
      5 N          -4.0593  -16.3233   24.2298 N.ar    1  UNL1       -0.2139
      6 C          -4.1609  -17.4292   23.2214 C.ar    1  UNL1        0.0870
      7 C          -2.9158  -18.0529   22.6642 C.ar    1  UNL1        0.0193
      8 C          -3.0175  -19.1587   21.6559 C.ar    1  UNL1        0.0017
      9 C          -4.3643  -19.6409   21.2048 C.ar    1  UNL1        0.0047
     10 C          -5.6095  -19.0172   21.7621 C.ar    1  UNL1        0.0575
     11 C          -5.5078  -17.9114   22.7704 C.ar    1  UNL1        0.0535
     12 H          -6.0200  -14.1844   26.1611 H       1  UNL1        0.1452
     13 H          -4.3188  -14.2772   26.0914 H       1  UNL1        0.1452
     14 C          -6.9564  -19.4994   21.3110 C.2     1  UNL1        0.2462
     15 O          -7.7326  -20.4602   22.1620 O.2     1  UNL1       -0.2701
     16 N          -7.5269  -19.0208   20.0090 N.am    1  UNL1       -0.2987
     17 H          -7.0174  -18.3902   19.4504 H       1  UNL1        0.1500
     18 C          -8.8738  -19.5030   19.5579 C.3     1  UNL1        0.0944
     19 C          -8.9760  -20.5537   18.4922 C.3     1  UNL1        0.0262
     20 C         -10.1184  -18.9345   20.1725 C.ar    1  UNL1       -0.0045
     21 C         -10.7748  -19.6372   21.3237 C.ar    1  UNL1       -0.0027
     22 C         -12.0194  -19.0688   21.9383 C.ar    1  UNL1       -0.0003
     23 C         -12.6077  -17.7975   21.4016 C.ar    1  UNL1       -0.0000
     24 C         -11.9513  -17.0948   20.2504 C.ar    1  UNL1       -0.0003
     25 C         -10.7066  -17.6633   19.6359 C.ar    1  UNL1       -0.0027
     26 N          -8.0999  -17.7699   22.8766 N.pl3   1  UNL1       -0.3180
     27 H          -8.1769  -18.6077   22.3654 H       1  UNL1        0.1482
     28 C          -9.3293  -16.9756   23.2045 C.3     1  UNL1        0.0882
     29 C          -9.6695  -15.7547   22.4022 C.3     1  UNL1        0.0212
     30 C          -9.0730  -14.2157   20.3957 C.3     1  UNL1        0.0001
     31 C          -8.6445  -15.1458   21.4918 C.3     1  UNL1        0.0017
@<TRIPOS>BOND
     1    30    31    1
     2    31    29    1
     3    29    28    1
     4    28    26    1
     5    26     1    1
     6     1     2   ar
     7     2     3   ar
     8     3     4    1
     9     3     5   ar
    10     5     6   ar
    11     6     7   ar
    12     7     8   ar
    13     8     9   ar
    14     9    10   ar
    15    10    14    1
    16    14    15    2
    17    14    16   am
    18    16    18    1
    19    18    19    1
    20    18    20    1
    21    20    21   ar
    22    21    22   ar
    23    22    23   ar
    24    23    24   ar
    25    24    25   ar
    26    10    11   ar
    27    11     1   ar
    28    11     6   ar
    29    25    20   ar
    30    26    27    1
    31     4    12    1
    32     4    13    1
    33    16    17    1
@<TRIPOS>MOLECULE
*****
 31 33 0 0 0
SMALL
GASTEIGER

@<TRIPOS>ATOM
      1 C          -7.3144  -17.1886   23.5552 C.ar    1  UNL1        0.1329
      2 N          -6.9824  -16.1368   24.5718 N.ar    1  UNL1       -0.1993
      3 C          -7.9049  -15.8952   25.7297 C.ar    1  UNL1        0.2148
      4 N          -7.5729  -14.8433   26.7463 N.pl3   1  UNL1       -0.3274
      5 N          -9.1592  -16.7054   25.8710 N.ar    1  UNL1       -0.2139
      6 C          -9.4912  -17.7573   24.8544 C.ar    1  UNL1        0.0870
      7 C         -10.7456  -18.5675   24.9957 C.ar    1  UNL1        0.0193
      8 C         -11.0776  -19.6193   23.9791 C.ar    1  UNL1        0.0017
      9 C         -10.1551  -19.8609   22.8212 C.ar    1  UNL1        0.0047
     10 C          -8.9007  -19.0506   22.6799 C.ar    1  UNL1        0.0575
     11 C          -8.5688  -17.9989   23.6965 C.ar    1  UNL1        0.0535
     12 H          -6.7496  -14.3115   26.6536 H       1  UNL1        0.1452
     13 H          -8.1783  -14.6848   27.5063 H       1  UNL1        0.1452
     14 C          -7.9783  -19.2922   21.5220 C.2     1  UNL1        0.2462
     15 O          -8.0272  -18.3916   20.3235 O.2     1  UNL1       -0.2701
     16 N          -7.0069  -20.4344   21.5626 N.am    1  UNL1       -0.2987
     17 H          -6.9747  -21.0256   22.3492 H       1  UNL1        0.1500
     18 C          -6.0844  -20.6760   20.4047 C.3     1  UNL1        0.0944
     19 C          -6.5413  -21.5073   19.2426 C.3     1  UNL1        0.0262
     20 C          -4.7052  -20.0863   20.4088 C.ar    1  UNL1       -0.0045
     21 C          -4.3121  -19.0905   19.3582 C.ar    1  UNL1       -0.0027
     22 C          -2.9329  -18.5009   19.3623 C.ar    1  UNL1       -0.0003
     23 C          -1.9467  -18.9070   20.4171 C.ar    1  UNL1       -0.0000
     24 C          -2.3398  -19.9029   21.4678 C.ar    1  UNL1       -0.0003
     25 C          -3.7191  -20.4925   21.4636 C.ar    1  UNL1       -0.0027
     26 N          -6.3919  -17.4301   22.3973 N.pl3   1  UNL1       -0.3180
     27 H          -6.7366  -17.3873   21.4761 H       1  UNL1        0.1482
     28 C          -4.9443  -17.7369   22.6429 C.3     1  UNL1        0.0882
     29 C          -4.0250  -16.6635   23.1457 C.3     1  UNL1        0.0212
     30 C          -1.9797  -15.8793   21.7487 C.3     1  UNL1        0.0001
     31 C          -2.5577  -16.7294   22.8410 C.3     1  UNL1        0.0017
@<TRIPOS>BOND
     1    30    31    1
     2    31    29    1
     3    29    28    1
     4    28    26    1
     5    26     1    1
     6     1     2   ar
     7     2     3   ar
     8     3     4    1
     9     3     5   ar
    10     5     6   ar
    11     6     7   ar
    12     7     8   ar
    13     8     9   ar
    14     9    10   ar
    15    10    14    1
    16    14    15    2
    17    14    16   am
    18    16    18    1
    19    18    19    1
    20    18    20    1
    21    20    21   ar
    22    21    22   ar
    23    22    23   ar
    24    23    24   ar
    25    24    25   ar
    26    10    11   ar
    27    11     1   ar
    28    11     6   ar
    29    25    20   ar
    30    26    27    1
    31     4    12    1
    32     4    13    1
    33    16    17    1
@<TRIPOS>MOLECULE
*****
 31 33 0 0 0
SMALL
GASTEIGER

@<TRIPOS>ATOM
      1 C           2.8734   -0.5203   23.1511 C.ar    1  UNL1        0.1329
      2 N           3.8071   -1.3447   23.9867 N.ar    1  UNL1       -0.1993
      3 C           3.8423   -1.1610   25.4750 C.ar    1  UNL1        0.2148
      4 N           4.7761   -1.9855   26.3107 N.pl3   1  UNL1       -0.3274
      5 N           2.9437   -0.1527   26.1277 N.ar    1  UNL1       -0.2139
      6 C           2.0099    0.6718   25.2920 C.ar    1  UNL1        0.0870
      7 C           1.1114    1.6801   25.9446 C.ar    1  UNL1        0.0193
      8 C           0.1776    2.5045   25.1090 C.ar    1  UNL1        0.0017
      9 C           0.1424    2.3207   23.6207 C.ar    1  UNL1        0.0047
     10 C           1.0410    1.3125   22.9681 C.ar    1  UNL1        0.0575
     11 C           1.9748    0.4880   23.8037 C.ar    1  UNL1        0.0535
     12 H           5.3659   -2.6472   25.8823 H       1  UNL1        0.1452
     13 H           4.7992   -1.8649   27.2875 H       1  UNL1        0.1452
     14 C           1.0058    1.1287   21.4798 C.2     1  UNL1        0.2462
     15 O           0.1858    0.0255   20.8795 O.2     1  UNL1       -0.2701
     16 N           1.7907    2.0482   20.5918 N.am    1  UNL1       -0.2987
     17 H           2.3289    2.7723   20.9858 H       1  UNL1        0.1500
     18 C           1.7555    1.8644   19.1035 C.3     1  UNL1        0.0944
     19 C           0.5617    2.3226   18.3193 C.3     1  UNL1        0.0262
     20 C           2.9141    1.2225   18.3995 C.ar    1  UNL1       -0.0045
     21 C           4.2531    1.8984   18.3888 C.ar    1  UNL1       -0.0027
     22 C           5.4116    1.2565   17.6848 C.ar    1  UNL1       -0.0003
     23 C           5.2312   -0.0614   16.9914 C.ar    1  UNL1       -0.0000
     24 C           3.8921   -0.7373   17.0021 C.ar    1  UNL1       -0.0003
     25 C           2.7336   -0.0953   17.7062 C.ar    1  UNL1       -0.0027
     26 N           2.8382   -0.7041   21.6628 N.pl3   1  UNL1       -0.3180
     27 H           2.0167   -0.4986   21.1607 H       1  UNL1        0.1482
     28 C           4.0547   -1.2008   20.9395 C.3     1  UNL1        0.0882
     29 C           4.2242   -2.6679   20.6767 C.3     1  UNL1        0.0212
     30 C           4.0027   -4.6277   18.9855 C.3     1  UNL1        0.0001
     31 C           3.5260   -3.3069   19.5130 C.3     1  UNL1        0.0017
@<TRIPOS>BOND
     1    30    31    1
     2    31    29    1
     3    29    28    1
     4    28    26    1
     5    26     1    1
     6     1     2   ar
     7     2     3   ar
     8     3     4    1
     9     3     5   ar
    10     5     6   ar
    11     6     7   ar
    12     7     8   ar
    13     8     9   ar
    14     9    10   ar
    15    10    14    1
    16    14    15    2
    17    14    16   am
    18    16    18    1
    19    18    19    1
    20    18    20    1
    21    20    21   ar
    22    21    22   ar
    23    22    23   ar
    24    23    24   ar
    25    24    25   ar
    26    10    11   ar
    27    11     1   ar
    28    11     6   ar
    29    25    20   ar
    30    26    27    1
    31     4    12    1
    32     4    13    1
    33    16    17    1
@<TRIPOS>MOLECULE
*****
 31 33 0 0 0
SMALL
GASTEIGER

@<TRIPOS>ATOM
      1 C           6.4814   -4.2160   27.4732 C.ar    1  UNL1        0.1329
      2 N           6.3984   -4.3916   28.9606 N.ar    1  UNL1       -0.1993
      3 C           6.9733   -5.6184   29.6042 C.ar    1  UNL1        0.2148
      4 N           6.8903   -5.7940   31.0916 N.pl3   1  UNL1       -0.3274
      5 N           7.6312   -6.6697   28.7605 N.ar    1  UNL1       -0.2139
      6 C           7.7142   -6.4942   27.2730 C.ar    1  UNL1        0.0870
      7 C           8.3721   -7.5454   26.4293 C.ar    1  UNL1        0.0193
      8 C           8.4551   -7.3698   24.9420 C.ar    1  UNL1        0.0017
      9 C           7.8802   -6.1429   24.2984 C.ar    1  UNL1        0.0047
     10 C           7.2223   -5.0917   25.1421 C.ar    1  UNL1        0.0575
     11 C           7.1393   -5.2673   26.6294 C.ar    1  UNL1        0.0535
     12 H           6.4585   -5.1040   31.6454 H       1  UNL1        0.1452
     13 H           7.2676   -6.5993   31.5141 H       1  UNL1        0.1452
     14 C           6.6474   -3.8648   24.4985 C.2     1  UNL1        0.2462
     15 O           7.4628   -2.6085   24.4170 O.2     1  UNL1       -0.2701
     16 N           5.2571   -3.8942   23.9363 N.am    1  UNL1       -0.2987
     17 H           4.7219   -4.7188   23.9898 H       1  UNL1        0.1500
     18 C           4.6822   -2.6673   23.2927 C.3     1  UNL1        0.0944
     19 C           4.4540   -1.4294   24.1085 C.3     1  UNL1        0.0262
     20 C           4.3354   -2.6784   21.8334 C.ar    1  UNL1       -0.0045
     21 C           4.7929   -3.8107   20.9624 C.ar    1  UNL1       -0.0027
     22 C           4.4462   -3.8217   19.5031 C.ar    1  UNL1       -0.0003
     23 C           3.6420   -2.7004   18.9147 C.ar    1  UNL1       -0.0000
     24 C           3.1846   -1.5681   19.7858 C.ar    1  UNL1       -0.0003
     25 C           3.5313   -1.5571   21.2451 C.ar    1  UNL1       -0.0027
     26 N           5.9065   -2.9891   26.8296 N.pl3   1  UNL1       -0.3180
     27 H           5.4470   -3.0579   25.9617 H       1  UNL1        0.1482
     28 C           6.0316   -1.6574   27.5085 C.3     1  UNL1        0.0882
     29 C           4.8798   -1.1052   28.2948 C.3     1  UNL1        0.0212
     30 C           2.3362   -0.6260   28.5194 C.3     1  UNL1        0.0001
     31 C           3.5022   -1.0965   27.7014 C.3     1  UNL1        0.0017
@<TRIPOS>BOND
     1    30    31    1
     2    31    29    1
     3    29    28    1
     4    28    26    1
     5    26     1    1
     6     1     2   ar
     7     2     3   ar
     8     3     4    1
     9     3     5   ar
    10     5     6   ar
    11     6     7   ar
    12     7     8   ar
    13     8     9   ar
    14     9    10   ar
    15    10    14    1
    16    14    15    2
    17    14    16   am
    18    16    18    1
    19    18    19    1
    20    18    20    1
    21    20    21   ar
    22    21    22   ar
    23    22    23   ar
    24    23    24   ar
    25    24    25   ar
    26    10    11   ar
    27    11     1   ar
    28    11     6   ar
    29    25    20   ar
    30    26    27    1
    31     4    12    1
    32     4    13    1
    33    16    17    1
@<TRIPOS>MOLECULE
*****
 31 33 0 0 0
SMALL
GASTEIGER

@<TRIPOS>ATOM
      1 C           6.8244   -4.5451   28.4513 C.ar    1  UNL1        0.1329
      2 N           6.9467   -5.5109   29.5924 N.ar    1  UNL1       -0.1993
      3 C           6.7181   -5.0427   30.9990 C.ar    1  UNL1        0.2148
      4 N           6.8405   -6.0086   32.1402 N.pl3   1  UNL1       -0.3274
      5 N           6.3673   -3.6087   31.2646 N.ar    1  UNL1       -0.2139
      6 C           6.2449   -2.6428   30.1234 C.ar    1  UNL1        0.0870
      7 C           5.8941   -1.2088   30.3889 C.ar    1  UNL1        0.0193
      8 C           5.7717   -0.2430   29.2478 C.ar    1  UNL1        0.0017
      9 C           6.0003   -0.7112   27.8412 C.ar    1  UNL1        0.0047
     10 C           6.3512   -2.1452   27.5757 C.ar    1  UNL1        0.0575
     11 C           6.4735   -3.1110   28.7168 C.ar    1  UNL1        0.0535
     12 H           7.0707   -6.9498   31.9659 H       1  UNL1        0.1452
     13 H           6.6905   -5.7014   33.0634 H       1  UNL1        0.1452
     14 C           6.5797   -2.6133   26.1691 C.2     1  UNL1        0.2462
     15 O           7.9764   -2.7278   25.6343 O.2     1  UNL1       -0.2701
     16 N           5.4115   -2.9671   25.2972 N.am    1  UNL1       -0.2987
     17 H           4.4948   -2.8920   25.6482 H       1  UNL1        0.1500
     18 C           5.6401   -3.4352   23.8906 C.3     1  UNL1        0.0944
     19 C           6.6984   -4.4588   23.6034 C.3     1  UNL1        0.0262
     20 C           4.8104   -2.8799   22.7711 C.ar    1  UNL1       -0.0045
     21 C           3.9764   -1.6530   22.9929 C.ar    1  UNL1       -0.0027
     22 C           3.1468   -1.0976   21.8735 C.ar    1  UNL1       -0.0003
     23 C           3.1510   -1.7692   20.5322 C.ar    1  UNL1       -0.0000
     24 C           3.9850   -2.9961   20.3104 C.ar    1  UNL1       -0.0003
     25 C           4.8147   -3.5515   21.4299 C.ar    1  UNL1       -0.0027
     26 N           7.0529   -5.0132   27.0447 N.pl3   1  UNL1       -0.3180
     27 H           6.5117   -4.6450   26.3093 H       1  UNL1        0.1482
     28 C           8.1060   -6.0423   26.7585 C.3     1  UNL1        0.0882
     29 C           7.7274   -7.3448   26.1181 C.3     1  UNL1        0.0212
     30 C           9.5254   -7.7065   24.2779 C.3     1  UNL1        0.0001
     31 C           8.0852   -7.6081   24.6853 C.3     1  UNL1        0.0017
@<TRIPOS>BOND
     1    30    31    1
     2    31    29    1
     3    29    28    1
     4    28    26    1
     5    26     1    1
     6     1     2   ar
     7     2     3   ar
     8     3     4    1
     9     3     5   ar
    10     5     6   ar
    11     6     7   ar
    12     7     8   ar
    13     8     9   ar
    14     9    10   ar
    15    10    14    1
    16    14    15    2
    17    14    16   am
    18    16    18    1
    19    18    19    1
    20    18    20    1
    21    20    21   ar
    22    21    22   ar
    23    22    23   ar
    24    23    24   ar
    25    24    25   ar
    26    10    11   ar
    27    11     1   ar
    28    11     6   ar
    29    25    20   ar
    30    26    27    1
    31     4    12    1
    32     4    13    1
    33    16    17    1
@<TRIPOS>MOLECULE
*****
 31 33 0 0 0
SMALL
GASTEIGER

@<TRIPOS>ATOM
      1 C           3.3639   -0.5281   24.8817 C.ar    1  UNL1        0.1329
      2 N           4.3775   -1.5409   25.3252 N.ar    1  UNL1       -0.1993
      3 C           4.9418   -2.5192   24.3380 C.ar    1  UNL1        0.2148
      4 N           5.9555   -3.5321   24.7816 N.pl3   1  UNL1       -0.3274
      5 N           4.4925   -2.4847   22.9074 N.ar    1  UNL1       -0.2139
      6 C           3.4788   -1.4718   22.4638 C.ar    1  UNL1        0.0870
      7 C           3.0295   -1.4373   21.0331 C.ar    1  UNL1        0.0193
      8 C           2.0159   -0.4245   20.5896 C.ar    1  UNL1        0.0017
      9 C           1.4516    0.5538   21.5768 C.ar    1  UNL1        0.0047
     10 C           1.9009    0.5193   23.0074 C.ar    1  UNL1        0.0575
     11 C           2.9145   -0.4935   23.4510 C.ar    1  UNL1        0.0535
     12 H           6.2504   -3.5547   25.7207 H       1  UNL1        0.1452
     13 H           6.3258   -4.1742   24.1337 H       1  UNL1        0.1452
     14 C           1.3366    1.4976   23.9946 C.2     1  UNL1        0.2462
     15 O           2.0922    2.7506   24.3244 O.2     1  UNL1       -0.2701
     16 N           0.0167    1.2228   24.6520 N.am    1  UNL1       -0.2987
     17 H          -0.4793    0.4004   24.4356 H       1  UNL1        0.1500
     18 C          -0.5476    2.2011   25.6392 C.3     1  UNL1        0.0944
     19 C          -1.3619    3.3658   25.1591 C.3     1  UNL1        0.0262
     20 C          -0.2977    2.0147   27.1064 C.ar    1  UNL1       -0.0045
     21 C          -0.6916    0.7323   27.7773 C.ar    1  UNL1       -0.0027
     22 C          -0.4416    0.5459   29.2445 C.ar    1  UNL1       -0.0003
     23 C           0.2022    1.6420   30.0409 C.ar    1  UNL1       -0.0000
     24 C           0.5960    2.9245   29.3699 C.ar    1  UNL1       -0.0003
     25 C           0.3461    3.1108   27.9026 C.ar    1  UNL1       -0.0027
     26 N           2.7996    0.4502   25.8689 N.pl3   1  UNL1       -0.3180
     27 H           1.8482    0.6998   25.8257 H       1  UNL1        0.1482
     28 C           3.6847    1.0482   26.9218 C.3     1  UNL1        0.0882
     29 C           3.3662    0.8450   28.3735 C.3     1  UNL1        0.0212
     30 C           2.9136   -0.7560   30.3690 C.3     1  UNL1        0.0001
     31 C           3.1028   -0.5357   28.8974 C.3     1  UNL1        0.0017
@<TRIPOS>BOND
     1    30    31    1
     2    31    29    1
     3    29    28    1
     4    28    26    1
     5    26     1    1
     6     1     2   ar
     7     2     3   ar
     8     3     4    1
     9     3     5   ar
    10     5     6   ar
    11     6     7   ar
    12     7     8   ar
    13     8     9   ar
    14     9    10   ar
    15    10    14    1
    16    14    15    2
    17    14    16   am
    18    16    18    1
    19    18    19    1
    20    18    20    1
    21    20    21   ar
    22    21    22   ar
    23    22    23   ar
    24    23    24   ar
    25    24    25   ar
    26    10    11   ar
    27    11     1   ar
    28    11     6   ar
    29    25    20   ar
    30    26    27    1
    31     4    12    1
    32     4    13    1
    33    16    17    1
