@<TRIPOS>MOLECULE
*****
 20 20 0 0 0
SMALL
GASTEIGER

@<TRIPOS>ATOM
      1 N          -8.5907  -19.1184   20.2720 N.am    1  UNL1       -0.2863
      2 C          -7.6867  -18.4488   21.2640 C.2     1  UNL1        0.3235
      3 O          -8.2265  -17.3819   22.1697 O.2     1  UNL1       -0.2491
      4 N          -6.2428  -18.8461   21.3504 N.ar    1  UNL1       -0.2113
      5 C          -5.7030  -19.9130   20.4448 C.ar    1  UNL1        0.1231
      6 C          -4.2592  -20.3103   20.5312 C.ar    1  UNL1        0.2134
      7 F          -3.7194  -21.3773   19.6255 F       1  UNL1       -0.1975
      8 C          -3.3551  -19.6406   21.5232 C.ar    1  UNL1        0.2901
      9 O          -1.9113  -20.0379   21.6096 O.2     1  UNL1       -0.2646
     10 N          -3.8949  -18.5737   22.4289 N.ar    1  UNL1       -0.2722
     11 C          -5.3388  -18.1764   22.3425 C.ar    1  UNL1        0.3378
     12 O          -5.8785  -17.1094   23.2482 O.2     1  UNL1       -0.2460
     13 H          -8.2365  -19.8187   19.6776 H       1  UNL1        0.1512
     14 H          -3.3015  -18.1342   23.0800 H       1  UNL1        0.1735
     15 C         -10.0346  -18.7211   20.1856 C.3     1  UNL1        0.0911
     16 C         -11.0821  -19.5470   20.8719 C.3     1  UNL1        0.0213
     17 C         -11.0250  -19.7470   22.3574 C.3     1  UNL1        0.0018
     18 C         -11.5484  -18.6847   23.2780 C.3     1  UNL1        0.0001
     19 C         -12.3638  -16.3499   22.4818 C.3     1  UNL1        0.0000
     20 C         -12.6565  -17.7802   22.8262 C.3     1  UNL1        0.0000
@<TRIPOS>BOND
     1    19    20    1
     2    20    18    1
     3    18    17    1
     4    17    16    1
     5    16    15    1
     6    15     1    1
     7     1     2   am
     8     2     3    2
     9     2     4   am
    10     4     5   ar
    11     5     6   ar
    12     6     7    1
    13     6     8   ar
    14     8     9    2
    15     8    10   ar
    16    10    11   ar
    17    11    12    2
    18    11     4   ar
    19     1    13    1
    20    10    14    1
@<TRIPOS>MOLECULE
*****
 20 20 0 0 0
SMALL
GASTEIGER

@<TRIPOS>ATOM
      1 N         -11.1651  -17.0528   23.2074 N.am    1  UNL1       -0.2863
      2 C         -10.0286  -16.3416   22.5346 C.2     1  UNL1        0.3235
      3 O         -10.1011  -16.0304   21.0691 O.2     1  UNL1       -0.2491
      4 N          -8.8197  -15.9416   23.3274 N.ar    1  UNL1       -0.2113
      5 C          -8.7472  -16.2529   24.7930 C.ar    1  UNL1        0.1231
      6 C          -7.5383  -15.8529   25.5858 C.ar    1  UNL1        0.2134
      7 F          -7.4659  -16.1642   27.0514 F       1  UNL1       -0.1975
      8 C          -6.4019  -15.1417   24.9130 C.ar    1  UNL1        0.2901
      9 O          -5.1929  -14.7417   25.7058 O.2     1  UNL1       -0.2646
     10 N          -6.4743  -14.8304   23.4475 N.ar    1  UNL1       -0.2722
     11 C          -7.6833  -15.2304   22.6547 C.ar    1  UNL1        0.3378
     12 O          -7.7557  -14.9191   21.1891 O.2     1  UNL1       -0.2460
     13 H         -11.1175  -17.2571   24.1693 H       1  UNL1        0.1512
     14 H          -5.7284  -14.3636   23.0060 H       1  UNL1        0.1735
     15 C         -12.3740  -17.4528   22.4146 C.3     1  UNL1        0.0911
     16 C         -12.3050  -18.6260   21.4823 C.3     1  UNL1        0.0213
     17 C         -11.2663  -19.6882   21.6891 C.3     1  UNL1        0.0018
     18 C          -9.9805  -19.6401   20.9183 C.3     1  UNL1        0.0001
     19 C          -8.9541  -20.2320   18.6060 C.3     1  UNL1        0.0000
     20 C         -10.0065  -19.5411   19.4217 C.3     1  UNL1        0.0000
@<TRIPOS>BOND
     1    19    20    1
     2    20    18    1
     3    18    17    1
     4    17    16    1
     5    16    15    1
     6    15     1    1
     7     1     2   am
     8     2     3    2
     9     2     4   am
    10     4     5   ar
    11     5     6   ar
    12     6     7    1
    13     6     8   ar
    14     8     9    2
    15     8    10   ar
    16    10    11   ar
    17    11    12    2
    18    11     4   ar
    19     1    13    1
    20    10    14    1
@<TRIPOS>MOLECULE
*****
 20 20 0 0 0
SMALL
GASTEIGER

@<TRIPOS>ATOM
      1 N          -7.4230  -17.0289   23.2414 N.am    1  UNL1       -0.2863
      2 C          -7.1994  -18.1153   22.2316 C.2     1  UNL1        0.3235
      3 O          -8.3604  -18.6796   21.4677 O.2     1  UNL1       -0.2491
      4 N          -5.8148  -18.6372   21.9857 N.ar    1  UNL1       -0.2113
      5 C          -4.6539  -18.0729   22.7497 C.ar    1  UNL1        0.1231
      6 C          -3.2693  -18.5949   22.5038 C.ar    1  UNL1        0.2134
      7 F          -2.1083  -18.0305   23.2678 F       1  UNL1       -0.1975
      8 C          -3.0457  -19.6812   21.4940 C.ar    1  UNL1        0.2901
      9 O          -1.6611  -20.2032   21.2481 O.2     1  UNL1       -0.2646
     10 N          -4.2066  -20.2456   20.7300 N.ar    1  UNL1       -0.2722
     11 C          -5.5912  -19.7236   20.9759 C.ar    1  UNL1        0.3378
     12 O          -6.7522  -20.2880   20.2119 O.2     1  UNL1       -0.2460
     13 H          -6.6611  -16.6585   23.7428 H       1  UNL1        0.1512
     14 H          -4.0599  -20.9586   20.0673 H       1  UNL1        0.1735
     15 C          -8.8076  -16.5069   23.4873 C.3     1  UNL1        0.0911
     16 C          -9.1240  -15.7944   24.7688 C.3     1  UNL1        0.0213
     17 C          -8.6613  -16.3635   26.0773 C.3     1  UNL1        0.0018
     18 C          -7.9829  -15.4798   27.0816 C.3     1  UNL1        0.0001
     19 C          -5.6141  -15.1731   26.0595 C.3     1  UNL1        0.0000
     20 C          -6.4904  -15.5177   27.2271 C.3     1  UNL1        0.0000
@<TRIPOS>BOND
     1    19    20    1
     2    20    18    1
     3    18    17    1
     4    17    16    1
     5    16    15    1
     6    15     1    1
     7     1     2   am
     8     2     3    2
     9     2     4   am
    10     4     5   ar
    11     5     6   ar
    12     6     7    1
    13     6     8   ar
    14     8     9    2
    15     8    10   ar
    16    10    11   ar
    17    11    12    2
    18    11     4   ar
    19     1    13    1
    20    10    14    1
@<TRIPOS>MOLECULE
*****
 20 20 0 0 0
SMALL
GASTEIGER

@<TRIPOS>ATOM
      1 N          -7.8565  -17.4088   23.0309 N.am    1  UNL1       -0.2863
      2 C          -7.4830  -18.4520   22.0200 C.2     1  UNL1        0.3235
      3 O          -8.5448  -19.0931   21.1765 O.2     1  UNL1       -0.2491
      4 N          -6.0476  -18.8541   21.8524 N.ar    1  UNL1       -0.2113
      5 C          -4.9858  -18.2130   22.6959 C.ar    1  UNL1        0.1231
      6 C          -3.5504  -18.6151   22.5283 C.ar    1  UNL1        0.2134
      7 F          -2.4886  -17.9739   23.3718 F       1  UNL1       -0.1975
      8 C          -3.1769  -19.6583   21.5174 C.ar    1  UNL1        0.2901
      9 O          -1.7416  -20.0604   21.3498 O.2     1  UNL1       -0.2646
     10 N          -4.2388  -20.2995   20.6740 N.ar    1  UNL1       -0.2722
     11 C          -5.6741  -19.8974   20.8415 C.ar    1  UNL1        0.3378
     12 O          -6.7360  -20.5386   19.9980 O.2     1  UNL1       -0.2460
     13 H          -7.1596  -16.9879   23.5845 H       1  UNL1        0.1512
     14 H          -3.9936  -20.9842   20.0104 H       1  UNL1        0.1735
     15 C          -9.2919  -17.0067   23.1984 C.3     1  UNL1        0.0911
     16 C         -10.1654  -17.7348   24.1767 C.3     1  UNL1        0.0213
     17 C         -11.3133  -18.5651   23.6836 C.3     1  UNL1        0.0018
     18 C         -12.5463  -17.8984   23.1497 C.3     1  UNL1        0.0001
     19 C         -12.3450  -16.4719   20.9876 C.3     1  UNL1        0.0000
     20 C         -12.7370  -17.7493   21.6694 C.3     1  UNL1        0.0000
@<TRIPOS>BOND
     1    19    20    1
     2    20    18    1
     3    18    17    1
     4    17    16    1
     5    16    15    1
     6    15     1    1
     7     1     2   am
     8     2     3    2
     9     2     4   am
    10     4     5   ar
    11     5     6   ar
    12     6     7    1
    13     6     8   ar
    14     8     9    2
    15     8    10   ar
    16    10    11   ar
    17    11    12    2
    18    11     4   ar
    19     1    13    1
    20    10    14    1
@<TRIPOS>MOLECULE
*****
 20 20 0 0 0
SMALL
GASTEIGER

@<TRIPOS>ATOM
      1 N          -5.8180  -19.2956   21.9099 N.am    1  UNL1       -0.2863
      2 C          -6.5560  -18.0444   22.2834 C.2     1  UNL1        0.3235
      3 O          -5.8768  -16.9906   23.1070 O.2     1  UNL1       -0.2491
      4 N          -7.9732  -17.8469   21.8335 N.ar    1  UNL1       -0.2113
      5 C          -8.6524  -18.9006   21.0099 C.ar    1  UNL1        0.1231
      6 C         -10.0696  -18.7031   20.5599 C.ar    1  UNL1        0.2134
      7 F         -10.7488  -19.7570   19.7363 F       1  UNL1       -0.1975
      8 C         -10.8077  -17.4519   20.9335 C.ar    1  UNL1        0.2901
      9 O         -12.2249  -17.2544   20.4835 O.2     1  UNL1       -0.2646
     10 N         -10.1285  -16.3981   21.7571 N.ar    1  UNL1       -0.2722
     11 C          -8.7113  -16.5956   22.2070 C.ar    1  UNL1        0.3378
     12 O          -8.0321  -15.5418   23.0306 O.2     1  UNL1       -0.2460
     13 H          -6.2637  -19.9872   21.3693 H       1  UNL1        0.1512
     14 H         -10.6129  -15.5769   22.0023 H       1  UNL1        0.1735
     15 C          -4.4007  -19.4931   22.3599 C.3     1  UNL1        0.0911
     16 C          -3.3028  -19.6208   21.3458 C.3     1  UNL1        0.0213
     17 C          -3.5490  -19.2254   19.9200 C.3     1  UNL1        0.0018
     18 C          -2.8421  -18.0370   19.3385 C.3     1  UNL1        0.0001
     19 C          -0.3027  -17.7874   19.8278 C.3     1  UNL1        0.0000
     20 C          -1.4152  -18.1576   18.8920 C.3     1  UNL1        0.0000
@<TRIPOS>BOND
     1    19    20    1
     2    20    18    1
     3    18    17    1
     4    17    16    1
     5    16    15    1
     6    15     1    1
     7     1     2   am
     8     2     3    2
     9     2     4   am
    10     4     5   ar
    11     5     6   ar
    12     6     7    1
    13     6     8   ar
    14     8     9    2
    15     8    10   ar
    16    10    11   ar
    17    11    12    2
    18    11     4   ar
    19     1    13    1
    20    10    14    1
@<TRIPOS>MOLECULE
*****
 20 20 0 0 0
SMALL
GASTEIGER

@<TRIPOS>ATOM
      1 N          -8.7076  -16.4079   25.8179 N.am    1  UNL1       -0.2863
      2 C          -8.5734  -16.0582   24.3654 C.2     1  UNL1        0.3235
      3 O          -7.9212  -14.7693   23.9615 O.2     1  UNL1       -0.2491
      4 N          -9.0913  -16.9976   23.3169 N.ar    1  UNL1       -0.2113
      5 C          -9.7434  -18.2866   23.7208 C.ar    1  UNL1        0.1231
      6 C         -10.2613  -19.2259   22.6723 C.ar    1  UNL1        0.2134
      7 F         -10.9135  -20.5149   23.0763 F       1  UNL1       -0.1975
      8 C         -10.1271  -18.8762   21.2198 C.ar    1  UNL1        0.2901
      9 O         -10.6450  -19.8156   20.1713 O.2     1  UNL1       -0.2646
     10 N          -9.4750  -17.5873   20.8159 N.ar    1  UNL1       -0.2722
     11 C          -8.9570  -16.6479   21.8644 C.ar    1  UNL1        0.3378
     12 O          -8.3049  -15.3589   21.4604 O.2     1  UNL1       -0.2460
     13 H          -9.1356  -17.2539   26.0830 H       1  UNL1        0.1512
     14 H          -9.3869  -17.3578   19.8626 H       1  UNL1        0.1735
     15 C          -8.1897  -15.4685   26.8664 C.3     1  UNL1        0.0911
     16 C          -6.7491  -15.5274   27.2806 C.3     1  UNL1        0.0213
     17 C          -5.6765  -15.0882   26.3285 C.3     1  UNL1        0.0018
     18 C          -4.8375  -16.1103   25.6205 C.3     1  UNL1        0.0001
     19 C          -4.1764  -17.3342   23.4262 C.3     1  UNL1        0.0000
     20 C          -4.8738  -16.2042   24.1239 C.3     1  UNL1        0.0000
@<TRIPOS>BOND
     1    19    20    1
     2    20    18    1
     3    18    17    1
     4    17    16    1
     5    16    15    1
     6    15     1    1
     7     1     2   am
     8     2     3    2
     9     2     4   am
    10     4     5   ar
    11     5     6   ar
    12     6     7    1
    13     6     8   ar
    14     8     9    2
    15     8    10   ar
    16    10    11   ar
    17    11    12    2
    18    11     4   ar
    19     1    13    1
    20    10    14    1
@<TRIPOS>MOLECULE
*****
 20 20 0 0 0
SMALL
GASTEIGER

@<TRIPOS>ATOM
      1 N          -6.7743  -19.1091   19.6438 N.am    1  UNL1       -0.2863
      2 C          -5.8519  -19.2814   20.8140 C.2     1  UNL1        0.3235
      3 O          -6.3974  -19.7196   22.1408 O.2     1  UNL1       -0.2491
      4 N          -4.3840  -19.0154   20.6574 N.ar    1  UNL1       -0.2113
      5 C          -3.8385  -18.5772   19.3306 C.ar    1  UNL1        0.1231
      6 C          -2.3706  -18.3113   19.1740 C.ar    1  UNL1        0.2134
      7 F          -1.8252  -17.8730   17.8472 F       1  UNL1       -0.1975
      8 C          -1.4482  -18.4836   20.3442 C.ar    1  UNL1        0.2901
      9 O           0.0198  -18.2177   20.1876 O.2     1  UNL1       -0.2646
     10 N          -1.9936  -18.9218   21.6710 N.ar    1  UNL1       -0.2722
     11 C          -3.4615  -19.1878   21.8276 C.ar    1  UNL1        0.3378
     12 O          -4.0070  -19.6260   23.1544 O.2     1  UNL1       -0.2460
     13 H          -6.4163  -18.8214   18.7730 H       1  UNL1        0.1512
     14 H          -1.3882  -19.0349   22.4390 H       1  UNL1        0.1735
     15 C          -8.2422  -19.3750   19.8004 C.3     1  UNL1        0.0911
     16 C          -9.0390  -18.6098   20.8152 C.3     1  UNL1        0.0213
     17 C         -10.3818  -19.1163   21.2514 C.3     1  UNL1        0.0018
     18 C         -11.6320  -18.4740   20.7277 C.3     1  UNL1        0.0001
     19 C         -12.4631  -18.0039   23.1440 C.3     1  UNL1        0.0000
     20 C         -12.5588  -17.7605   21.6669 C.3     1  UNL1        0.0000
@<TRIPOS>BOND
     1    19    20    1
     2    20    18    1
     3    18    17    1
     4    17    16    1
     5    16    15    1
     6    15     1    1
     7     1     2   am
     8     2     3    2
     9     2     4   am
    10     4     5   ar
    11     5     6   ar
    12     6     7    1
    13     6     8   ar
    14     8     9    2
    15     8    10   ar
    16    10    11   ar
    17    11    12    2
    18    11     4   ar
    19     1    13    1
    20    10    14    1
@<TRIPOS>MOLECULE
*****
 20 20 0 0 0
SMALL
GASTEIGER

@<TRIPOS>ATOM
      1 N          -8.1984  -17.6469   21.8106 N.am    1  UNL1       -0.2863
      2 C          -6.9569  -17.3624   22.6029 C.2     1  UNL1        0.3235
      3 O          -6.9836  -16.3351   23.6956 O.2     1  UNL1       -0.2491
      4 N          -5.6888  -18.1050   22.3025 N.ar    1  UNL1       -0.2113
      5 C          -5.6621  -19.1323   21.2098 C.ar    1  UNL1        0.1231
      6 C          -4.3939  -19.8749   20.9094 C.ar    1  UNL1        0.2134
      7 F          -4.3673  -20.9022   19.8166 F       1  UNL1       -0.1975
      8 C          -3.1525  -19.5903   21.7017 C.ar    1  UNL1        0.2901
      9 O          -1.8843  -20.3330   21.4012 O.2     1  UNL1       -0.2646
     10 N          -3.1792  -18.5631   22.7944 N.ar    1  UNL1       -0.2722
     11 C          -4.4473  -17.8205   23.0948 C.ar    1  UNL1        0.3378
     12 O          -4.4740  -16.7932   24.1875 O.2     1  UNL1       -0.2460
     13 H          -8.1809  -18.3212   21.0934 H       1  UNL1        0.1512
     14 H          -2.3644  -18.3763   23.3144 H       1  UNL1        0.1735
     15 C          -9.4666  -16.9043   22.1110 C.3     1  UNL1        0.0911
     16 C         -10.6219  -17.6194   22.7465 C.3     1  UNL1        0.0213
     17 C         -10.5365  -19.0929   23.0140 C.3     1  UNL1        0.0018
     18 C         -10.9886  -20.0719   21.9714 C.3     1  UNL1        0.0001
     19 C          -9.9616  -19.6951   19.6148 C.3     1  UNL1        0.0000
     20 C         -11.1370  -19.6331   20.5447 C.3     1  UNL1        0.0000
@<TRIPOS>BOND
     1    19    20    1
     2    20    18    1
     3    18    17    1
     4    17    16    1
     5    16    15    1
     6    15     1    1
     7     1     2   am
     8     2     3    2
     9     2     4   am
    10     4     5   ar
    11     5     6   ar
    12     6     7    1
    13     6     8   ar
    14     8     9    2
    15     8    10   ar
    16    10    11   ar
    17    11    12    2
    18    11     4   ar
    19     1    13    1
    20    10    14    1
@<TRIPOS>MOLECULE
*****
 20 20 0 0 0
SMALL
GASTEIGER

@<TRIPOS>ATOM
      1 N          -7.1757  -19.7902   22.2080 N.am    1  UNL1       -0.2863
      2 C          -8.1874  -19.1296   21.3192 C.2     1  UNL1        0.3235
      3 O          -7.8263  -18.7726   19.9078 O.2     1  UNL1       -0.2491
      4 N          -9.5603  -18.8259   21.8418 N.ar    1  UNL1       -0.2113
      5 C          -9.9214  -19.1829   23.2532 C.ar    1  UNL1        0.1231
      6 C         -11.2942  -18.8793   23.7758 C.ar    1  UNL1        0.2134
      7 F         -11.6554  -19.2363   25.1872 F       1  UNL1       -0.1975
      8 C         -12.3059  -18.2186   22.8870 C.ar    1  UNL1        0.2901
      9 O         -13.6788  -17.9150   23.4096 O.2     1  UNL1       -0.2646
     10 N         -11.9448  -17.8616   21.4756 N.ar    1  UNL1       -0.2722
     11 C         -10.5719  -18.1652   20.9530 C.ar    1  UNL1        0.3378
     12 O         -10.2108  -17.8082   19.5415 O.2     1  UNL1       -0.2460
     13 H          -7.4128  -20.0246   23.1343 H       1  UNL1        0.1512
     14 H         -12.6088  -17.4280   20.8923 H       1  UNL1        0.1735
     15 C          -5.8029  -20.0939   21.6854 C.3     1  UNL1        0.0911
     16 C          -4.6104  -19.3811   22.2511 C.3     1  UNL1        0.0213
     17 C          -3.3889  -19.1751   21.4053 C.3     1  UNL1        0.0018
     18 C          -3.5262  -18.9798   19.9245 C.3     1  UNL1        0.0001
     19 C          -1.0476  -18.2120   19.7941 C.3     1  UNL1        0.0000
     20 C          -2.3662  -18.4645   19.1251 C.3     1  UNL1        0.0000
@<TRIPOS>BOND
     1    19    20    1
     2    20    18    1
     3    18    17    1
     4    17    16    1
     5    16    15    1
     6    15     1    1
     7     1     2   am
     8     2     3    2
     9     2     4   am
    10     4     5   ar
    11     5     6   ar
    12     6     7    1
    13     6     8   ar
    14     8     9    2
    15     8    10   ar
    16    10    11   ar
    17    11    12    2
    18    11     4   ar
    19     1    13    1
    20    10    14    1
