@<TRIPOS>MOLECULE
*****
 32 35 0 0 0
SMALL
GASTEIGER

@<TRIPOS>ATOM
      1 C           6.0764   -0.2851   20.4813 C.2     1  UNL1        0.2521
      2 O           7.1520    0.7041   20.1428 O.2     1  UNL1       -0.2698
      3 N           6.3797   -1.4425   21.3860 N.am    1  UNL1       -0.2725
      4 C           5.3042   -2.4318   21.7245 C.3     1  UNL1        0.1151
      5 C           5.6075   -3.5892   22.6292 C.3     1  UNL1        0.1124
      6 N           6.9864   -3.7574   23.1953 N.pl3   1  UNL1       -0.3023
      7 C           8.0619   -2.7681   22.8568 C.3     1  UNL1        0.1124
      8 C           7.7586   -1.6107   21.9521 C.3     1  UNL1        0.1151
      9 C           7.2897   -4.9147   24.0999 C.ar    1  UNL1        0.0758
     10 C           8.0110   -6.1161   23.5647 C.ar    1  UNL1        0.0175
     11 C           8.3143   -7.2735   24.4694 C.ar    1  UNL1        0.0117
     12 C           7.8963   -7.2296   25.9093 C.ar    1  UNL1        0.0708
     13 C           7.1749   -6.0283   26.4445 C.ar    1  UNL1        0.0412
     14 C           6.8716   -4.8709   25.5399 C.ar    1  UNL1        0.1540
     15 F           6.1503   -3.6695   26.0751 F       1  UNL1       -0.2028
     16 C           8.1996   -8.3870   26.8139 C.1     1  UNL1        0.1005
     17 N           8.5028   -9.5445   27.7185 N.1     1  UNL1       -0.1908
     18 C           2.2421    0.6917   20.1743 C.ar    1  UNL1        0.1061
     19 C           1.9399    0.2195   18.7830 C.ar    1  UNL1        0.0215
     20 C           3.0164   -0.4209   17.9578 C.ar    1  UNL1        0.0384
     21 C           4.3953   -0.5891   18.5239 C.ar    1  UNL1        0.1429
     22 C           4.6975   -0.1169   19.9152 C.ar    1  UNL1        0.0887
     23 C           3.6210    0.5235   20.7403 C.ar    1  UNL1        0.0259
     24 C           0.0890    1.9725   21.8246 C.3     1  UNL1        0.1816
     25 S           1.1656    1.3321   20.9994 S.O2    1  UNL1        0.0105
     26 O           2.1324    2.3916   21.4385 O.2     1  UNL1       -0.1686
     27 O           0.1988    0.2725   20.5604 O.2     1  UNL1       -0.1686
     28 O           5.4718   -1.2295   17.6988 O.3     1  UNL1       -0.4753
     29 C           5.8923   -2.6417   17.9799 C.3     1  UNL1        0.2053
     30 C           4.8920   -3.6335   18.4953 C.3     1  UNL1        0.0438
     31 C           4.5518   -5.0271   18.9336 C.3     1  UNL1        0.0038
     32 C           3.4999   -3.9579   18.9498 C.3     1  UNL1        0.0038
@<TRIPOS>BOND
     1    24    25    1
     2    25    26    2
     3    25    27    2
     4    25    18    1
     5    18    19   ar
     6    19    20   ar
     7    20    21   ar
     8    21    28    1
     9    28    29    1
    10    29    30    1
    11    30    31    1
    12    31    32    1
    13    21    22   ar
    14    22     1    1
    15     1     2    2
    16     1     3   am
    17     3     4    1
    18     4     5    1
    19     5     6    1
    20     6     9    1
    21     9    10   ar
    22    10    11   ar
    23    11    12   ar
    24    12    16    1
    25    16    17    3
    26    12    13   ar
    27    13    14   ar
    28    14    15    1
    29     6     7    1
    30     7     8    1
    31    22    23   ar
    32    23    18   ar
    33    32    30    1
    34     8     3    1
    35    14     9   ar
@<TRIPOS>MOLECULE
*****
 32 35 0 0 0
SMALL
GASTEIGER

@<TRIPOS>ATOM
      1 C           5.6478    0.4352   20.5734 C.2     1  UNL1        0.2521
      2 O           6.7854    1.2802   20.0816 O.2     1  UNL1       -0.2698
      3 N           5.8021   -0.3746   21.8265 N.am    1  UNL1       -0.2725
      4 C           4.6645   -1.2195   22.3183 C.3     1  UNL1        0.1151
      5 C           4.8189   -2.0294   23.5715 C.3     1  UNL1        0.1124
      6 N           6.1108   -1.9942   24.3328 N.pl3   1  UNL1       -0.3023
      7 C           7.2485   -1.1493   23.8410 C.3     1  UNL1        0.1124
      8 C           7.0941   -0.3395   22.5879 C.3     1  UNL1        0.1151
      9 C           6.2652   -2.8041   25.5859 C.ar    1  UNL1        0.0758
     10 C           6.0026   -2.1754   26.9223 C.ar    1  UNL1        0.0175
     11 C           6.1569   -2.9853   28.1755 C.ar    1  UNL1        0.0117
     12 C           6.5738   -4.4238   28.0922 C.ar    1  UNL1        0.0708
     13 C           6.8364   -5.0524   26.7558 C.ar    1  UNL1        0.0412
     14 C           6.6821   -4.2426   25.5027 C.ar    1  UNL1        0.1540
     15 F           6.9447   -4.8712   24.1664 F       1  UNL1       -0.2028
     16 C           6.7281   -5.2336   29.3453 C.1     1  UNL1        0.1005
     17 N           6.8824   -6.0434   30.5985 N.1     1  UNL1       -0.1908
     18 C           1.8434    1.0311   19.6135 C.ar    1  UNL1        0.1061
     19 C           1.7720    0.3299   18.2894 C.ar    1  UNL1        0.0215
     20 C           2.9925   -0.3361   17.7267 C.ar    1  UNL1        0.0384
     21 C           4.2844   -0.3010   18.4880 C.ar    1  UNL1        0.1429
     22 C           4.3558    0.4001   19.8120 C.ar    1  UNL1        0.0887
     23 C           3.1353    1.0662   20.3748 C.ar    1  UNL1        0.0259
     24 C          -0.5976    2.3632   20.7391 C.3     1  UNL1        0.1816
     25 S           0.6229    1.6972   20.1763 S.O2    1  UNL1        0.0105
     26 O           0.0652    0.3567   20.5533 O.2     1  UNL1       -0.1686
     27 O           1.1806    3.0376   19.7993 O.2     1  UNL1       -0.1686
     28 O           5.5049   -0.9671   17.9252 O.3     1  UNL1       -0.4753
     29 C           5.9291   -2.3116   18.4374 C.3     1  UNL1        0.2053
     30 C           4.8981   -3.3578   18.7415 C.3     1  UNL1        0.0438
     31 C           3.5270   -3.7290   19.2234 C.3     1  UNL1        0.0038
     32 C           4.4834   -4.7986   18.7862 C.3     1  UNL1        0.0038
@<TRIPOS>BOND
     1    24    25    1
     2    25    26    2
     3    25    27    2
     4    25    18    1
     5    18    19   ar
     6    19    20   ar
     7    20    21   ar
     8    21    28    1
     9    28    29    1
    10    29    30    1
    11    30    31    1
    12    31    32    1
    13    21    22   ar
    14    22     1    1
    15     1     2    2
    16     1     3   am
    17     3     4    1
    18     4     5    1
    19     5     6    1
    20     6     9    1
    21     9    10   ar
    22    10    11   ar
    23    11    12   ar
    24    12    16    1
    25    16    17    3
    26    12    13   ar
    27    13    14   ar
    28    14    15    1
    29     6     7    1
    30     7     8    1
    31    22    23   ar
    32    23    18   ar
    33    32    30    1
    34     8     3    1
    35    14     9   ar
@<TRIPOS>MOLECULE
*****
 32 35 0 0 0
SMALL
GASTEIGER

@<TRIPOS>ATOM
      1 C           3.7276    0.9935   20.2327 C.2     1  UNL1        0.2521
      2 O           4.8697    1.9176   19.9302 O.2     1  UNL1       -0.2698
      3 N           2.3417    1.5431   20.3980 N.am    1  UNL1       -0.2725
      4 C           1.1996    0.6190   20.7005 C.3     1  UNL1        0.1151
      5 C          -0.1864    1.1686   20.8658 C.3     1  UNL1        0.1124
      6 N          -0.4300    2.6423   20.7285 N.pl3   1  UNL1       -0.3023
      7 C           0.7121    3.5664   20.4260 C.3     1  UNL1        0.1124
      8 C           2.0980    3.0168   20.2608 C.3     1  UNL1        0.1151
      9 C          -1.8159    3.1918   20.8938 C.ar    1  UNL1        0.0758
     10 C          -2.6822    3.4164   19.6900 C.ar    1  UNL1        0.0175
     11 C          -4.0681    3.9660   19.8554 C.ar    1  UNL1        0.0117
     12 C          -4.5877    4.2910   21.2245 C.ar    1  UNL1        0.0708
     13 C          -3.7214    4.0664   22.4282 C.ar    1  UNL1        0.0412
     14 C          -2.3355    3.5168   22.2630 C.ar    1  UNL1        0.1540
     15 F          -1.4692    3.2922   23.4667 F       1  UNL1       -0.2028
     16 C          -5.9735    4.8405   21.3897 C.1     1  UNL1        0.1005
     17 N          -7.3594    5.3902   21.5550 N.1     1  UNL1       -0.1908
     18 C           4.7919   -2.5035   21.7781 C.ar    1  UNL1        0.1061
     19 C           4.4588   -3.4275   20.6445 C.ar    1  UNL1        0.0215
     20 C           3.8820   -2.8779   19.3736 C.ar    1  UNL1        0.0384
     21 C           3.6382   -1.4043   19.2363 C.ar    1  UNL1        0.1429
     22 C           3.9713   -0.4802   20.3699 C.ar    1  UNL1        0.0887
     23 C           4.5481   -1.0298   21.6408 C.ar    1  UNL1        0.0259
     24 C           5.9456   -3.6027   24.3199 C.3     1  UNL1        0.1816
     25 S           5.3687   -3.0531   23.0490 S.O2    1  UNL1        0.0105
     26 O           5.8805   -4.2477   22.3001 O.2     1  UNL1       -0.1686
     27 O           4.8569   -1.8585   23.7979 O.2     1  UNL1       -0.1686
     28 O           3.0614   -0.8546   17.9654 O.3     1  UNL1       -0.4753
     29 C           3.9444   -0.6409   16.7719 C.3     1  UNL1        0.2053
     30 C           5.3276   -0.0891   16.9515 C.3     1  UNL1        0.0438
     31 C           6.3443    0.9808   16.6837 C.3     1  UNL1        0.0038
     32 C           6.7067   -0.2033   17.5302 C.3     1  UNL1        0.0038
@<TRIPOS>BOND
     1    24    25    1
     2    25    26    2
     3    25    27    2
     4    25    18    1
     5    18    19   ar
     6    19    20   ar
     7    20    21   ar
     8    21    28    1
     9    28    29    1
    10    29    30    1
    11    30    31    1
    12    31    32    1
    13    21    22   ar
    14    22     1    1
    15     1     2    2
    16     1     3   am
    17     3     4    1
    18     4     5    1
    19     5     6    1
    20     6     9    1
    21     9    10   ar
    22    10    11   ar
    23    11    12   ar
    24    12    16    1
    25    16    17    3
    26    12    13   ar
    27    13    14   ar
    28    14    15    1
    29     6     7    1
    30     7     8    1
    31    22    23   ar
    32    23    18   ar
    33    32    30    1
    34     8     3    1
    35    14     9   ar
@<TRIPOS>MOLECULE
*****
 32 35 0 0 0
SMALL
GASTEIGER

@<TRIPOS>ATOM
      1 C           4.2331    2.4995   28.7070 C.2     1  UNL1        0.2521
      2 O           4.9446    3.8165   28.6108 O.2     1  UNL1       -0.2698
      3 N           4.2534    1.5495   27.5464 N.am    1  UNL1       -0.2725
      4 C           3.5419    0.2325   27.6426 C.3     1  UNL1        0.1151
      5 C           3.5621   -0.7175   26.4819 C.3     1  UNL1        0.1124
      6 N           4.2939   -0.3504   25.2251 N.pl3   1  UNL1       -0.3023
      7 C           5.0054    0.9666   25.1288 C.3     1  UNL1        0.1124
      8 C           4.9851    1.9166   26.2895 C.3     1  UNL1        0.1151
      9 C           4.3142   -1.3004   24.0644 C.ar    1  UNL1        0.0758
     10 C           3.5498   -0.9750   22.8155 C.ar    1  UNL1        0.0175
     11 C           3.5701   -1.9250   21.6548 C.ar    1  UNL1        0.0117
     12 C           4.3547   -3.2004   21.7431 C.ar    1  UNL1        0.0708
     13 C           5.1191   -3.5258   22.9921 C.ar    1  UNL1        0.0412
     14 C           5.0988   -2.5758   24.1527 C.ar    1  UNL1        0.1540
     15 F           5.8631   -2.9012   25.4017 F       1  UNL1       -0.2028
     16 C           4.3750   -4.1503   20.5825 C.1     1  UNL1        0.1005
     17 N           4.3952   -5.1003   19.4218 N.1     1  UNL1       -0.1908
     18 C           3.4768    1.0106   32.3072 C.ar    1  UNL1        0.1061
     19 C           2.0379    1.3984   32.4778 C.ar    1  UNL1        0.0215
     20 C           1.3307    2.1533   31.3915 C.ar    1  UNL1        0.0384
     21 C           2.0624    2.5203   30.1346 C.ar    1  UNL1        0.1429
     22 C           3.5013    2.1325   29.9640 C.ar    1  UNL1        0.0887
     23 C           4.2085    1.3776   31.0503 C.ar    1  UNL1        0.0259
     24 C           4.8912   -0.4991   34.4799 C.3     1  UNL1        0.1816
     25 S           4.1840    0.2558   33.3936 S.O2    1  UNL1        0.0105
     26 O           3.6012   -1.0278   32.8810 O.2     1  UNL1       -0.1686
     27 O           4.7668    1.5394   33.9061 O.2     1  UNL1       -0.1686
     28 O           1.3552    3.2751   29.0483 O.3     1  UNL1       -0.4753
     29 C           0.5031    2.5400   28.0566 C.3     1  UNL1        0.2053
     30 C          -0.1334    1.2358   28.4359 C.3     1  UNL1        0.0438
     31 C          -1.3592    0.4341   28.7593 C.3     1  UNL1        0.0038
     32 C          -0.0101   -0.2214   28.7694 C.3     1  UNL1        0.0038
@<TRIPOS>BOND
     1    24    25    1
     2    25    26    2
     3    25    27    2
     4    25    18    1
     5    18    19   ar
     6    19    20   ar
     7    20    21   ar
     8    21    28    1
     9    28    29    1
    10    29    30    1
    11    30    31    1
    12    31    32    1
    13    21    22   ar
    14    22     1    1
    15     1     2    2
    16     1     3   am
    17     3     4    1
    18     4     5    1
    19     5     6    1
    20     6     9    1
    21     9    10   ar
    22    10    11   ar
    23    11    12   ar
    24    12    16    1
    25    16    17    3
    26    12    13   ar
    27    13    14   ar
    28    14    15    1
    29     6     7    1
    30     7     8    1
    31    22    23   ar
    32    23    18   ar
    33    32    30    1
    34     8     3    1
    35    14     9   ar
@<TRIPOS>MOLECULE
*****
 32 35 0 0 0
SMALL
GASTEIGER

@<TRIPOS>ATOM
      1 C          -0.6411    3.5889   18.1930 C.2     1  UNL1        0.2521
      2 O          -1.3783    3.4841   16.8909 O.2     1  UNL1       -0.2698
      3 N          -1.3914    3.8832   19.4581 N.am    1  UNL1       -0.2725
      4 C          -0.6543    3.9880   20.7602 C.3     1  UNL1        0.1151
      5 C          -1.4046    4.2823   22.0253 C.3     1  UNL1        0.1124
      6 N          -2.8921    4.4719   21.9882 N.pl3   1  UNL1       -0.3023
      7 C          -3.6293    4.3671   20.6860 C.3     1  UNL1        0.1124
      8 C          -2.8790    4.0728   19.4210 C.3     1  UNL1        0.1151
      9 C          -3.6424    4.7663   23.2532 C.ar    1  UNL1        0.0758
     10 C          -3.4017    6.0528   23.9860 C.ar    1  UNL1        0.0175
     11 C          -4.1520    6.3471   25.2511 C.ar    1  UNL1        0.0117
     12 C          -5.1431    5.3549   25.7833 C.ar    1  UNL1        0.0708
     13 C          -5.3839    4.0684   25.0506 C.ar    1  UNL1        0.0412
     14 C          -4.6336    3.7741   23.7855 C.ar    1  UNL1        0.1540
     15 F          -4.8743    2.4876   23.0528 F       1  UNL1       -0.2028
     16 C          -5.8934    5.6493   27.0484 C.1     1  UNL1        0.1005
     17 N          -6.6437    5.9437   28.3135 N.1     1  UNL1       -0.1908
     18 C           3.2449    4.3772   18.0283 C.ar    1  UNL1        0.1061
     19 C           3.8214    3.0202   18.3042 C.ar    1  UNL1        0.0215
     20 C           2.9104    1.8527   18.5432 C.ar    1  UNL1        0.0384
     21 C           1.4229    2.0423   18.5061 C.ar    1  UNL1        0.1429
     22 C           0.8464    3.3993   18.2301 C.ar    1  UNL1        0.0887
     23 C           1.7575    4.5667   17.9912 C.ar    1  UNL1        0.0259
     24 C           5.0670    6.7121   17.5504 C.3     1  UNL1        0.1816
     25 S           4.1560    5.5447   17.7893 S.O2    1  UNL1        0.0105
     26 O           4.8057    4.8059   16.6570 O.2     1  UNL1       -0.1686
     27 O           3.5062    6.2834   18.9216 O.2     1  UNL1       -0.1686
     28 O           0.5119    0.8748   18.7450 O.3     1  UNL1       -0.4753
     29 C           0.5291    0.1686   20.0682 C.3     1  UNL1        0.2053
     30 C           1.7328   -0.6271   20.4781 C.3     1  UNL1        0.0438
     31 C           2.7715   -0.9771   21.5021 C.3     1  UNL1        0.0038
     32 C           2.7789   -1.6551   20.1641 C.3     1  UNL1        0.0038
@<TRIPOS>BOND
     1    24    25    1
     2    25    26    2
     3    25    27    2
     4    25    18    1
     5    18    19   ar
     6    19    20   ar
     7    20    21   ar
     8    21    28    1
     9    28    29    1
    10    29    30    1
    11    30    31    1
    12    31    32    1
    13    21    22   ar
    14    22     1    1
    15     1     2    2
    16     1     3   am
    17     3     4    1
    18     4     5    1
    19     5     6    1
    20     6     9    1
    21     9    10   ar
    22    10    11   ar
    23    11    12   ar
    24    12    16    1
    25    16    17    3
    26    12    13   ar
    27    13    14   ar
    28    14    15    1
    29     6     7    1
    30     7     8    1
    31    22    23   ar
    32    23    18   ar
    33    32    30    1
    34     8     3    1
    35    14     9   ar
@<TRIPOS>MOLECULE
*****
 32 35 0 0 0
SMALL
GASTEIGER

@<TRIPOS>ATOM
      1 C           3.4625    0.2544   19.1340 C.2     1  UNL1        0.2521
      2 O           2.0334    0.1497   18.6907 O.2     1  UNL1       -0.2698
      3 N           3.8643   -0.2375   20.4929 N.am    1  UNL1       -0.2725
      4 C           5.2935   -0.1328   20.9361 C.3     1  UNL1        0.1151
      5 C           5.6952   -0.6247   22.2951 C.3     1  UNL1        0.1124
      6 N           4.6677   -1.2212   23.2108 N.pl3   1  UNL1       -0.3023
      7 C           3.2385   -1.3259   22.7675 C.3     1  UNL1        0.1124
      8 C           2.8368   -0.8340   21.4086 C.3     1  UNL1        0.1151
      9 C           5.0694   -1.7130   24.5697 C.ar    1  UNL1        0.0758
     10 C           6.1836   -2.7077   24.7081 C.ar    1  UNL1        0.0175
     11 C           6.5854   -3.1996   26.0671 C.ar    1  UNL1        0.0117
     12 C           5.8729   -2.6967   27.2876 C.ar    1  UNL1        0.0708
     13 C           4.7587   -1.7020   27.1491 C.ar    1  UNL1        0.0412
     14 C           4.3570   -1.2102   25.7902 C.ar    1  UNL1        0.1540
     15 F           3.2428   -0.2155   25.6517 F       1  UNL1       -0.2028
     16 C           6.2746   -3.1886   28.6465 C.1     1  UNL1        0.1005
     17 N           6.6764   -3.6805   30.0054 N.1     1  UNL1       -0.1908
     18 C           5.8186    2.9155   17.3684 C.ar    1  UNL1        0.1061
     19 C           6.5448    2.0441   16.3869 C.ar    1  UNL1        0.0215
     20 C           6.2436    0.5761   16.3212 C.ar    1  UNL1        0.0384
     21 C           5.2162   -0.0205   17.2368 C.ar    1  UNL1        0.1429
     22 C           4.4900    0.8509   18.2183 C.ar    1  UNL1        0.0887
     23 C           4.7912    2.3189   18.2840 C.ar    1  UNL1        0.0259
     24 C           6.4211    5.8514   17.4999 C.3     1  UNL1        0.1816
     25 S           6.1198    4.3835   17.4341 S.O2    1  UNL1        0.0105
     26 O           6.9342    4.2726   16.1793 O.2     1  UNL1       -0.1686
     27 O           5.3055    4.4943   18.6889 O.2     1  UNL1       -0.1686
     28 O           4.9150   -1.4884   17.1711 O.3     1  UNL1       -0.4753
     29 C           5.6301   -2.4423   18.0814 C.3     1  UNL1        0.2053
     30 C           4.8457   -3.3702   18.9611 C.3     1  UNL1        0.0438
     31 C           3.7415   -4.3700   19.1370 C.3     1  UNL1        0.0038
     32 C           4.5915   -3.9774   20.3089 C.3     1  UNL1        0.0038
@<TRIPOS>BOND
     1    24    25    1
     2    25    26    2
     3    25    27    2
     4    25    18    1
     5    18    19   ar
     6    19    20   ar
     7    20    21   ar
     8    21    28    1
     9    28    29    1
    10    29    30    1
    11    30    31    1
    12    31    32    1
    13    21    22   ar
    14    22     1    1
    15     1     2    2
    16     1     3   am
    17     3     4    1
    18     4     5    1
    19     5     6    1
    20     6     9    1
    21     9    10   ar
    22    10    11   ar
    23    11    12   ar
    24    12    16    1
    25    16    17    3
    26    12    13   ar
    27    13    14   ar
    28    14    15    1
    29     6     7    1
    30     7     8    1
    31    22    23   ar
    32    23    18   ar
    33    32    30    1
    34     8     3    1
    35    14     9   ar
@<TRIPOS>MOLECULE
*****
 32 35 0 0 0
SMALL
GASTEIGER

@<TRIPOS>ATOM
      1 C         -16.2594    1.5135   19.1273 C.2     1  UNL1        0.2521
      2 O         -15.9206    2.7278   18.3145 O.2     1  UNL1       -0.2698
      3 N         -15.3627    0.3117   19.0898 N.am    1  UNL1       -0.2725
      4 C         -15.7015   -0.9026   19.9026 C.3     1  UNL1        0.1151
      5 C         -14.8047   -2.1044   19.8651 C.3     1  UNL1        0.1124
      6 N         -13.5692   -2.0920   19.0147 N.pl3   1  UNL1       -0.3023
      7 C         -13.2303   -0.8777   18.2019 C.3     1  UNL1        0.1124
      8 C         -14.1271    0.3241   18.2394 C.3     1  UNL1        0.1151
      9 C         -12.6724   -3.2938   18.9772 C.ar    1  UNL1        0.0758
     10 C         -11.1907   -3.1195   18.8218 C.ar    1  UNL1        0.0175
     11 C         -10.2940   -4.3214   18.7843 C.ar    1  UNL1        0.0117
     12 C         -10.8790   -5.6975   18.9022 C.ar    1  UNL1        0.0708
     13 C         -12.3607   -5.8719   19.0576 C.ar    1  UNL1        0.0412
     14 C         -13.2574   -4.6700   19.0951 C.ar    1  UNL1        0.1540
     15 F         -14.7391   -4.8444   19.2505 F       1  UNL1       -0.2028
     16 C          -9.9823   -6.8994   18.8646 C.1     1  UNL1        0.1005
     17 N          -9.0855   -8.1012   18.8271 N.1     1  UNL1       -0.1908
     18 C         -18.7665    2.2663   22.1103 C.ar    1  UNL1        0.1061
     19 C         -19.9662    1.4764   21.6785 C.ar    1  UNL1        0.0215
     20 C         -19.9304    0.6988   20.3963 C.ar    1  UNL1        0.0384
     21 C         -18.6948    0.7111   19.5459 C.ar    1  UNL1        0.1429
     22 C         -17.4951    1.5011   19.9777 C.ar    1  UNL1        0.0887
     23 C         -17.5309    2.2787   21.2599 C.ar    1  UNL1        0.0259
     24 C         -18.8381    3.8216   24.6747 C.3     1  UNL1        0.1816
     25 S         -18.8023    3.0440   23.3925 S.O2    1  UNL1        0.0105
     26 O         -18.9977    1.7699   24.1597 O.2     1  UNL1       -0.1686
     27 O         -18.6069    4.3180   22.6253 O.2     1  UNL1       -0.1686
     28 O         -18.6590   -0.0665   18.2637 O.3     1  UNL1       -0.4753
     29 C         -19.3024   -1.4193   18.1888 C.3     1  UNL1        0.2053
     30 C         -18.8696   -2.5086   19.1248 C.3     1  UNL1        0.0438
     31 C         -18.7599   -3.0582   20.5162 C.3     1  UNL1        0.0038
     32 C         -18.2296   -3.8455   19.3548 C.3     1  UNL1        0.0038
@<TRIPOS>BOND
     1    24    25    1
     2    25    26    2
     3    25    27    2
     4    25    18    1
     5    18    19   ar
     6    19    20   ar
     7    20    21   ar
     8    21    28    1
     9    28    29    1
    10    29    30    1
    11    30    31    1
    12    31    32    1
    13    21    22   ar
    14    22     1    1
    15     1     2    2
    16     1     3   am
    17     3     4    1
    18     4     5    1
    19     5     6    1
    20     6     9    1
    21     9    10   ar
    22    10    11   ar
    23    11    12   ar
    24    12    16    1
    25    16    17    3
    26    12    13   ar
    27    13    14   ar
    28    14    15    1
    29     6     7    1
    30     7     8    1
    31    22    23   ar
    32    23    18   ar
    33    32    30    1
    34     8     3    1
    35    14     9   ar
@<TRIPOS>MOLECULE
*****
 32 35 0 0 0
SMALL
GASTEIGER

@<TRIPOS>ATOM
      1 C           4.0814    3.7595   34.6316 C.2     1  UNL1        0.2521
      2 O           5.0769    4.8666   34.8141 O.2     1  UNL1       -0.2698
      3 N           3.2515    3.6953   33.3838 N.am    1  UNL1       -0.2725
      4 C           2.2560    2.5882   33.2013 C.3     1  UNL1        0.1151
      5 C           1.4260    2.5240   31.9534 C.3     1  UNL1        0.1124
      6 N           1.5914    3.5670   30.8882 N.pl3   1  UNL1       -0.3023
      7 C           2.5869    4.6742   31.0708 C.3     1  UNL1        0.1124
      8 C           3.4169    4.7383   32.3185 C.3     1  UNL1        0.1151
      9 C           0.7615    3.5029   29.6405 C.ar    1  UNL1        0.0758
     10 C           0.2713    4.7676   28.9999 C.ar    1  UNL1        0.0175
     11 C          -0.5587    4.7034   27.7520 C.ar    1  UNL1        0.0117
     12 C          -0.8986    3.3745   27.1449 C.ar    1  UNL1        0.0708
     13 C          -0.4084    2.1099   27.7855 C.ar    1  UNL1        0.0412
     14 C           0.4216    2.1740   29.0332 C.ar    1  UNL1        0.1540
     15 F           0.9117    0.9093   29.6738 F       1  UNL1       -0.2028
     16 C          -1.7285    3.3104   25.8971 C.1     1  UNL1        0.1005
     17 N          -2.5586    3.2462   24.6493 N.1     1  UNL1       -0.1908
     18 C           2.6805    1.8268   37.8021 C.ar    1  UNL1        0.1061
     19 C           3.5851    0.6305   37.8274 C.ar    1  UNL1        0.0215
     20 C           4.6551    0.4772   36.7875 C.ar    1  UNL1        0.0384
     21 C           4.8206    1.5202   35.7222 C.ar    1  UNL1        0.1429
     22 C           3.9160    2.7164   35.6969 C.ar    1  UNL1        0.0887
     23 C           2.8460    2.8697   36.7369 C.ar    1  UNL1        0.0259
     24 C           0.5405    2.1334   39.8821 C.3     1  UNL1        0.1816
     25 S           1.6105    1.9801   38.8421 S.O2    1  UNL1        0.0105
     26 O           1.0144    3.1139   38.0616 O.2     1  UNL1       -0.1686
     27 O           2.2066    0.8462   39.6225 O.2     1  UNL1       -0.1686
     28 O           5.8906    1.3669   34.6822 O.3     1  UNL1       -0.4753
     29 C           5.5633    0.7506   33.3545 C.3     1  UNL1        0.2053
     30 C           4.8734   -0.5801   33.2949 C.3     1  UNL1        0.0438
     31 C           4.1889   -1.6541   32.5025 C.3     1  UNL1        0.0038
     32 C           4.3632   -1.8107   33.9841 C.3     1  UNL1        0.0038
@<TRIPOS>BOND
     1    24    25    1
     2    25    26    2
     3    25    27    2
     4    25    18    1
     5    18    19   ar
     6    19    20   ar
     7    20    21   ar
     8    21    28    1
     9    28    29    1
    10    29    30    1
    11    30    31    1
    12    31    32    1
    13    21    22   ar
    14    22     1    1
    15     1     2    2
    16     1     3   am
    17     3     4    1
    18     4     5    1
    19     5     6    1
    20     6     9    1
    21     9    10   ar
    22    10    11   ar
    23    11    12   ar
    24    12    16    1
    25    16    17    3
    26    12    13   ar
    27    13    14   ar
    28    14    15    1
    29     6     7    1
    30     7     8    1
    31    22    23   ar
    32    23    18   ar
    33    32    30    1
    34     8     3    1
    35    14     9   ar
@<TRIPOS>MOLECULE
*****
 32 35 0 0 0
SMALL
GASTEIGER

@<TRIPOS>ATOM
      1 C           7.8506   -2.3166   28.5858 C.2     1  UNL1        0.2521
      2 O           9.3370   -2.1667   28.4504 O.2     1  UNL1       -0.2698
      3 N           6.9559   -1.9992   27.4245 N.am    1  UNL1       -0.2725
      4 C           5.4696   -2.1491   27.5599 C.3     1  UNL1        0.1151
      5 C           4.5749   -1.8316   26.3985 C.3     1  UNL1        0.1124
      6 N           5.1665   -1.3643   25.1018 N.pl3   1  UNL1       -0.3023
      7 C           6.6528   -1.2144   24.9664 C.3     1  UNL1        0.1124
      8 C           7.5475   -1.5318   26.1277 C.3     1  UNL1        0.1151
      9 C           4.2718   -1.0468   23.9405 C.ar    1  UNL1        0.0758
     10 C           3.3678    0.1489   23.9951 C.ar    1  UNL1        0.0175
     11 C           2.4730    0.4663   22.8337 C.ar    1  UNL1        0.0117
     12 C           2.4823   -0.4120   21.6178 C.ar    1  UNL1        0.0708
     13 C           3.3863   -1.6078   21.5632 C.ar    1  UNL1        0.0412
     14 C           4.2810   -1.9252   22.7245 C.ar    1  UNL1        0.1540
     15 F           5.1850   -3.1209   22.6700 F       1  UNL1       -0.2028
     16 C           1.5876   -0.0946   20.4565 C.1     1  UNL1        0.1005
     17 N           0.6928    0.2228   19.2952 N.1     1  UNL1       -0.1908
     18 C           5.8382   -2.3139   32.0064 C.ar    1  UNL1        0.1061
     19 C           6.0758   -3.7185   32.4762 C.ar    1  UNL1        0.0215
     20 C           6.9050   -4.6558   31.6491 C.ar    1  UNL1        0.0384
     21 C           7.4966   -4.1885   30.3524 C.ar    1  UNL1        0.1429
     22 C           7.2590   -2.7839   29.8826 C.ar    1  UNL1        0.0887
     23 C           6.4298   -1.8467   30.7097 C.ar    1  UNL1        0.0259
     24 C           4.1799   -0.4394   33.6604 C.3     1  UNL1        0.1816
     25 S           5.0091   -1.3766   32.8334 S.O2    1  UNL1        0.0105
     26 O           3.8782   -2.3619   32.8162 O.2     1  UNL1       -0.1686
     27 O           6.1400   -0.3914   32.8506 O.2     1  UNL1       -0.1686
     28 O           8.3258   -5.1258   29.5254 O.3     1  UNL1       -0.4753
     29 C           7.6753   -6.2777   28.8183 C.3     1  UNL1        0.2053
     30 C           7.3908   -6.1912   27.3481 C.3     1  UNL1        0.0438
     31 C           7.3884   -6.8199   25.9862 C.3     1  UNL1        0.0038
     32 C           6.9004   -5.4126   26.1635 C.3     1  UNL1        0.0038
@<TRIPOS>BOND
     1    24    25    1
     2    25    26    2
     3    25    27    2
     4    25    18    1
     5    18    19   ar
     6    19    20   ar
     7    20    21   ar
     8    21    28    1
     9    28    29    1
    10    29    30    1
    11    30    31    1
    12    31    32    1
    13    21    22   ar
    14    22     1    1
    15     1     2    2
    16     1     3   am
    17     3     4    1
    18     4     5    1
    19     5     6    1
    20     6     9    1
    21     9    10   ar
    22    10    11   ar
    23    11    12   ar
    24    12    16    1
    25    16    17    3
    26    12    13   ar
    27    13    14   ar
    28    14    15    1
    29     6     7    1
    30     7     8    1
    31    22    23   ar
    32    23    18   ar
    33    32    30    1
    34     8     3    1
    35    14     9   ar
