@<TRIPOS>MOLECULE
*****
 22 24 0 0 0
SMALL
GASTEIGER

@<TRIPOS>ATOM
      1 C          -5.3362  -16.6310   23.4411 C.2     1  UNL1        0.3481
      2 N          -6.6458  -17.0419   22.8360 N.2     1  UNL1       -0.0461
      3 C          -6.6961  -18.1765   21.8562 C.3     1  UNL1        0.3004
      4 C          -5.4367  -18.9001   21.4813 C.2     1  UNL1        0.0911
      5 C          -5.4870  -20.0347   20.5014 C.2     1  UNL1        0.0231
      6 C          -4.2276  -20.7583   20.1266 C.2     1  UNL1        0.0890
      7 N          -2.9181  -20.3473   20.7317 N.am    1  UNL1       -0.1710
      8 C          -2.8678  -19.2127   21.7116 C.2     1  UNL1        0.3121
      9 O          -1.5583  -18.8018   22.3167 O.2     1  UNL1       -0.2639
     10 C          -4.1271  -18.4892   22.0864 C.2     1  UNL1        0.2494
     11 N          -4.0769  -17.3545   23.0663 N.2     1  UNL1       -0.0343
     12 C          -5.4150  -15.7682   25.8905 C.3     1  UNL1        0.0136
     13 C          -5.2860  -15.4963   24.4210 C.3     1  UNL1        0.1234
     14 N          -8.0056  -18.5875   21.2511 N.3     1  UNL1       -0.2536
     15 H          -8.1369  -18.5317   20.2770 H       1  UNL1        0.1274
     16 C          -9.1152  -19.0834   22.1301 C.3     1  UNL1        0.0718
     17 C          -8.9593  -19.9629   23.3352 C.3     1  UNL1        0.0169
     18 C         -10.3233  -20.2100   23.9084 C.3     1  UNL1        0.0025
     19 C         -11.3222  -19.4831   23.0575 C.3     1  UNL1        0.0165
     20 C         -10.5756  -18.7869   21.9585 C.3     1  UNL1        0.1058
     21 C         -11.1827  -17.9424   20.8777 C.1     1  UNL1        0.0734
     22 N         -11.7898  -17.0979   19.7969 N.1     1  UNL1       -0.1958
@<TRIPOS>BOND
     1    12    13    1
     2    13     1    1
     3     1     2    2
     4     2     3    1
     5     3    14    1
     6    16    14    1
     7    16    17    1
     8    17    18    1
     9    18    19    1
    10    19    20    1
    11    20    21    1
    12    21    22    3
    13     3     4    1
    14     4     5    2
    15     5     6    1
    16     6     7    2
    17     7     8    1
    18     8     9    2
    19     8    10    1
    20    10    11    2
    21    11     1    1
    22    20    16    1
    23    10     4    1
    24    14    15    1
@<TRIPOS>MOLECULE
*****
 22 24 0 0 0
SMALL
GASTEIGER

@<TRIPOS>ATOM
      1 C          -7.1328  -18.6240   21.6885 C.2     1  UNL1        0.3481
      2 N          -7.1771  -17.4375   22.6052 N.2     1  UNL1       -0.0461
      3 C          -8.3982  -16.5674   22.6473 C.3     1  UNL1        0.3004
      4 C          -9.5751  -16.8838   21.7727 C.2     1  UNL1        0.0911
      5 C         -10.7962  -16.0137   21.8148 C.2     1  UNL1        0.0231
      6 C         -11.9731  -16.3301   20.9403 C.2     1  UNL1        0.0890
      7 N         -11.9288  -17.5166   20.0236 N.am    1  UNL1       -0.1710
      8 C         -10.7077  -18.3867   19.9815 C.2     1  UNL1        0.3121
      9 O         -10.6634  -19.5732   19.0648 O.2     1  UNL1       -0.2639
     10 C          -9.5308  -18.0703   20.8560 C.2     1  UNL1        0.2494
     11 N          -8.3096  -18.9404   20.8140 N.2     1  UNL1       -0.0343
     12 C          -4.6711  -19.0816   22.3820 C.3     1  UNL1        0.0136
     13 C          -5.9116  -19.4940   21.6464 C.3     1  UNL1        0.1234
     14 N          -8.4425  -15.3809   23.5640 N.3     1  UNL1       -0.2536
     15 H          -8.9515  -14.5785   23.3064 H       1  UNL1        0.1274
     16 C          -7.7112  -15.4169   24.8731 C.3     1  UNL1        0.0718
     17 C          -8.3362  -15.5683   26.2283 C.3     1  UNL1        0.0169
     18 C          -7.2378  -15.5527   27.2497 C.3     1  UNL1        0.0025
     19 C          -5.9339  -15.3917   26.5257 C.3     1  UNL1        0.0165
     20 C          -6.2265  -15.3078   25.0569 C.3     1  UNL1        0.1058
     21 C          -5.2124  -15.1435   23.9639 C.1     1  UNL1        0.0734
     22 N          -4.1984  -14.9793   22.8709 N.1     1  UNL1       -0.1958
@<TRIPOS>BOND
     1    12    13    1
     2    13     1    1
     3     1     2    2
     4     2     3    1
     5     3    14    1
     6    16    14    1
     7    16    17    1
     8    17    18    1
     9    18    19    1
    10    19    20    1
    11    20    21    1
    12    21    22    3
    13     3     4    1
    14     4     5    2
    15     5     6    1
    16     6     7    2
    17     7     8    1
    18     8     9    2
    19     8    10    1
    20    10    11    2
    21    11     1    1
    22    20    16    1
    23    10     4    1
    24    14    15    1
@<TRIPOS>MOLECULE
*****
 22 24 0 0 0
SMALL
GASTEIGER

@<TRIPOS>ATOM
      1 C          -6.3997  -19.0438   21.8476 C.2     1  UNL1        0.3481
      2 N          -7.7129  -19.6381   22.2627 N.2     1  UNL1       -0.0461
      3 C          -8.6271  -18.8744   23.1743 C.3     1  UNL1        0.3004
      4 C          -8.2280  -17.5164   23.6710 C.2     1  UNL1        0.0911
      5 C          -9.1421  -16.7528   24.5826 C.2     1  UNL1        0.0231
      6 C          -8.7431  -15.3948   25.0792 C.2     1  UNL1        0.0890
      7 N          -7.4299  -14.8005   24.6641 N.am    1  UNL1       -0.1710
      8 C          -6.5157  -15.5641   23.7525 C.2     1  UNL1        0.3121
      9 O          -5.2025  -14.9698   23.3374 O.2     1  UNL1       -0.2639
     10 C          -6.9148  -16.9221   23.2559 C.2     1  UNL1        0.2494
     11 N          -6.0007  -17.6858   22.3442 N.2     1  UNL1       -0.0343
     12 C          -5.9465  -21.0941   20.3176 C.3     1  UNL1        0.0136
     13 C          -5.4856  -19.8075   20.9359 C.3     1  UNL1        0.1234
     14 N          -9.9403  -19.4687   23.5894 N.3     1  UNL1       -0.2536
     15 H          -9.9597  -20.2994   24.1175 H       1  UNL1        0.1274
     16 C         -11.2239  -18.7975   23.1999 C.3     1  UNL1        0.0718
     17 C         -12.3564  -18.4573   24.1229 C.3     1  UNL1        0.0169
     18 C         -13.4328  -17.7981   23.3125 C.3     1  UNL1        0.0025
     19 C         -12.9655  -17.7308   21.8887 C.3     1  UNL1        0.0165
     20 C         -11.6003  -18.3484   21.8191 C.3     1  UNL1        0.1058
     21 C         -10.7594  -18.4919   20.5854 C.1     1  UNL1        0.0734
     22 N          -9.9184  -18.6353   19.3516 N.1     1  UNL1       -0.1958
@<TRIPOS>BOND
     1    12    13    1
     2    13     1    1
     3     1     2    2
     4     2     3    1
     5     3    14    1
     6    16    14    1
     7    16    17    1
     8    17    18    1
     9    18    19    1
    10    19    20    1
    11    20    21    1
    12    21    22    3
    13     3     4    1
    14     4     5    2
    15     5     6    1
    16     6     7    2
    17     7     8    1
    18     8     9    2
    19     8    10    1
    20    10    11    2
    21    11     1    1
    22    20    16    1
    23    10     4    1
    24    14    15    1
@<TRIPOS>MOLECULE
*****
 22 24 0 0 0
SMALL
GASTEIGER

@<TRIPOS>ATOM
      1 C          -6.7545  -16.3757   23.5638 C.2     1  UNL1        0.3481
      2 N          -8.0782  -16.8173   23.0134 N.2     1  UNL1       -0.0461
      3 C          -8.1504  -17.9965   22.0892 C.3     1  UNL1        0.3004
      4 C          -6.8990  -18.7343   21.7155 C.2     1  UNL1        0.0911
      5 C          -6.9712  -19.9136   20.7913 C.2     1  UNL1        0.0231
      6 C          -5.7198  -20.6513   20.4176 C.2     1  UNL1        0.0890
      7 N          -4.3961  -20.2097   20.9681 N.am    1  UNL1       -0.1710
      8 C          -4.3239  -19.0305   21.8922 C.2     1  UNL1        0.3121
      9 O          -3.0003  -18.5889   22.4427 O.2     1  UNL1       -0.2639
     10 C          -5.5753  -18.2928   22.2659 C.2     1  UNL1        0.2494
     11 N          -5.5031  -17.1135   23.1901 N.2     1  UNL1       -0.0343
     12 C          -5.8208  -15.2563   25.7144 C.3     1  UNL1        0.0136
     13 C          -6.6824  -15.1964   24.4880 C.3     1  UNL1        0.1234
     14 N          -9.4741  -18.4381   21.5388 N.3     1  UNL1       -0.2536
     15 H          -9.5255  -18.8349   20.6393 H       1  UNL1        0.1274
     16 C         -10.7194  -18.2751   22.3588 C.3     1  UNL1        0.0718
     17 C         -10.9782  -18.8924   23.7012 C.3     1  UNL1        0.0169
     18 C         -12.3434  -18.4650   24.1526 C.3     1  UNL1        0.0025
     19 C         -12.9282  -17.5835   23.0891 C.3     1  UNL1        0.0165
     20 C         -11.9246  -17.4661   21.9805 C.3     1  UNL1        0.1058
     21 C         -12.0960  -16.6781   20.7158 C.1     1  UNL1        0.0734
     22 N         -12.2675  -15.8902   19.4510 N.1     1  UNL1       -0.1958
@<TRIPOS>BOND
     1    12    13    1
     2    13     1    1
     3     1     2    2
     4     2     3    1
     5     3    14    1
     6    16    14    1
     7    16    17    1
     8    17    18    1
     9    18    19    1
    10    19    20    1
    11    20    21    1
    12    21    22    3
    13     3     4    1
    14     4     5    2
    15     5     6    1
    16     6     7    2
    17     7     8    1
    18     8     9    2
    19     8    10    1
    20    10    11    2
    21    11     1    1
    22    20    16    1
    23    10     4    1
    24    14    15    1
@<TRIPOS>MOLECULE
*****
 22 24 0 0 0
SMALL
GASTEIGER

@<TRIPOS>ATOM
      1 C          -7.0458  -18.6154   21.2110 C.2     1  UNL1        0.3481
      2 N          -8.3183  -17.8603   21.4569 N.2     1  UNL1       -0.0461
      3 C          -8.3733  -16.8119   22.5282 C.3     1  UNL1        0.3004
      4 C          -7.1556  -16.5185   23.3536 C.2     1  UNL1        0.0911
      5 C          -7.2105  -15.4701   24.4249 C.2     1  UNL1        0.0231
      6 C          -5.9929  -15.1767   25.2503 C.2     1  UNL1        0.0890
      7 N          -4.7203  -15.9318   25.0044 N.am    1  UNL1       -0.1710
      8 C          -4.6654  -16.9802   23.9331 C.2     1  UNL1        0.3121
      9 O          -3.3929  -17.7353   23.6872 O.2     1  UNL1       -0.2639
     10 C          -5.8830  -17.2736   23.1077 C.2     1  UNL1        0.2494
     11 N          -5.8282  -18.3220   22.0363 N.2     1  UNL1       -0.0343
     12 C          -6.0477  -20.8227   20.2719 C.3     1  UNL1        0.0136
     13 C          -6.9909  -19.6639   20.1396 C.3     1  UNL1        0.1234
     14 N          -9.6458  -16.0568   22.7741 N.3     1  UNL1       -0.2536
     15 H          -9.6121  -15.1272   23.0966 H       1  UNL1        0.1274
     16 C         -10.9696  -16.7180   22.5288 C.3     1  UNL1        0.0718
     17 C         -11.7218  -17.5741   23.5042 C.3     1  UNL1        0.0169
     18 C         -12.9908  -18.0245   22.8432 C.3     1  UNL1        0.0025
     19 C         -13.0228  -17.4467   21.4593 C.3     1  UNL1        0.0165
     20 C         -11.7737  -16.6393   21.2650 C.3     1  UNL1        0.1058
     21 C         -11.3952  -15.8855   20.0246 C.1     1  UNL1        0.0734
     22 N         -11.0166  -15.1318   18.7843 N.1     1  UNL1       -0.1958
@<TRIPOS>BOND
     1    12    13    1
     2    13     1    1
     3     1     2    2
     4     2     3    1
     5     3    14    1
     6    16    14    1
     7    16    17    1
     8    17    18    1
     9    18    19    1
    10    19    20    1
    11    20    21    1
    12    21    22    3
    13     3     4    1
    14     4     5    2
    15     5     6    1
    16     6     7    2
    17     7     8    1
    18     8     9    2
    19     8    10    1
    20    10    11    2
    21    11     1    1
    22    20    16    1
    23    10     4    1
    24    14    15    1
@<TRIPOS>MOLECULE
*****
 22 24 0 0 0
SMALL
GASTEIGER

@<TRIPOS>ATOM
      1 C          -6.2316  -16.8722   23.2327 C.2     1  UNL1        0.3481
      2 N          -7.3530  -17.5468   22.4997 N.2     1  UNL1       -0.0461
      3 C          -7.0623  -18.6872   21.5697 C.3     1  UNL1        0.3004
      4 C          -5.6501  -19.1530   21.3726 C.2     1  UNL1        0.0911
      5 C          -5.3594  -20.2933   20.4426 C.2     1  UNL1        0.0231
      6 C          -3.9472  -20.7591   20.2455 C.2     1  UNL1        0.0890
      7 N          -2.8258  -20.0844   20.9785 N.am    1  UNL1       -0.1710
      8 C          -3.1165  -18.9441   21.9085 C.2     1  UNL1        0.3121
      9 O          -1.9951  -18.2695   22.6415 O.2     1  UNL1       -0.2639
     10 C          -4.5286  -18.4783   22.1056 C.2     1  UNL1        0.2494
     11 N          -4.8194  -17.3379   23.0356 N.2     1  UNL1       -0.0343
     12 C          -5.6239  -15.4729   25.3358 C.3     1  UNL1        0.0136
     13 C          -6.5223  -15.7318   24.1628 C.3     1  UNL1        0.1234
     14 N          -8.1837  -19.3618   20.8367 N.3     1  UNL1       -0.2536
     15 H          -7.9903  -20.0924   20.2058 H       1  UNL1        0.1274
     16 C          -9.5999  -18.9233   21.0650 C.3     1  UNL1        0.0718
     17 C         -10.4371  -18.1174   20.1164 C.3     1  UNL1        0.0169
     18 C         -11.7822  -17.9097   20.7471 C.3     1  UNL1        0.0025
     19 C         -11.7762  -18.5872   22.0854 C.3     1  UNL1        0.0165
     20 C         -10.4275  -19.2136   22.2818 C.3     1  UNL1        0.1058
     21 C          -9.9842  -19.9934   23.4841 C.1     1  UNL1        0.0734
     22 N          -9.5410  -20.7732   24.6863 N.1     1  UNL1       -0.1958
@<TRIPOS>BOND
     1    12    13    1
     2    13     1    1
     3     1     2    2
     4     2     3    1
     5     3    14    1
     6    16    14    1
     7    16    17    1
     8    17    18    1
     9    18    19    1
    10    19    20    1
    11    20    21    1
    12    21    22    3
    13     3     4    1
    14     4     5    2
    15     5     6    1
    16     6     7    2
    17     7     8    1
    18     8     9    2
    19     8    10    1
    20    10    11    2
    21    11     1    1
    22    20    16    1
    23    10     4    1
    24    14    15    1
@<TRIPOS>MOLECULE
*****
 22 24 0 0 0
SMALL
GASTEIGER

@<TRIPOS>ATOM
      1 C          -7.0037  -18.7058   21.0822 C.2     1  UNL1        0.3481
      2 N          -8.2799  -17.9210   21.1565 N.2     1  UNL1       -0.0461
      3 C          -8.4242  -16.8174   22.1621 C.3     1  UNL1        0.3004
      4 C          -7.2923  -16.4985   23.0934 C.2     1  UNL1        0.0911
      5 C          -7.4367  -15.3949   24.0989 C.2     1  UNL1        0.0231
      6 C          -6.3048  -15.0761   25.0302 C.2     1  UNL1        0.0890
      7 N          -5.0287  -15.8608   24.9559 N.am    1  UNL1       -0.1710
      8 C          -4.8843  -16.9645   23.9503 C.2     1  UNL1        0.3121
      9 O          -3.6082  -17.7492   23.8760 O.2     1  UNL1       -0.2639
     10 C          -6.0162  -17.2833   23.0191 C.2     1  UNL1        0.2494
     11 N          -5.8719  -18.3869   22.0135 N.2     1  UNL1       -0.0343
     12 C          -5.9185  -20.9471   20.3415 C.3     1  UNL1        0.0136
     13 C          -6.8594  -19.8094   20.0766 C.3     1  UNL1        0.1234
     14 N          -9.7004  -16.0326   22.2364 N.3     1  UNL1       -0.2536
     15 H          -9.6757  -15.0488   22.2066 H       1  UNL1        0.1274
     16 C         -11.0141  -16.7466   22.3561 C.3     1  UNL1        0.0718
     17 C         -12.1903  -16.5885   21.4388 C.3     1  UNL1        0.0169
     18 C         -13.2854  -17.4883   21.9298 C.3     1  UNL1        0.0025
     19 C         -12.7859  -18.2025   23.1507 C.3     1  UNL1        0.0165
     20 C         -11.3821  -17.7442   23.4141 C.3     1  UNL1        0.1058
     21 C         -10.5012  -18.2028   24.5381 C.1     1  UNL1        0.0734
     22 N          -9.6203  -18.6615   25.6622 N.1     1  UNL1       -0.1958
@<TRIPOS>BOND
     1    12    13    1
     2    13     1    1
     3     1     2    2
     4     2     3    1
     5     3    14    1
     6    16    14    1
     7    16    17    1
     8    17    18    1
     9    18    19    1
    10    19    20    1
    11    20    21    1
    12    21    22    3
    13     3     4    1
    14     4     5    2
    15     5     6    1
    16     6     7    2
    17     7     8    1
    18     8     9    2
    19     8    10    1
    20    10    11    2
    21    11     1    1
    22    20    16    1
    23    10     4    1
    24    14    15    1
@<TRIPOS>MOLECULE
*****
 22 24 0 0 0
SMALL
GASTEIGER

@<TRIPOS>ATOM
      1 C          -6.2001  -16.3803   23.7769 C.2     1  UNL1        0.3481
      2 N          -7.5700  -16.9560   23.5720 N.2     1  UNL1       -0.0461
      3 C          -7.7506  -18.1771   22.7198 C.3     1  UNL1        0.3004
      4 C          -6.5613  -18.8226   22.0725 C.2     1  UNL1        0.0911
      5 C          -6.7419  -20.0437   21.2203 C.2     1  UNL1        0.0231
      6 C          -5.5526  -20.6891   20.5730 C.2     1  UNL1        0.0890
      7 N          -4.1827  -20.1134   20.7779 N.am    1  UNL1       -0.1710
      8 C          -4.0021  -18.8923   21.6301 C.2     1  UNL1        0.3121
      9 O          -2.6322  -18.3166   21.8350 O.2     1  UNL1       -0.2639
     10 C          -5.1914  -18.2469   22.2774 C.2     1  UNL1        0.2494
     11 N          -5.0108  -17.0257   23.1296 N.2     1  UNL1       -0.0343
     12 C          -5.3924  -15.2780   25.9865 C.3     1  UNL1        0.0136
     13 C          -6.0196  -15.1592   24.6291 C.3     1  UNL1        0.1234
     14 N          -9.1205  -18.7528   22.5149 N.3     1  UNL1       -0.2536
     15 H          -9.3603  -19.6125   22.9304 H       1  UNL1        0.1274
     16 C         -10.1249  -18.0187   21.6769 C.3     1  UNL1        0.0718
     17 C         -10.9842  -16.8758   22.1299 C.3     1  UNL1        0.0169
     18 C         -11.8368  -16.4493   20.9718 C.3     1  UNL1        0.0025
     19 C         -11.5043  -17.3288   19.8029 C.3     1  UNL1        0.0165
     20 C         -10.4463  -18.2987   20.2387 C.3     1  UNL1        0.1058
     21 C          -9.8197  -19.3618   19.3861 C.1     1  UNL1        0.0734
     22 N          -9.1932  -20.4250   18.5334 N.1     1  UNL1       -0.1958
@<TRIPOS>BOND
     1    12    13    1
     2    13     1    1
     3     1     2    2
     4     2     3    1
     5     3    14    1
     6    16    14    1
     7    16    17    1
     8    17    18    1
     9    18    19    1
    10    19    20    1
    11    20    21    1
    12    21    22    3
    13     3     4    1
    14     4     5    2
    15     5     6    1
    16     6     7    2
    17     7     8    1
    18     8     9    2
    19     8    10    1
    20    10    11    2
    21    11     1    1
    22    20    16    1
    23    10     4    1
    24    14    15    1
@<TRIPOS>MOLECULE
*****
 22 24 0 0 0
SMALL
GASTEIGER

@<TRIPOS>ATOM
      1 C         -11.7679  -17.1634   22.8280 C.2     1  UNL1        0.3481
      2 N         -10.8177  -16.1377   23.3712 N.2     1  UNL1       -0.0461
      3 C          -9.3550  -16.2265   23.0512 C.3     1  UNL1        0.3004
      4 C          -8.8423  -17.3409   22.1879 C.2     1  UNL1        0.0911
      5 C          -7.3796  -17.4297   21.8679 C.2     1  UNL1        0.0231
      6 C          -6.8670  -18.5441   21.0047 C.2     1  UNL1        0.0890
      7 N          -7.8172  -19.5698   20.4614 N.am    1  UNL1       -0.1710
      8 C          -9.2799  -19.4810   20.7814 C.2     1  UNL1        0.3121
      9 O         -10.2301  -20.5067   20.2381 O.2     1  UNL1       -0.2639
     10 C          -9.7925  -18.3666   21.6446 C.2     1  UNL1        0.2494
     11 N         -11.2553  -18.2778   21.9647 N.2     1  UNL1       -0.0343
     12 C         -13.8523  -18.0580   24.0949 C.3     1  UNL1        0.0136
     13 C         -13.2307  -17.0746   23.1480 C.3     1  UNL1        0.1234
     14 N          -8.4048  -15.2008   23.5945 N.3     1  UNL1       -0.2536
     15 H          -8.2201  -14.3807   23.0822 H       1  UNL1        0.1274
     16 C          -7.7360  -15.4247   24.9184 C.3     1  UNL1        0.0718
     17 C          -8.4203  -15.4928   26.2515 C.3     1  UNL1        0.0169
     18 C          -7.3728  -15.7300   27.2986 C.3     1  UNL1        0.0025
     19 C          -6.0411  -15.8085   26.6126 C.3     1  UNL1        0.0165
     20 C          -6.2657  -15.6198   25.1415 C.3     1  UNL1        0.1058
     21 C          -5.2058  -15.6253   24.0801 C.1     1  UNL1        0.0734
     22 N          -4.1460  -15.6307   23.0186 N.1     1  UNL1       -0.1958
@<TRIPOS>BOND
     1    12    13    1
     2    13     1    1
     3     1     2    2
     4     2     3    1
     5     3    14    1
     6    16    14    1
     7    16    17    1
     8    17    18    1
     9    18    19    1
    10    19    20    1
    11    20    21    1
    12    21    22    3
    13     3     4    1
    14     4     5    2
    15     5     6    1
    16     6     7    2
    17     7     8    1
    18     8     9    2
    19     8    10    1
    20    10    11    2
    21    11     1    1
    22    20    16    1
    23    10     4    1
    24    14    15    1
