@<TRIPOS>MOLECULE
*****
 15 16 0 0 0
SMALL
GASTEIGER

@<TRIPOS>ATOM
      1 C          -7.4656  -19.0762   20.9951 C.2     1  UNL1        0.1898
      2 N          -6.5848  -18.8297   19.8063 N.2     1  UNL1       -0.2199
      3 C          -5.1579  -18.9391   20.2558 C.2     1  UNL1        0.1003
      4 C          -3.8595  -18.7932   19.5190 C.2     1  UNL1        0.0569
      5 C          -2.5600  -18.9615   20.2490 C.2     1  UNL1        0.1364
      6 C          -2.5589  -19.2757   21.7158 C.2     1  UNL1        0.0172
      7 C          -3.8573  -19.4215   22.4525 C.3     1  UNL1        0.0765
      8 C          -5.1568  -19.2532   21.7225 C.2     1  UNL1        0.0833
      9 N          -6.5830  -19.3379   22.1794 N.2     1  UNL1       -0.2238
     10 O          -1.2615  -18.8157   19.5123 O.2     1  UNL1       -0.4717
     11 C          -0.2595  -17.7907   19.9542 C.3     1  UNL1        0.2525
     12 S          -8.9655  -19.0632   20.9990 S.3     1  UNL1       -0.0757
     13 C          -9.7103  -18.8471   22.2830 C.3     1  UNL1        0.0652
     14 C          -9.5259  -20.5615   24.2264 C.3     1  UNL1        0.0009
     15 C         -10.2622  -20.0208   23.0366 C.3     1  UNL1        0.0121
@<TRIPOS>BOND
     1    14    15    1
     2    15    13    1
     3    13    12    1
     4    12     1    1
     5     1     2    2
     6     2     3    1
     7     3     4    2
     8     4     5    1
     9     5    10    1
    10    10    11    1
    11     5     6    2
    12     6     7    1
    13     7     8    1
    14     8     9    2
    15     9     1    1
    16     8     3    1
@<TRIPOS>MOLECULE
*****
 15 16 0 0 0
SMALL
GASTEIGER

@<TRIPOS>ATOM
      1 C          -7.7847  -19.0319   21.7093 C.2     1  UNL1        0.1898
      2 N          -8.6512  -19.2042   22.9215 N.2     1  UNL1       -0.2199
      3 C         -10.0238  -18.7011   22.5854 C.2     1  UNL1        0.1003
      4 C         -11.2879  -18.6206   23.3889 C.2     1  UNL1        0.0569
      5 C         -12.5337  -18.0569   22.7725 C.2     1  UNL1        0.1364
      6 C         -12.5155  -17.5736   21.3526 C.2     1  UNL1        0.0172
      7 C         -11.2514  -17.6542   20.5491 C.3     1  UNL1        0.0765
      8 C         -10.0056  -18.2179   21.1655 C.2     1  UNL1        0.0833
      9 N          -8.6218  -18.4223   20.6241 N.2     1  UNL1       -0.2238
     10 O         -13.7978  -17.9763   23.5760 O.2     1  UNL1       -0.4717
     11 C         -13.8090  -18.4342   25.0044 C.3     1  UNL1        0.2525
     12 S          -6.3356  -19.4039   21.6013 S.3     1  UNL1       -0.0757
     13 C          -5.9123  -20.5131   20.6845 C.3     1  UNL1        0.0652
     14 C          -3.8844  -19.2350   19.6823 C.3     1  UNL1        0.0009
     15 C          -4.5279  -20.5217   20.1070 C.3     1  UNL1        0.0121
@<TRIPOS>BOND
     1    14    15    1
     2    15    13    1
     3    13    12    1
     4    12     1    1
     5     1     2    2
     6     2     3    1
     7     3     4    2
     8     4     5    1
     9     5    10    1
    10    10    11    1
    11     5     6    2
    12     6     7    1
    13     7     8    1
    14     8     9    2
    15     9     1    1
    16     8     3    1
@<TRIPOS>MOLECULE
*****
 15 16 0 0 0
SMALL
GASTEIGER

@<TRIPOS>ATOM
      1 C         -10.0531  -17.9421   20.6497 C.2     1  UNL1        0.1898
      2 N          -9.1293  -17.4987   21.7452 N.2     1  UNL1       -0.2199
      3 C          -7.8660  -18.3005   21.6390 C.2     1  UNL1        0.1003
      4 C          -6.6039  -18.2970   22.4496 C.2     1  UNL1        0.0569
      5 C          -5.4849  -19.2323   22.0991 C.2     1  UNL1        0.1364
      6 C          -5.6280  -20.1712   20.9381 C.2     1  UNL1        0.0172
      7 C          -6.8900  -20.1747   20.1275 C.3     1  UNL1        0.0765
      8 C          -8.0091  -19.2394   20.4780 C.2     1  UNL1        0.0833
      9 N          -9.3608  -19.0178   19.8666 N.2     1  UNL1       -0.2238
     10 O          -4.2227  -19.2288   22.9097 O.2     1  UNL1       -0.4717
     11 C          -3.5624  -17.9294   23.2638 C.3     1  UNL1        0.2525
     12 S         -11.4279  -17.4041   20.3841 S.3     1  UNL1       -0.0757
     13 C         -12.5631  -17.7634   21.2963 C.3     1  UNL1        0.0652
     14 C         -13.5603  -17.8957   23.6918 C.3     1  UNL1        0.0009
     15 C         -12.4944  -17.4130   22.7532 C.3     1  UNL1        0.0121
@<TRIPOS>BOND
     1    14    15    1
     2    15    13    1
     3    13    12    1
     4    12     1    1
     5     1     2    2
     6     2     3    1
     7     3     4    2
     8     4     5    1
     9     5    10    1
    10    10    11    1
    11     5     6    2
    12     6     7    1
    13     7     8    1
    14     8     9    2
    15     9     1    1
    16     8     3    1
@<TRIPOS>MOLECULE
*****
 15 16 0 0 0
SMALL
GASTEIGER

@<TRIPOS>ATOM
      1 C          -6.2686  -19.2447   21.1323 C.2     1  UNL1        0.1898
      2 N          -7.2164  -18.1060   20.8977 N.2     1  UNL1       -0.2199
      3 C          -8.4305  -18.3304   21.7496 C.2     1  UNL1        0.1003
      4 C          -9.6902  -17.5366   21.9307 C.2     1  UNL1        0.0569
      5 C         -10.7525  -18.0202   22.8728 C.2     1  UNL1        0.1364
      6 C         -10.5550  -19.2976   23.6339 C.2     1  UNL1        0.0172
      7 C          -9.2953  -20.0914   23.4528 C.3     1  UNL1        0.0765
      8 C          -8.2330  -19.6078   22.5107 C.2     1  UNL1        0.0833
      9 N          -6.8969  -20.1728   22.1291 N.2     1  UNL1       -0.2238
     10 O         -12.0124  -17.2264   23.0539 O.2     1  UNL1       -0.4717
     11 C         -13.2743  -17.9111   23.4883 C.3     1  UNL1        0.2525
     12 S          -4.9279  -19.4238   20.4838 S.3     1  UNL1       -0.0757
     13 C          -3.6832  -19.4180   21.3208 C.3     1  UNL1        0.0652
     14 C          -2.9514  -17.3237   22.6730 C.3     1  UNL1        0.0009
     15 C          -3.6490  -18.6501   22.6089 C.3     1  UNL1        0.0121
@<TRIPOS>BOND
     1    14    15    1
     2    15    13    1
     3    13    12    1
     4    12     1    1
     5     1     2    2
     6     2     3    1
     7     3     4    2
     8     4     5    1
     9     5    10    1
    10    10    11    1
    11     5     6    2
    12     6     7    1
    13     7     8    1
    14     8     9    2
    15     9     1    1
    16     8     3    1
@<TRIPOS>MOLECULE
*****
 15 16 0 0 0
SMALL
GASTEIGER

@<TRIPOS>ATOM
      1 C          -7.6385  -18.3867   22.3581 C.2     1  UNL1        0.1898
      2 N          -6.2691  -17.8592   22.6689 N.2     1  UNL1       -0.2199
      3 C          -5.2734  -18.6672   21.8905 C.2     1  UNL1        0.1003
      4 C          -3.7777  -18.6005   21.8005 C.2     1  UNL1        0.0569
      5 C          -3.0359  -19.5607   20.9187 C.2     1  UNL1        0.1364
      6 C          -3.7899  -20.5876   20.1268 C.2     1  UNL1        0.0172
      7 C          -5.2856  -20.6542   20.2168 C.3     1  UNL1        0.0765
      8 C          -6.0274  -19.6940   21.0987 C.2     1  UNL1        0.0833
      9 N          -7.4891  -19.5207   21.3876 N.2     1  UNL1       -0.2238
     10 O          -1.5400  -19.4941   20.8287 O.2     1  UNL1       -0.4717
     11 C          -0.8854  -18.4336   19.9939 C.3     1  UNL1        0.2525
     12 S          -8.9304  -17.8708   22.9192 S.3     1  UNL1       -0.0757
     13 C         -10.1081  -17.6563   22.0154 C.3     1  UNL1        0.0652
     14 C         -11.0112  -20.0150   21.4060 C.3     1  UNL1        0.0009
     15 C         -11.2292  -18.6528   21.9950 C.3     1  UNL1        0.0121
@<TRIPOS>BOND
     1    14    15    1
     2    15    13    1
     3    13    12    1
     4    12     1    1
     5     1     2    2
     6     2     3    1
     7     3     4    2
     8     4     5    1
     9     5    10    1
    10    10    11    1
    11     5     6    2
    12     6     7    1
    13     7     8    1
    14     8     9    2
    15     9     1    1
    16     8     3    1
@<TRIPOS>MOLECULE
*****
 15 16 0 0 0
SMALL
GASTEIGER

@<TRIPOS>ATOM
      1 C          -8.8611  -16.5289   25.8516 C.2     1  UNL1        0.1898
      2 N          -9.1454  -15.7656   24.5920 N.2     1  UNL1       -0.2199
      3 C          -9.9298  -16.6578   23.6762 C.2     1  UNL1        0.1003
      4 C         -10.4873  -16.4429   22.3004 C.2     1  UNL1        0.0569
      5 C         -11.2454  -17.5428   21.6182 C.2     1  UNL1        0.1364
      6 C         -11.4459  -18.8576   22.3118 C.2     1  UNL1        0.0172
      7 C         -10.8883  -19.0725   23.6876 C.3     1  UNL1        0.0765
      8 C         -10.1303  -17.9726   24.3698 C.2     1  UNL1        0.0833
      9 N          -9.4698  -17.8929   25.7142 N.2     1  UNL1       -0.2238
     10 O         -11.8030  -17.3279   20.2423 O.2     1  UNL1       -0.4717
     11 C         -11.7532  -15.9652   19.6173 C.3     1  UNL1        0.2525
     12 S          -8.1015  -16.0179   27.0398 S.3     1  UNL1       -0.0757
     13 C          -6.6016  -16.0112   27.0248 C.3     1  UNL1        0.0652
     14 C          -5.3729  -15.6096   24.7711 C.3     1  UNL1        0.0009
     15 C          -5.8650  -15.0963   26.0919 C.3     1  UNL1        0.0121
@<TRIPOS>BOND
     1    14    15    1
     2    15    13    1
     3    13    12    1
     4    12     1    1
     5     1     2    2
     6     2     3    1
     7     3     4    2
     8     4     5    1
     9     5    10    1
    10    10    11    1
    11     5     6    2
    12     6     7    1
    13     7     8    1
    14     8     9    2
    15     9     1    1
    16     8     3    1
@<TRIPOS>MOLECULE
*****
 15 16 0 0 0
SMALL
GASTEIGER

@<TRIPOS>ATOM
      1 C          -7.8277  -18.3940   22.2734 C.2     1  UNL1        0.1898
      2 N          -6.4635  -17.8616   22.5977 N.2     1  UNL1       -0.2199
      3 C          -5.4545  -18.6929   21.8623 C.2     1  UNL1        0.1003
      4 C          -3.9570  -18.6324   21.8012 C.2     1  UNL1        0.0569
      5 C          -3.2002  -19.6181   20.9612 C.2     1  UNL1        0.1364
      6 C          -3.9409  -20.6643   20.1823 C.2     1  UNL1        0.0172
      7 C          -5.4384  -20.7249   20.2434 C.3     1  UNL1        0.0765
      8 C          -6.1952  -19.7392   21.0834 C.2     1  UNL1        0.0833
      9 N          -7.6619  -19.5544   21.3375 N.2     1  UNL1       -0.2238
     10 O          -1.7026  -19.5576   20.9001 O.2     1  UNL1       -0.4717
     11 C          -1.0276  -18.4944   20.0852 C.3     1  UNL1        0.2525
     12 S          -9.1293  -17.8599   22.7936 S.3     1  UNL1       -0.0757
     13 C          -9.2447  -17.4300   24.2260 C.3     1  UNL1        0.0652
     14 C          -7.9161  -15.4493   25.2566 C.3     1  UNL1        0.0009
     15 C          -9.1484  -15.9762   24.5829 C.3     1  UNL1        0.0121
@<TRIPOS>BOND
     1    14    15    1
     2    15    13    1
     3    13    12    1
     4    12     1    1
     5     1     2    2
     6     2     3    1
     7     3     4    2
     8     4     5    1
     9     5    10    1
    10    10    11    1
    11     5     6    2
    12     6     7    1
    13     7     8    1
    14     8     9    2
    15     9     1    1
    16     8     3    1
@<TRIPOS>MOLECULE
*****
 15 16 0 0 0
SMALL
GASTEIGER

@<TRIPOS>ATOM
      1 C          -6.9848  -16.0428   23.8602 C.2     1  UNL1        0.1898
      2 N          -6.6822  -17.1193   22.8604 N.2     1  UNL1       -0.2199
      3 C          -7.9764  -17.5484   22.2352 C.2     1  UNL1        0.1003
      4 C          -8.2934  -18.5731   21.1866 C.2     1  UNL1        0.0569
      5 C          -9.7129  -18.7864   20.7514 C.2     1  UNL1        0.1364
      6 C         -10.8154  -17.9751   21.3648 C.2     1  UNL1        0.0172
      7 C         -10.4984  -16.9505   22.4134 C.3     1  UNL1        0.0765
      8 C          -9.0789  -16.7371   22.8486 C.2     1  UNL1        0.0833
      9 N          -8.4661  -15.8066   23.8529 N.2     1  UNL1       -0.2238
     10 O         -10.0299  -19.8111   19.7027 O.2     1  UNL1       -0.4717
     11 C          -8.9770  -20.2282   18.7192 C.3     1  UNL1        0.2525
     12 S          -5.9822  -15.3281   24.7169 S.3     1  UNL1       -0.0757
     13 C          -5.8245  -15.7052   26.1601 C.3     1  UNL1        0.0652
     14 C          -8.0582  -16.1560   27.4081 C.3     1  UNL1        0.0009
     15 C          -6.8600  -15.2878   27.1619 C.3     1  UNL1        0.0121
@<TRIPOS>BOND
     1    14    15    1
     2    15    13    1
     3    13    12    1
     4    12     1    1
     5     1     2    2
     6     2     3    1
     7     3     4    2
     8     4     5    1
     9     5    10    1
    10    10    11    1
    11     5     6    2
    12     6     7    1
    13     7     8    1
    14     8     9    2
    15     9     1    1
    16     8     3    1
@<TRIPOS>MOLECULE
*****
 15 16 0 0 0
SMALL
GASTEIGER

@<TRIPOS>ATOM
      1 C         -10.4953  -17.1662   21.3993 C.2     1  UNL1        0.1898
      2 N         -10.6812  -17.4727   22.8558 N.2     1  UNL1       -0.2199
      3 C          -9.5858  -16.7869   23.6173 C.2     1  UNL1        0.1003
      4 C          -9.2626  -16.7331   25.0810 C.2     1  UNL1        0.0569
      5 C          -8.0765  -15.9490   25.5588 C.2     1  UNL1        0.1364
      6 C          -7.2136  -15.2187   24.5729 C.2     1  UNL1        0.0172
      7 C          -7.5368  -15.2725   23.1091 C.3     1  UNL1        0.0765
      8 C          -8.7229  -16.0566   22.6313 C.2     1  UNL1        0.0833
      9 N          -9.2850  -16.2911   21.2605 N.2     1  UNL1       -0.2238
     10 O          -7.7533  -15.8951   27.0226 O.2     1  UNL1       -0.4717
     11 C          -6.5394  -15.1517   27.4958 C.3     1  UNL1        0.2525
     12 S         -11.3667  -17.6500   20.2783 S.3     1  UNL1       -0.0757
     13 C         -10.9267  -18.8078   19.4323 C.3     1  UNL1        0.0652
     14 C          -8.4933  -19.6766   19.1602 C.3     1  UNL1        0.0009
     15 C          -9.8026  -19.6882   19.8921 C.3     1  UNL1        0.0121
@<TRIPOS>BOND
     1    14    15    1
     2    15    13    1
     3    13    12    1
     4    12     1    1
     5     1     2    2
     6     2     3    1
     7     3     4    2
     8     4     5    1
     9     5    10    1
    10    10    11    1
    11     5     6    2
    12     6     7    1
    13     7     8    1
    14     8     9    2
    15     9     1    1
    16     8     3    1
