@<TRIPOS>MOLECULE
*****
 30 34 0 0 0
SMALL
GASTEIGER

@<TRIPOS>ATOM
      1 N           2.9246   -1.2501   19.6649 N.ar    1  UNL1       -0.2286
      2 C           3.2339    0.0637   19.0104 C.ar    1  UNL1        0.0990
      3 C           2.0724    0.9833   19.2453 C.ar    1  UNL1        0.0338
      4 C           1.0453    0.2379   20.0449 C.ar    1  UNL1        0.0981
      5 N           1.5720   -1.1424   20.3043 N.ar    1  UNL1       -0.1680
      6 C          -0.1162    1.1576   20.2798 C.3     1  UNL1        0.1414
      7 N           0.1930    2.4714   19.6253 N.am    1  UNL1       -0.2660
      8 C          -0.6945    3.6805   19.6124 C.2     1  UNL1        0.2525
      9 O          -0.2488    4.9307   18.9134 O.2     1  UNL1       -0.2698
     10 C           1.5457    2.3636   18.9859 C.3     1  UNL1        0.1236
     11 C           7.4724   -3.4819   20.8211 C.3     1  UNL1        0.0521
     12 C           6.0861   -3.5752   20.2559 C.ar    1  UNL1        0.0609
     13 C           5.1985   -2.3660   20.2430 C.ar    1  UNL1        0.0339
     14 C           3.8122   -2.4592   19.6778 C.ar    1  UNL1        0.0855
     15 C           3.3134   -3.7616   19.1256 C.ar    1  UNL1        0.0398
     16 C           4.2010   -4.9708   19.1385 C.ar    1  UNL1        0.1000
     17 N           5.5873   -4.8776   19.7037 N.ar    1  UNL1       -0.2480
     18 C          -2.0278    3.6396   20.2985 C.ar    1  UNL1        0.0881
     19 C          -3.2888    3.6191   19.4864 C.ar    1  UNL1        0.0178
     20 C          -4.6221    3.5781   20.1725 C.ar    1  UNL1        0.0688
     21 C          -4.6944    3.5578   21.6705 C.ar    1  UNL1        0.0134
     22 C          -3.4334    3.5783   22.4827 C.ar    1  UNL1        0.0377
     23 C          -2.1001    3.6192   21.7966 C.ar    1  UNL1        0.1429
     24 C          -5.8830    3.5576   19.3603 C.1     1  UNL1        0.1004
     25 N          -7.1440    3.5370   18.5482 N.1     1  UNL1       -0.1908
     26 O          -0.8391    3.6397   22.6087 O.3     1  UNL1       -0.4753
     27 C          -0.9077    3.8217   24.0960 C.3     1  UNL1        0.2053
     28 C          -0.6429    2.6597   25.0068 C.3     1  UNL1        0.0438
     29 C          -0.8084    1.9886   26.3381 C.3     1  UNL1        0.0038
     30 C          -0.0187    1.3182   25.2532 C.3     1  UNL1        0.0038
@<TRIPOS>BOND
     1    11    12    1
     2    12    13   ar
     3    13    14   ar
     4    14     1    1
     5     1     2   ar
     6     2     3   ar
     7     3     4   ar
     8     4     5   ar
     9     4     6    1
    10     6     7    1
    11     7     8   am
    12     8     9    2
    13     8    18    1
    14    18    19   ar
    15    19    20   ar
    16    20    24    1
    17    24    25    3
    18    20    21   ar
    19    21    22   ar
    20    22    23   ar
    21    23    26    1
    22    26    27    1
    23    27    28    1
    24    28    29    1
    25    29    30    1
    26     7    10    1
    27    14    15   ar
    28    15    16   ar
    29    16    17   ar
    30    17    12   ar
    31     5     1   ar
    32    23    18   ar
    33    30    28    1
    34    10     3    1
@<TRIPOS>MOLECULE
*****
 30 34 0 0 0
SMALL
GASTEIGER

@<TRIPOS>ATOM
      1 N           2.8596    0.1924   19.5411 N.ar    1  UNL1       -0.2286
      2 C           3.0559    1.6784   19.4845 C.ar    1  UNL1        0.0990
      3 C           1.8436    2.3291   20.0818 C.ar    1  UNL1        0.0338
      4 C           0.8980    1.2453   20.5075 C.ar    1  UNL1        0.0981
      5 N           1.5259   -0.0753   20.1734 N.ar    1  UNL1       -0.1680
      6 C          -0.3143    1.8961   21.1048 C.3     1  UNL1        0.1414
      7 N          -0.1181    3.3822   21.0482 N.am    1  UNL1       -0.2660
      8 C          -1.0855    4.4185   21.5379 C.2     1  UNL1        0.2525
      9 O          -0.7504    5.8754   21.4140 O.2     1  UNL1       -0.2698
     10 C           1.2156    3.6497   20.4159 C.3     1  UNL1        0.1236
     11 C           4.2422   -4.7909   19.0359 C.3     1  UNL1        0.0521
     12 C           4.5183   -3.3358   18.7988 C.ar    1  UNL1        0.0609
     13 C           3.5509   -2.2993   19.2885 C.ar    1  UNL1        0.0339
     14 C           3.8270   -0.8441   19.0514 C.ar    1  UNL1        0.0855
     15 C           5.0706   -0.4254   18.3246 C.ar    1  UNL1        0.0398
     16 C           6.0380   -1.4619   17.8350 C.ar    1  UNL1        0.1000
     17 N           5.7619   -2.9171   18.0721 N.ar    1  UNL1       -0.2480
     18 C          -2.3881    3.9982   22.1515 C.ar    1  UNL1        0.0881
     19 C          -2.6102    4.1623   23.6258 C.ar    1  UNL1        0.0178
     20 C          -3.9129    3.7419   24.2394 C.ar    1  UNL1        0.0688
     21 C          -4.9933    3.1575   23.3787 C.ar    1  UNL1        0.0134
     22 C          -4.7713    2.9933   21.9043 C.ar    1  UNL1        0.0377
     23 C          -3.4687    3.4137   21.2907 C.ar    1  UNL1        0.1429
     24 C          -4.1349    3.9061   25.7138 C.1     1  UNL1        0.1004
     25 N          -4.3568    4.0702   27.1882 N.1     1  UNL1       -0.1908
     26 O          -3.2465    3.2495   19.8164 O.3     1  UNL1       -0.4753
     27 C          -3.9609    4.1431   18.8462 C.3     1  UNL1        0.2053
     28 C          -5.4497    4.0442   18.6918 C.3     1  UNL1        0.0438
     29 C          -6.7731    4.6944   18.4166 C.3     1  UNL1        0.0038
     30 C          -6.7048    3.2229   18.6994 C.3     1  UNL1        0.0038
@<TRIPOS>BOND
     1    11    12    1
     2    12    13   ar
     3    13    14   ar
     4    14     1    1
     5     1     2   ar
     6     2     3   ar
     7     3     4   ar
     8     4     5   ar
     9     4     6    1
    10     6     7    1
    11     7     8   am
    12     8     9    2
    13     8    18    1
    14    18    19   ar
    15    19    20   ar
    16    20    24    1
    17    24    25    3
    18    20    21   ar
    19    21    22   ar
    20    22    23   ar
    21    23    26    1
    22    26    27    1
    23    27    28    1
    24    28    29    1
    25    29    30    1
    26     7    10    1
    27    14    15   ar
    28    15    16   ar
    29    16    17   ar
    30    17    12   ar
    31     5     1   ar
    32    23    18   ar
    33    30    28    1
    34    10     3    1
@<TRIPOS>MOLECULE
*****
 30 34 0 0 0
SMALL
GASTEIGER

@<TRIPOS>ATOM
      1 N           3.9359   -0.5162   21.2005 N.ar    1  UNL1       -0.2286
      2 C           3.9067    0.9761   21.3499 C.ar    1  UNL1        0.0990
      3 C           3.2110    1.2993   22.6389 C.ar    1  UNL1        0.0338
      4 C           2.8103    0.0068   23.2862 C.ar    1  UNL1        0.0981
      5 N           3.2583   -1.1152   22.3971 N.ar    1  UNL1       -0.1680
      6 C           2.1146    0.3300   24.5752 C.3     1  UNL1        0.1414
      7 N           2.0853    1.8223   24.7246 N.am    1  UNL1       -0.2660
      8 C           1.4841    2.5820   25.8696 C.2     1  UNL1        0.2525
      9 O           1.5304    4.0813   25.8817 O.2     1  UNL1       -0.2698
     10 C           2.7630    2.4213   23.5279 C.3     1  UNL1        0.1236
     11 C           4.6436   -4.9825   18.6410 C.3     1  UNL1        0.0521
     12 C           4.8911   -3.5092   18.7757 C.ar    1  UNL1        0.0609
     13 C           4.2898   -2.7493   19.9207 C.ar    1  UNL1        0.0339
     14 C           4.5372   -1.2760   20.0555 C.ar    1  UNL1        0.0855
     15 C           5.3859   -0.5625   19.0452 C.ar    1  UNL1        0.0398
     16 C           5.9872   -1.3224   17.9001 C.ar    1  UNL1        0.1000
     17 N           5.7398   -2.7957   17.7654 N.ar    1  UNL1       -0.2480
     18 C           0.8364    1.8426   27.0027 C.ar    1  UNL1        0.0881
     19 C           1.6839    1.1428   28.0233 C.ar    1  UNL1        0.0178
     20 C           1.0362    0.4033   29.1564 C.ar    1  UNL1        0.0688
     21 C          -0.4590    0.3638   29.2688 C.ar    1  UNL1        0.0134
     22 C          -1.3066    1.0637   28.2481 C.ar    1  UNL1        0.0377
     23 C          -0.6589    1.8031   27.1151 C.ar    1  UNL1        0.1429
     24 C           1.8839   -0.2966   30.1770 C.1     1  UNL1        0.1004
     25 N           2.7315   -0.9965   31.1976 N.1     1  UNL1       -0.1908
     26 O          -1.5065    2.5030   26.0944 O.3     1  UNL1       -0.4753
     27 C          -2.1327    3.8266   26.4199 C.3     1  UNL1        0.2053
     28 C          -3.6001    4.0384   26.1918 C.3     1  UNL1        0.0438
     29 C          -4.8935    4.6927   26.5777 C.3     1  UNL1        0.0038
     30 C          -4.8481    3.7510   25.4110 C.3     1  UNL1        0.0038
@<TRIPOS>BOND
     1    11    12    1
     2    12    13   ar
     3    13    14   ar
     4    14     1    1
     5     1     2   ar
     6     2     3   ar
     7     3     4   ar
     8     4     5   ar
     9     4     6    1
    10     6     7    1
    11     7     8   am
    12     8     9    2
    13     8    18    1
    14    18    19   ar
    15    19    20   ar
    16    20    24    1
    17    24    25    3
    18    20    21   ar
    19    21    22   ar
    20    22    23   ar
    21    23    26    1
    22    26    27    1
    23    27    28    1
    24    28    29    1
    25    29    30    1
    26     7    10    1
    27    14    15   ar
    28    15    16   ar
    29    16    17   ar
    30    17    12   ar
    31     5     1   ar
    32    23    18   ar
    33    30    28    1
    34    10     3    1
@<TRIPOS>MOLECULE
*****
 30 34 0 0 0
SMALL
GASTEIGER

@<TRIPOS>ATOM
      1 N           3.0316    0.1798   19.7111 N.ar    1  UNL1       -0.2286
      2 C           3.3889    1.5570   20.1861 C.ar    1  UNL1        0.0990
      3 C           2.1386    2.2102   20.6963 C.ar    1  UNL1        0.0338
      4 C           1.0086    1.2367   20.5365 C.ar    1  UNL1        0.0981
      5 N           1.5605   -0.0182   19.9276 N.ar    1  UNL1       -0.1680
      6 C          -0.2416    1.8899   21.0466 C.3     1  UNL1        0.1414
      7 N           0.1156    3.2671   21.5217 N.am    1  UNL1       -0.2660
      8 C          -0.8317    4.2702   22.1100 C.2     1  UNL1        0.2525
      9 O          -0.3269    5.6149   22.5426 O.2     1  UNL1       -0.2698
     10 C           1.5867    3.4650   21.3052 C.3     1  UNL1        0.1236
     11 C           4.3380   -4.7594   18.7636 C.3     1  UNL1        0.0521
     12 C           4.6322   -3.2930   18.6490 C.ar    1  UNL1        0.0609
     13 C           3.6848   -2.2898   19.2373 C.ar    1  UNL1        0.0339
     14 C           3.9790   -0.8234   19.1228 C.ar    1  UNL1        0.0855
     15 C           5.2205   -0.3601   18.4199 C.ar    1  UNL1        0.0398
     16 C           6.1679   -1.3634   17.8316 C.ar    1  UNL1        0.1000
     17 N           5.8738   -2.8298   17.9462 N.ar    1  UNL1       -0.2480
     18 C          -2.2840    3.9288   22.2657 C.ar    1  UNL1        0.0881
     19 C          -3.1583    3.7997   21.0537 C.ar    1  UNL1        0.0178
     20 C          -4.6106    3.4582   21.2095 C.ar    1  UNL1        0.0688
     21 C          -5.1886    3.2458   22.5772 C.ar    1  UNL1        0.0134
     22 C          -4.3144    3.3749   23.7893 C.ar    1  UNL1        0.0377
     23 C          -2.8621    3.7163   23.6335 C.ar    1  UNL1        0.1429
     24 C          -5.4848    3.3292   19.9974 C.1     1  UNL1        0.1004
     25 N          -6.3589    3.2000   18.7853 N.1     1  UNL1       -0.1908
     26 O          -1.9878    3.8454   24.8455 O.3     1  UNL1       -0.4753
     27 C          -1.4003    2.6200   25.4804 C.3     1  UNL1        0.2053
     28 C          -0.0808    2.0881   25.0049 C.3     1  UNL1        0.0438
     29 C           1.3762    2.2973   24.7163 C.3     1  UNL1        0.0038
     30 C           0.7476    0.9579   24.4700 C.3     1  UNL1        0.0038
@<TRIPOS>BOND
     1    11    12    1
     2    12    13   ar
     3    13    14   ar
     4    14     1    1
     5     1     2   ar
     6     2     3   ar
     7     3     4   ar
     8     4     5   ar
     9     4     6    1
    10     6     7    1
    11     7     8   am
    12     8     9    2
    13     8    18    1
    14    18    19   ar
    15    19    20   ar
    16    20    24    1
    17    24    25    3
    18    20    21   ar
    19    21    22   ar
    20    22    23   ar
    21    23    26    1
    22    26    27    1
    23    27    28    1
    24    28    29    1
    25    29    30    1
    26     7    10    1
    27    14    15   ar
    28    15    16   ar
    29    16    17   ar
    30    17    12   ar
    31     5     1   ar
    32    23    18   ar
    33    30    28    1
    34    10     3    1
@<TRIPOS>MOLECULE
*****
 30 34 0 0 0
SMALL
GASTEIGER

@<TRIPOS>ATOM
      1 N           7.1233   -4.1619   24.5684 N.ar    1  UNL1       -0.2286
      2 C           8.1726   -3.2351   24.0298 C.ar    1  UNL1        0.0990
      3 C           7.5407   -2.3883   22.9651 C.ar    1  UNL1        0.0338
      4 C           6.1009   -2.7917   22.8457 C.ar    1  UNL1        0.0981
      5 N           5.8429   -3.8878   23.8366 N.ar    1  UNL1       -0.1680
      6 C           5.4689   -1.9448   21.7811 C.3     1  UNL1        0.1414
      7 N           6.5182   -1.0180   21.2424 N.am    1  UNL1       -0.2660
      8 C           6.3216    0.0035   20.1618 C.2     1  UNL1        0.2525
      9 O           7.4702    0.8636   19.7248 O.2     1  UNL1       -0.2698
     10 C           7.7986   -1.2921   21.9742 C.3     1  UNL1        0.1236
     11 C           6.8660   -5.5203   29.5772 C.3     1  UNL1        0.0521
     12 C           7.1913   -5.8626   28.1535 C.ar    1  UNL1        0.0609
     13 C           6.9947   -4.8411   27.0728 C.ar    1  UNL1        0.0339
     14 C           7.3199   -5.1834   25.6490 C.ar    1  UNL1        0.0855
     15 C           7.8417   -6.5473   25.3060 C.ar    1  UNL1        0.0398
     16 C           8.0383   -7.5687   26.3867 C.ar    1  UNL1        0.1000
     17 N           7.7131   -7.2264   27.8105 N.ar    1  UNL1       -0.2480
     18 C           4.9764    0.1649   19.5181 C.ar    1  UNL1        0.0881
     19 C           3.9157    0.9834   20.1925 C.ar    1  UNL1        0.0178
     20 C           2.5704    1.1448   19.5487 C.ar    1  UNL1        0.0688
     21 C           2.2860    0.4878   18.2307 C.ar    1  UNL1        0.0134
     22 C           3.3468   -0.3307   17.5562 C.ar    1  UNL1        0.0377
     23 C           4.6920   -0.4921   18.1999 C.ar    1  UNL1        0.1429
     24 C           1.5097    1.9633   20.2232 C.1     1  UNL1        0.1004
     25 N           0.4489    2.7817   20.8977 N.1     1  UNL1       -0.1908
     26 O           5.7527   -1.3106   17.5255 O.3     1  UNL1       -0.4753
     27 C           6.0861   -2.6788   18.0421 C.3     1  UNL1        0.2053
     28 C           4.9950   -3.5770   18.5448 C.3     1  UNL1        0.0438
     29 C           3.6081   -3.7585   19.0866 C.3     1  UNL1        0.0038
     30 C           4.4921   -4.9514   18.8736 C.3     1  UNL1        0.0038
@<TRIPOS>BOND
     1    11    12    1
     2    12    13   ar
     3    13    14   ar
     4    14     1    1
     5     1     2   ar
     6     2     3   ar
     7     3     4   ar
     8     4     5   ar
     9     4     6    1
    10     6     7    1
    11     7     8   am
    12     8     9    2
    13     8    18    1
    14    18    19   ar
    15    19    20   ar
    16    20    24    1
    17    24    25    3
    18    20    21   ar
    19    21    22   ar
    20    22    23   ar
    21    23    26    1
    22    26    27    1
    23    27    28    1
    24    28    29    1
    25    29    30    1
    26     7    10    1
    27    14    15   ar
    28    15    16   ar
    29    16    17   ar
    30    17    12   ar
    31     5     1   ar
    32    23    18   ar
    33    30    28    1
    34    10     3    1
@<TRIPOS>MOLECULE
*****
 30 34 0 0 0
SMALL
GASTEIGER

@<TRIPOS>ATOM
      1 N           6.3869   -2.6916   25.6754 N.ar    1  UNL1       -0.2286
      2 C           6.1951   -3.9314   24.8531 C.ar    1  UNL1        0.0990
      3 C           5.5122   -3.5397   23.5763 C.ar    1  UNL1        0.0338
      4 C           5.2819   -2.0578   23.6095 C.ar    1  UNL1        0.0981
      5 N           5.8225   -1.5337   24.9069 N.ar    1  UNL1       -0.1680
      6 C           4.5990   -1.6661   22.3328 C.3     1  UNL1        0.1414
      7 N           4.4072   -2.9059   21.5104 N.am    1  UNL1       -0.2660
      8 C           3.7640   -2.9755   20.1572 C.2     1  UNL1        0.2525
      9 O           3.6418   -4.2936   19.4517 O.2     1  UNL1       -0.2698
     10 C           4.9716   -4.0638   22.2790 C.3     1  UNL1        0.1236
     11 C           6.9287   -4.5413   30.5009 C.3     1  UNL1        0.0521
     12 C           7.3010   -3.5469   29.4415 C.ar    1  UNL1        0.0609
     13 C           6.6578   -3.6164   28.0881 C.ar    1  UNL1        0.0339
     14 C           7.0301   -2.6220   27.0287 C.ar    1  UNL1        0.0855
     15 C           8.0457   -1.5579   27.3226 C.ar    1  UNL1        0.0398
     16 C           8.6889   -1.4883   28.6759 C.ar    1  UNL1        0.1000
     17 N           8.3166   -2.4828   29.7354 N.ar    1  UNL1       -0.2480
     18 C           3.2429   -1.7270   19.5093 C.ar    1  UNL1        0.0881
     19 C           2.0829   -0.9951   20.1163 C.ar    1  UNL1        0.0178
     20 C           1.5618    0.2535   19.4684 C.ar    1  UNL1        0.0688
     21 C           2.2007    0.7700   18.2135 C.ar    1  UNL1        0.0134
     22 C           3.3608    0.0381   17.6064 C.ar    1  UNL1        0.0377
     23 C           3.8819   -1.2104   18.2543 C.ar    1  UNL1        0.1429
     24 C           0.4017    0.9853   20.0755 C.1     1  UNL1        0.1004
     25 N          -0.7584    1.7171   20.6828 N.1     1  UNL1       -0.1908
     26 O           5.0420   -1.9423   17.6473 O.3     1  UNL1       -0.4753
     27 C           6.4435   -1.4789   17.9136 C.3     1  UNL1        0.2053
     28 C           7.1609   -1.9319   19.1507 C.3     1  UNL1        0.0438
     29 C           7.8534   -1.6106   20.4419 C.3     1  UNL1        0.0038
     30 C           7.7108   -3.0376   20.0020 C.3     1  UNL1        0.0038
@<TRIPOS>BOND
     1    11    12    1
     2    12    13   ar
     3    13    14   ar
     4    14     1    1
     5     1     2   ar
     6     2     3   ar
     7     3     4   ar
     8     4     5   ar
     9     4     6    1
    10     6     7    1
    11     7     8   am
    12     8     9    2
    13     8    18    1
    14    18    19   ar
    15    19    20   ar
    16    20    24    1
    17    24    25    3
    18    20    21   ar
    19    21    22   ar
    20    22    23   ar
    21    23    26    1
    22    26    27    1
    23    27    28    1
    24    28    29    1
    25    29    30    1
    26     7    10    1
    27    14    15   ar
    28    15    16   ar
    29    16    17   ar
    30    17    12   ar
    31     5     1   ar
    32    23    18   ar
    33    30    28    1
    34    10     3    1
@<TRIPOS>MOLECULE
*****
 30 34 0 0 0
SMALL
GASTEIGER

@<TRIPOS>ATOM
      1 N           5.5745   -2.1997   27.6786 N.ar    1  UNL1       -0.2286
      2 C           4.3553   -1.3564   27.4499 C.ar    1  UNL1        0.0990
      3 C           4.1417   -1.2422   25.9696 C.ar    1  UNL1        0.0338
      4 C           5.2289   -2.0150   25.2834 C.ar    1  UNL1        0.0981
      5 N           6.1144   -2.6068   26.3396 N.ar    1  UNL1       -0.1680
      6 C           5.0153   -1.9008   23.8031 C.3     1  UNL1        0.1414
      7 N           3.7960   -1.0574   23.5744 N.am    1  UNL1       -0.2660
      8 C           3.2182   -0.6862   22.2409 C.2     1  UNL1        0.2525
      9 O           1.9877    0.1686   22.1683 O.2     1  UNL1       -0.2698
     10 C           3.2562   -0.6504   24.9134 C.3     1  UNL1        0.1236
     11 C           7.5426   -5.7780   30.8914 C.3     1  UNL1        0.0521
     12 C           7.1364   -4.3601   30.6186 C.ar    1  UNL1        0.0609
     13 C           6.5585   -3.9888   29.2851 C.ar    1  UNL1        0.0339
     14 C           6.1524   -2.5709   29.0121 C.ar    1  UNL1        0.0855
     15 C           6.3241   -1.5242   30.0727 C.ar    1  UNL1        0.0398
     16 C           6.9020   -1.8954   31.4062 C.ar    1  UNL1        0.1000
     17 N           7.3081   -3.3134   31.6792 N.ar    1  UNL1       -0.2480
     18 C           3.8707   -1.1699   20.9799 C.ar    1  UNL1        0.0881
     19 C           3.9623   -2.6405   20.6992 C.ar    1  UNL1        0.0178
     20 C           4.6149   -3.1242   19.4381 C.ar    1  UNL1        0.0688
     21 C           5.1759   -2.1373   18.4578 C.ar    1  UNL1        0.0134
     22 C           5.0843   -0.6666   18.7384 C.ar    1  UNL1        0.0377
     23 C           4.4318   -0.1829   19.9994 C.ar    1  UNL1        0.1429
     24 C           4.7065   -4.5949   19.1576 C.1     1  UNL1        0.1004
     25 N           4.7979   -6.0656   18.8771 N.1     1  UNL1       -0.1908
     26 O           4.3402    1.2877   20.2801 O.3     1  UNL1       -0.4753
     27 C           3.5129    2.1704   19.3932 C.3     1  UNL1        0.2053
     28 C           2.1821    1.6937   18.8915 C.3     1  UNL1        0.0438
     29 C           1.2844    0.5753   18.4518 C.3     1  UNL1        0.0038
     30 C           0.7750    1.9862   18.4621 C.3     1  UNL1        0.0038
@<TRIPOS>BOND
     1    11    12    1
     2    12    13   ar
     3    13    14   ar
     4    14     1    1
     5     1     2   ar
     6     2     3   ar
     7     3     4   ar
     8     4     5   ar
     9     4     6    1
    10     6     7    1
    11     7     8   am
    12     8     9    2
    13     8    18    1
    14    18    19   ar
    15    19    20   ar
    16    20    24    1
    17    24    25    3
    18    20    21   ar
    19    21    22   ar
    20    22    23   ar
    21    23    26    1
    22    26    27    1
    23    27    28    1
    24    28    29    1
    25    29    30    1
    26     7    10    1
    27    14    15   ar
    28    15    16   ar
    29    16    17   ar
    30    17    12   ar
    31     5     1   ar
    32    23    18   ar
    33    30    28    1
    34    10     3    1
@<TRIPOS>MOLECULE
*****
 30 34 0 0 0
SMALL
GASTEIGER

@<TRIPOS>ATOM
      1 N           4.5470   -1.2586   21.7981 N.ar    1  UNL1       -0.2286
      2 C           5.4519   -0.5551   22.7657 C.ar    1  UNL1        0.0990
      3 C           4.6251   -0.1152   23.9374 C.ar    1  UNL1        0.0338
      4 C           3.2093   -0.5467   23.6940 C.ar    1  UNL1        0.0981
      5 N           3.1610   -1.2534   22.3718 N.ar    1  UNL1       -0.1680
      6 C           2.3826   -0.1068   24.8657 C.3     1  UNL1        0.1414
      7 N           3.2875    0.5968   25.8334 N.am    1  UNL1       -0.2660
      8 C           2.8783    1.1996   27.1444 C.2     1  UNL1        0.2525
      9 O           3.8998    1.8748   28.0109 O.2     1  UNL1       -0.2698
     10 C           4.6734    0.5916   25.2596 C.3     1  UNL1        0.1236
     11 C           4.6521   -5.3093   18.5453 C.3     1  UNL1        0.0521
     12 C           5.0087   -3.8869   18.8605 C.ar    1  UNL1        0.0609
     13 C           4.5996   -3.2839   20.1716 C.ar    1  UNL1        0.0339
     14 C           4.9562   -1.8615   20.4869 C.ar    1  UNL1        0.0855
     15 C           5.7220   -1.0419   19.4910 C.ar    1  UNL1        0.0398
     16 C           6.1312   -1.6448   18.1799 C.ar    1  UNL1        0.1000
     17 N           5.7746   -3.0673   17.8646 N.ar    1  UNL1       -0.2480
     18 C           1.4476    1.1273   27.5892 C.ar    1  UNL1        0.0881
     19 C           0.4381    2.0836   27.0268 C.ar    1  UNL1        0.0178
     20 C          -0.9927    2.0113   27.4716 C.ar    1  UNL1        0.0688
     21 C          -1.4139    0.9827   28.4787 C.ar    1  UNL1        0.0134
     22 C          -0.4045    0.0263   29.0412 C.ar    1  UNL1        0.0377
     23 C           1.0262    0.0986   28.5964 C.ar    1  UNL1        0.1429
     24 C          -2.0021    2.9677   26.9091 C.1     1  UNL1        0.1004
     25 N          -3.0114    3.9242   26.3465 N.1     1  UNL1       -0.1908
     26 O           2.0357   -0.8577   29.1588 O.3     1  UNL1       -0.4753
     27 C           2.7190   -0.5489   30.4580 C.3     1  UNL1        0.2053
     28 C           2.5159    0.7848   31.1137 C.3     1  UNL1        0.0438
     29 C           1.6651    1.7187   31.9224 C.3     1  UNL1        0.0038
     30 C           3.0149    2.1611   31.4406 C.3     1  UNL1        0.0038
@<TRIPOS>BOND
     1    11    12    1
     2    12    13   ar
     3    13    14   ar
     4    14     1    1
     5     1     2   ar
     6     2     3   ar
     7     3     4   ar
     8     4     5   ar
     9     4     6    1
    10     6     7    1
    11     7     8   am
    12     8     9    2
    13     8    18    1
    14    18    19   ar
    15    19    20   ar
    16    20    24    1
    17    24    25    3
    18    20    21   ar
    19    21    22   ar
    20    22    23   ar
    21    23    26    1
    22    26    27    1
    23    27    28    1
    24    28    29    1
    25    29    30    1
    26     7    10    1
    27    14    15   ar
    28    15    16   ar
    29    16    17   ar
    30    17    12   ar
    31     5     1   ar
    32    23    18   ar
    33    30    28    1
    34    10     3    1
@<TRIPOS>MOLECULE
*****
 30 34 0 0 0
SMALL
GASTEIGER

@<TRIPOS>ATOM
      1 N           2.8627   -1.2918   19.5412 N.ar    1  UNL1       -0.2286
      2 C           3.1472   -0.0302   18.7813 C.ar    1  UNL1        0.0990
      3 C           1.9999    0.9110   18.9996 C.ar    1  UNL1        0.0338
      4 C           1.0063    0.2312   19.8944 C.ar    1  UNL1        0.0981
      5 N           1.5396   -1.1303   20.2291 N.ar    1  UNL1       -0.1680
      6 C          -0.1410    1.1725   20.1128 C.3     1  UNL1        0.1414
      7 N           0.1435    2.4342   19.3529 N.am    1  UNL1       -0.2660
      8 C          -0.7400    3.6447   19.2917 C.2     1  UNL1        0.2525
      9 O          -0.3214    4.8389   18.4861 O.2     1  UNL1       -0.2698
     10 C           1.4666    2.2725   18.6649 C.3     1  UNL1        0.1236
     11 C           7.4201   -3.4808   20.7404 C.3     1  UNL1        0.0521
     12 C           6.0250   -3.5970   20.2020 C.ar    1  UNL1        0.0609
     13 C           5.1414   -2.3864   20.1408 C.ar    1  UNL1        0.0339
     14 C           3.7462   -2.5025   19.6024 C.ar    1  UNL1        0.0855
     15 C           3.2345   -3.8293   19.1251 C.ar    1  UNL1        0.0398
     16 C           4.1181   -5.0399   19.1864 C.ar    1  UNL1        0.1000
     17 N           5.5133   -4.9238   19.7248 N.ar    1  UNL1       -0.2480
     18 C          -2.0422    3.6613   20.0360 C.ar    1  UNL1        0.0881
     19 C          -3.3380    3.6393   19.2809 C.ar    1  UNL1        0.0178
     20 C          -4.6403    3.6559   20.0252 C.ar    1  UNL1        0.0688
     21 C          -4.6467    3.6945   21.5246 C.ar    1  UNL1        0.0134
     22 C          -3.3508    3.7165   22.2799 C.ar    1  UNL1        0.0377
     23 C          -2.0486    3.6999   21.5356 C.ar    1  UNL1        0.1429
     24 C          -5.9361    3.6338   19.2699 C.1     1  UNL1        0.1004
     25 N          -7.2318    3.6119   18.5145 N.1     1  UNL1       -0.1908
     26 O          -0.7528    3.7220   22.2907 O.3     1  UNL1       -0.4753
     27 C          -0.2508    5.0060   22.8816 C.3     1  UNL1        0.2053
     28 C          -0.7160    6.3195   22.3264 C.3     1  UNL1        0.0438
     29 C          -0.9998    7.2049   21.1493 C.3     1  UNL1        0.0038
     30 C          -1.2380    7.7092   22.5418 C.3     1  UNL1        0.0038
@<TRIPOS>BOND
     1    11    12    1
     2    12    13   ar
     3    13    14   ar
     4    14     1    1
     5     1     2   ar
     6     2     3   ar
     7     3     4   ar
     8     4     5   ar
     9     4     6    1
    10     6     7    1
    11     7     8   am
    12     8     9    2
    13     8    18    1
    14    18    19   ar
    15    19    20   ar
    16    20    24    1
    17    24    25    3
    18    20    21   ar
    19    21    22   ar
    20    22    23   ar
    21    23    26    1
    22    26    27    1
    23    27    28    1
    24    28    29    1
    25    29    30    1
    26     7    10    1
    27    14    15   ar
    28    15    16   ar
    29    16    17   ar
    30    17    12   ar
    31     5     1   ar
    32    23    18   ar
    33    30    28    1
    34    10     3    1
