@<TRIPOS>MOLECULE
*****
 29 32 0 0 0
SMALL
GASTEIGER

@<TRIPOS>ATOM
      1 C          -1.8426  -18.0835   20.3479 C.ar    1  UNL1        0.1073
      2 C          -2.5666  -18.8305   19.2673 C.ar    1  UNL1        0.0199
      3 C          -4.0425  -19.0722   19.3822 C.ar    1  UNL1        0.0201
      4 C          -4.7944  -18.5668   20.5777 C.ar    1  UNL1        0.0787
      5 C          -4.0704  -17.8198   21.6583 C.ar    1  UNL1        0.0996
      6 C          -2.5945  -17.5781   21.5433 C.ar    1  UNL1        0.0389
      7 N          -5.0700  -17.4440   22.7118 N.ar    1  UNL1       -0.2309
      8 C          -6.4117  -17.9589   22.2823 C.ar    1  UNL1        0.1207
      9 N          -6.2414  -18.6528   20.9633 N.ar    1  UNL1       -0.3135
     10 C          -7.4260  -19.2733   20.2839 C.3     1  UNL1        0.1229
     11 C          -8.7810  -19.2000   20.9233 C.3     1  UNL1        0.0783
     12 N          -9.9656  -19.8205   20.2439 N.3     1  UNL1       -0.3204
     13 C          -8.9513  -18.5061   22.2423 C.3     1  UNL1        0.0482
     14 C          -7.7666  -17.8856   22.9217 C.3     1  UNL1        0.0698
     15 H          -9.6695  -20.2452   19.3650 H       1  UNL1        0.1189
     16 H         -10.6646  -19.1020   20.0558 H       1  UNL1        0.1189
     17 C         -10.3061  -18.4328   22.8817 C.ar    1  UNL1        0.0091
     18 C         -11.2416  -17.3140   22.5306 C.ar    1  UNL1        0.0300
     19 C         -12.5965  -17.2406   23.1701 C.ar    1  UNL1        0.1672
     20 F         -13.5320  -16.1219   22.8190 F       1  UNL1       -0.2018
     21 C         -13.0159  -18.2861   24.1606 C.ar    1  UNL1        0.1696
     22 F         -14.3707  -18.2127   24.8001 F       1  UNL1       -0.2017
     23 C         -12.0804  -19.4048   24.5117 C.ar    1  UNL1        0.0612
     24 C         -10.7255  -19.4782   23.8723 C.ar    1  UNL1        0.1386
     25 F          -9.7900  -20.5969   24.2234 F       1  UNL1       -0.2044
     26 C           1.1093  -17.6002   20.1181 C.3     1  UNL1        0.1816
     27 S          -0.3666  -17.8418   20.2330 S.O2    1  UNL1        0.0105
     28 O          -0.1693  -19.2598   19.7852 O.2     1  UNL1       -0.1686
     29 O          -0.5639  -16.4239   20.6807 O.2     1  UNL1       -0.1686
@<TRIPOS>BOND
     1    26    27    1
     2    27    28    2
     3    27    29    2
     4    27     1    1
     5     1     2   ar
     6     2     3   ar
     7     3     4   ar
     8     4     5   ar
     9     5     6   ar
    10     5     7   ar
    11     7     8   ar
    12     8     9   ar
    13     9    10    1
    14    10    11    1
    15    11    12    1
    16    11    13    1
    17    13    17    1
    18    17    18   ar
    19    18    19   ar
    20    19    20    1
    21    19    21   ar
    22    21    22    1
    23    21    23   ar
    24    23    24   ar
    25    24    25    1
    26    13    14    1
    27     6     1   ar
    28    14     8    1
    29     9     4   ar
    30    24    17   ar
    31    12    15    1
    32    12    16    1
@<TRIPOS>MOLECULE
*****
 29 32 0 0 0
SMALL
GASTEIGER

@<TRIPOS>ATOM
      1 C         -11.7482  -18.6427   23.5016 C.ar    1  UNL1        0.1073
      2 C         -11.5017  -19.9340   22.7791 C.ar    1  UNL1        0.0199
      3 C         -10.1517  -20.2182   22.1905 C.ar    1  UNL1        0.0201
      4 C          -9.0480  -19.2112   22.3242 C.ar    1  UNL1        0.0787
      5 C          -9.2945  -17.9200   23.0467 C.ar    1  UNL1        0.0996
      6 C         -10.6445  -17.6358   23.6353 C.ar    1  UNL1        0.0389
      7 N          -8.0233  -17.1241   23.0202 N.ar    1  UNL1       -0.2309
      8 C          -6.9912  -17.9234   22.2813 C.ar    1  UNL1        0.1207
      9 N          -7.6246  -19.2134   21.8512 N.ar    1  UNL1       -0.3135
     10 C          -6.8233  -20.2233   21.0844 C.3     1  UNL1        0.1229
     11 C          -5.3886  -19.9433   20.7477 C.3     1  UNL1        0.0783
     12 N          -4.5873  -20.9532   19.9809 N.3     1  UNL1       -0.3204
     13 C          -4.7552  -18.6533   21.1778 C.3     1  UNL1        0.0482
     14 C          -5.5566  -17.6434   21.9446 C.3     1  UNL1        0.0698
     15 H          -5.1711  -21.7632   19.7725 H       1  UNL1        0.1189
     16 H          -3.7858  -21.2464   20.5395 H       1  UNL1        0.1189
     17 C          -3.3206  -18.3733   20.8411 C.ar    1  UNL1        0.0091
     18 C          -2.9024  -18.2208   19.4087 C.ar    1  UNL1        0.0300
     19 C          -1.4678  -17.9407   19.0720 C.ar    1  UNL1        0.1672
     20 F          -1.0495  -17.7882   17.6395 F       1  UNL1       -0.2018
     21 C          -0.4513  -17.8133   20.1677 C.ar    1  UNL1        0.1696
     22 F           0.9833  -17.5333   19.8310 F       1  UNL1       -0.2017
     23 C          -0.8696  -17.9658   21.6001 C.ar    1  UNL1        0.0612
     24 C          -2.3042  -18.2459   21.9368 C.ar    1  UNL1        0.1386
     25 F          -2.7224  -18.3984   23.3693 F       1  UNL1       -0.2044
     26 C         -14.4483  -18.0742   24.6789 C.3     1  UNL1        0.1816
     27 S         -13.0982  -18.3585   24.0902 S.O2    1  UNL1        0.0105
     28 O         -13.5603  -17.8179   22.7695 O.2     1  UNL1       -0.1686
     29 O         -12.6362  -18.8990   25.4110 O.2     1  UNL1       -0.1686
@<TRIPOS>BOND
     1    26    27    1
     2    27    28    2
     3    27    29    2
     4    27     1    1
     5     1     2   ar
     6     2     3   ar
     7     3     4   ar
     8     4     5   ar
     9     5     6   ar
    10     5     7   ar
    11     7     8   ar
    12     8     9   ar
    13     9    10    1
    14    10    11    1
    15    11    12    1
    16    11    13    1
    17    13    17    1
    18    17    18   ar
    19    18    19   ar
    20    19    20    1
    21    19    21   ar
    22    21    22    1
    23    21    23   ar
    24    23    24   ar
    25    24    25    1
    26    13    14    1
    27     6     1   ar
    28    14     8    1
    29     9     4   ar
    30    24    17   ar
    31    12    15    1
    32    12    16    1
@<TRIPOS>MOLECULE
*****
 29 32 0 0 0
SMALL
GASTEIGER

@<TRIPOS>ATOM
      1 C           1.4121    1.5938   29.3390 C.ar    1  UNL1        0.1073
      2 C           0.1592    2.0456   28.6492 C.ar    1  UNL1        0.0199
      3 C           0.0348    1.9167   27.1599 C.ar    1  UNL1        0.0201
      4 C           1.1634    1.3360   26.3605 C.ar    1  UNL1        0.0787
      5 C           2.4163    0.8842   27.0504 C.ar    1  UNL1        0.0996
      6 C           2.5407    1.0132   28.5396 C.ar    1  UNL1        0.0389
      7 N           3.3550    0.3549   26.0069 N.ar    1  UNL1       -0.2309
      8 C           2.6821    0.4796   24.6721 C.ar    1  UNL1        0.1207
      9 N           1.3276    1.0860   24.8907 N.ar    1  UNL1       -0.3135
     10 C           0.4188    1.3321   23.7230 C.3     1  UNL1        0.1229
     11 C           0.8644    0.9718   22.3367 C.3     1  UNL1        0.0783
     12 N          -0.0444    1.2179   21.1691 N.3     1  UNL1       -0.3204
     13 C           2.2189    0.3655   22.1181 C.3     1  UNL1        0.0482
     14 C           3.1277    0.1194   23.2859 C.3     1  UNL1        0.0698
     15 H          -0.9167    1.6315   21.4984 H       1  UNL1        0.1189
     16 H          -0.2429    0.3340   20.7004 H       1  UNL1        0.1189
     17 C           2.6645    0.0053   20.7319 C.ar    1  UNL1        0.0091
     18 C           2.8775   -1.4329   20.3625 C.ar    1  UNL1        0.0300
     19 C           3.3231   -1.7931   18.9763 C.ar    1  UNL1        0.1672
     20 F           3.5360   -3.2313   18.6069 F       1  UNL1       -0.2018
     21 C           3.5558   -0.7152   17.9595 C.ar    1  UNL1        0.1696
     22 F           4.0014   -1.0754   16.5733 F       1  UNL1       -0.2017
     23 C           3.3429    0.7230   18.3289 C.ar    1  UNL1        0.0612
     24 C           2.8972    1.0832   19.7151 C.ar    1  UNL1        0.1386
     25 F           2.6843    2.5213   20.0845 F       1  UNL1       -0.2044
     26 C           1.6609    1.8517   32.3176 C.3     1  UNL1        0.1816
     27 S           1.5365    1.7228   30.8283 S.O2    1  UNL1        0.0105
     28 O           2.9781    2.1076   30.6746 O.2     1  UNL1       -0.1686
     29 O           0.0949    1.3379   30.9820 O.2     1  UNL1       -0.1686
@<TRIPOS>BOND
     1    26    27    1
     2    27    28    2
     3    27    29    2
     4    27     1    1
     5     1     2   ar
     6     2     3   ar
     7     3     4   ar
     8     4     5   ar
     9     5     6   ar
    10     5     7   ar
    11     7     8   ar
    12     8     9   ar
    13     9    10    1
    14    10    11    1
    15    11    12    1
    16    11    13    1
    17    13    17    1
    18    17    18   ar
    19    18    19   ar
    20    19    20    1
    21    19    21   ar
    22    21    22    1
    23    21    23   ar
    24    23    24   ar
    25    24    25    1
    26    13    14    1
    27     6     1   ar
    28    14     8    1
    29     9     4   ar
    30    24    17   ar
    31    12    15    1
    32    12    16    1
@<TRIPOS>MOLECULE
*****
 29 32 0 0 0
SMALL
GASTEIGER

@<TRIPOS>ATOM
      1 C           7.7495   -4.5066   24.2822 C.ar    1  UNL1        0.1073
      2 C           7.6864   -5.7564   25.1093 C.ar    1  UNL1        0.0199
      3 C           7.4428   -5.6665   26.5867 C.ar    1  UNL1        0.0201
      4 C           7.2624   -4.3269   27.2369 C.ar    1  UNL1        0.0787
      5 C           7.3256   -3.0771   26.4098 C.ar    1  UNL1        0.0996
      6 C           7.5691   -3.1670   24.9324 C.ar    1  UNL1        0.0389
      7 N           7.1123   -1.9059   27.3224 N.ar    1  UNL1       -0.2309
      8 C           6.9173   -2.4319   28.7136 C.ar    1  UNL1        0.1207
      9 N           7.0101   -3.9281   28.6607 N.ar    1  UNL1       -0.3135
     10 C           6.8529   -4.7341   29.9160 C.3     1  UNL1        0.1229
     11 C           6.6029   -4.0439   31.2241 C.3     1  UNL1        0.0783
     12 N           6.4456   -4.8500   32.4794 N.3     1  UNL1       -0.3204
     13 C           6.5101   -2.5477   31.2770 C.3     1  UNL1        0.0482
     14 C           6.6673   -1.7417   30.0217 C.3     1  UNL1        0.0698
     15 H           6.5369   -5.8419   32.2601 H       1  UNL1        0.1189
     16 H           5.5256   -4.6743   32.8832 H       1  UNL1        0.1189
     17 C           6.2600   -1.8575   32.5851 C.ar    1  UNL1        0.0091
     18 C           7.3869   -1.1707   33.2981 C.ar    1  UNL1        0.0300
     19 C           7.1369   -0.4805   34.6062 C.ar    1  UNL1        0.1672
     20 F           8.2638    0.2063   35.3193 F       1  UNL1       -0.2018
     21 C           5.7600   -0.4772   35.2013 C.ar    1  UNL1        0.1696
     22 F           5.5100    0.2130   36.5093 F       1  UNL1       -0.2017
     23 C           4.6331   -1.1640   34.4882 C.ar    1  UNL1        0.0612
     24 C           4.8831   -1.8542   33.1801 C.ar    1  UNL1        0.1386
     25 F           3.7562   -2.5410   32.4671 F       1  UNL1       -0.2044
     26 C           8.2366   -4.6864   21.3275 C.3     1  UNL1        0.1816
     27 S           7.9930   -4.5965   22.8048 S.O2    1  UNL1        0.0105
     28 O           7.9631   -6.0938   22.8910 O.2     1  UNL1       -0.1686
     29 O           8.0230   -3.0993   22.7187 O.2     1  UNL1       -0.1686
@<TRIPOS>BOND
     1    26    27    1
     2    27    28    2
     3    27    29    2
     4    27     1    1
     5     1     2   ar
     6     2     3   ar
     7     3     4   ar
     8     4     5   ar
     9     5     6   ar
    10     5     7   ar
    11     7     8   ar
    12     8     9   ar
    13     9    10    1
    14    10    11    1
    15    11    12    1
    16    11    13    1
    17    13    17    1
    18    17    18   ar
    19    18    19   ar
    20    19    20    1
    21    19    21   ar
    22    21    22    1
    23    21    23   ar
    24    23    24   ar
    25    24    25    1
    26    13    14    1
    27     6     1   ar
    28    14     8    1
    29     9     4   ar
    30    24    17   ar
    31    12    15    1
    32    12    16    1
@<TRIPOS>MOLECULE
*****
 29 32 0 0 0
SMALL
GASTEIGER

@<TRIPOS>ATOM
      1 C          -2.3895    4.2484   24.9588 C.ar    1  UNL1        0.1073
      2 C          -2.9083    4.4283   23.5630 C.ar    1  UNL1        0.0199
      3 C          -2.2238    3.7477   22.4148 C.ar    1  UNL1        0.0201
      4 C          -1.0205    2.8871   22.6625 C.ar    1  UNL1        0.0787
      5 C          -0.5017    2.7072   24.0584 C.ar    1  UNL1        0.0996
      6 C          -1.1862    3.3878   25.2065 C.ar    1  UNL1        0.0389
      7 N           0.6953    1.8052   23.9954 N.ar    1  UNL1       -0.2309
      8 C           0.9162    1.4278   22.5606 C.ar    1  UNL1        0.1207
      9 N          -0.1442    2.0964   21.7368 N.ar    1  UNL1       -0.3135
     10 C          -0.1749    1.8989   20.2502 C.3     1  UNL1        0.1229
     11 C           0.8548    1.0327   19.5873 C.3     1  UNL1        0.0783
     12 N           0.8241    0.8352   18.1007 N.3     1  UNL1       -0.3204
     13 C           1.9152    0.3641   20.4110 C.3     1  UNL1        0.0482
     14 C           1.9459    0.5616   21.8977 C.3     1  UNL1        0.0698
     15 H           0.0435    1.3585   17.7042 H       1  UNL1        0.1189
     16 H           0.7096   -0.1566   17.8917 H       1  UNL1        0.1189
     17 C           2.9449   -0.5021   19.7481 C.ar    1  UNL1        0.0091
     18 C           2.7563   -1.9895   19.7014 C.ar    1  UNL1        0.0300
     19 C           3.7860   -2.8556   19.0385 C.ar    1  UNL1        0.1672
     20 F           3.5974   -4.3430   18.9919 F       1  UNL1       -0.2018
     21 C           5.0044   -2.2344   18.4223 C.ar    1  UNL1        0.1696
     22 F           6.0341   -3.1005   17.7594 F       1  UNL1       -0.2017
     23 C           5.1930   -0.7470   18.4690 C.ar    1  UNL1        0.0612
     24 C           4.1633    0.1191   19.1319 C.ar    1  UNL1        0.1386
     25 F           4.3519    1.6065   19.1786 F       1  UNL1       -0.2044
     26 C          -3.7584    5.6097   27.2550 C.3     1  UNL1        0.1816
     27 S          -3.0740    4.9291   26.1069 S.O2    1  UNL1        0.0105
     28 O          -2.8599    6.2586   25.4463 O.2     1  UNL1       -0.1686
     29 O          -3.2880    3.5995   26.7675 O.2     1  UNL1       -0.1686
@<TRIPOS>BOND
     1    26    27    1
     2    27    28    2
     3    27    29    2
     4    27     1    1
     5     1     2   ar
     6     2     3   ar
     7     3     4   ar
     8     4     5   ar
     9     5     6   ar
    10     5     7   ar
    11     7     8   ar
    12     8     9   ar
    13     9    10    1
    14    10    11    1
    15    11    12    1
    16    11    13    1
    17    13    17    1
    18    17    18   ar
    19    18    19   ar
    20    19    20    1
    21    19    21   ar
    22    21    22    1
    23    21    23   ar
    24    23    24   ar
    25    24    25    1
    26    13    14    1
    27     6     1   ar
    28    14     8    1
    29     9     4   ar
    30    24    17   ar
    31    12    15    1
    32    12    16    1
@<TRIPOS>MOLECULE
*****
 29 32 0 0 0
SMALL
GASTEIGER

@<TRIPOS>ATOM
      1 C          -2.3878    4.2850   19.8939 C.ar    1  UNL1        0.1073
      2 C          -1.5438    4.6167   18.6991 C.ar    1  UNL1        0.0199
      3 C          -0.3360    3.7863   18.3802 C.ar    1  UNL1        0.0201
      4 C           0.0278    2.6243   19.2561 C.ar    1  UNL1        0.0787
      5 C          -0.8161    2.2926   20.4509 C.ar    1  UNL1        0.0996
      6 C          -2.0239    3.1230   20.7699 C.ar    1  UNL1        0.0389
      7 N          -0.2140    1.0960   21.1261 N.ar    1  UNL1       -0.2309
      8 C           1.0021    0.6883   20.3485 C.ar    1  UNL1        0.1207
      9 N           1.1516    1.6327   19.1928 N.ar    1  UNL1       -0.3135
     10 C           2.2916    1.4679   18.2320 C.3     1  UNL1        0.1229
     11 C           3.2823    0.3585   18.4269 C.3     1  UNL1        0.0783
     12 N           4.4224    0.1937   17.4661 N.3     1  UNL1       -0.3204
     13 C           3.1329   -0.5860   19.5826 C.3     1  UNL1        0.0482
     14 C           1.9927   -0.4211   20.5434 C.3     1  UNL1        0.0698
     15 H           4.3694    0.9165   16.7485 H       1  UNL1        0.1189
     16 H           4.3672   -0.7256   17.0276 H       1  UNL1        0.1189
     17 C           4.1235   -1.6953   19.7776 C.ar    1  UNL1        0.0091
     18 C           3.9105   -3.0182   19.1032 C.ar    1  UNL1        0.0300
     19 C           4.9011   -4.1275   19.2982 C.ar    1  UNL1        0.1672
     20 F           4.6881   -5.4504   18.6238 F       1  UNL1       -0.2018
     21 C           6.1047   -3.9140   20.1674 C.ar    1  UNL1        0.1696
     22 F           7.0953   -5.0233   20.3624 F       1  UNL1       -0.2017
     23 C           6.3178   -2.5911   20.8418 C.ar    1  UNL1        0.0612
     24 C           5.3271   -1.4818   20.6468 C.ar    1  UNL1        0.1386
     25 F           5.5402   -0.1589   21.3212 F       1  UNL1       -0.2044
     26 C          -4.8034    5.9457   20.5318 C.3     1  UNL1        0.1816
     27 S          -3.5956    5.1154   20.2129 S.O2    1  UNL1        0.0105
     28 O          -3.6814    5.5419   18.7773 O.2     1  UNL1       -0.1686
     29 O          -3.5098    4.6888   21.6484 O.2     1  UNL1       -0.1686
@<TRIPOS>BOND
     1    26    27    1
     2    27    28    2
     3    27    29    2
     4    27     1    1
     5     1     2   ar
     6     2     3   ar
     7     3     4   ar
     8     4     5   ar
     9     5     6   ar
    10     5     7   ar
    11     7     8   ar
    12     8     9   ar
    13     9    10    1
    14    10    11    1
    15    11    12    1
    16    11    13    1
    17    13    17    1
    18    17    18   ar
    19    18    19   ar
    20    19    20    1
    21    19    21   ar
    22    21    22    1
    23    21    23   ar
    24    23    24   ar
    25    24    25    1
    26    13    14    1
    27     6     1   ar
    28    14     8    1
    29     9     4   ar
    30    24    17   ar
    31    12    15    1
    32    12    16    1
@<TRIPOS>MOLECULE
*****
 29 32 0 0 0
SMALL
GASTEIGER

@<TRIPOS>ATOM
      1 C          -7.5181    5.3591   24.1515 C.ar    1  UNL1        0.1073
      2 C          -6.4360    5.4704   25.1842 C.ar    1  UNL1        0.0199
      3 C          -5.0398    5.0296   24.8580 C.ar    1  UNL1        0.0201
      4 C          -4.7258    4.4775   23.4992 C.ar    1  UNL1        0.0787
      5 C          -5.8079    4.3662   22.4665 C.ar    1  UNL1        0.0996
      6 C          -7.2041    4.8070   22.7926 C.ar    1  UNL1        0.0389
      7 N          -5.2033    3.7866   21.2220 N.ar    1  UNL1       -0.2309
      8 C          -3.7474    3.5397   21.4857 C.ar    1  UNL1        0.1207
      9 N          -3.4523    3.9667   22.8930 N.ar    1  UNL1       -0.3135
     10 C          -2.0621    3.8353   23.4408 C.3     1  UNL1        0.1229
     11 C          -0.9669    3.2768   22.5812 C.3     1  UNL1        0.0783
     12 N           0.4233    3.1454   23.1290 N.3     1  UNL1       -0.3204
     13 C          -1.2620    2.8498   21.1739 C.3     1  UNL1        0.0482
     14 C          -2.6523    2.9813   20.6261 C.3     1  UNL1        0.0698
     15 H           0.4422    3.4803   24.0922 H       1  UNL1        0.1189
     16 H           1.0655    3.7003   22.5633 H       1  UNL1        0.1189
     17 C          -0.1670    2.2913   20.3143 C.ar    1  UNL1        0.0091
     18 C           0.1912    0.8376   20.4062 C.ar    1  UNL1        0.0300
     19 C           1.2863    0.2792   19.5467 C.ar    1  UNL1        0.1672
     20 F           1.6444   -1.1746   19.6386 F       1  UNL1       -0.2018
     21 C           2.0232    1.1744   18.5952 C.ar    1  UNL1        0.1696
     22 F           3.1183    0.6160   17.7356 F       1  UNL1       -0.2017
     23 C           1.6651    2.6282   18.5032 C.ar    1  UNL1        0.0612
     24 C           0.5700    3.1866   19.3628 C.ar    1  UNL1        0.1386
     25 F           0.2118    4.6404   19.2708 F       1  UNL1       -0.2044
     26 C         -10.3105    6.2406   24.8038 C.3     1  UNL1        0.1816
     27 S          -8.9143    5.7998   24.4776 S.O2    1  UNL1        0.0105
     28 O          -8.3923    7.1414   24.8993 O.2     1  UNL1       -0.1686
     29 O          -9.4363    4.4583   24.0560 O.2     1  UNL1       -0.1686
@<TRIPOS>BOND
     1    26    27    1
     2    27    28    2
     3    27    29    2
     4    27     1    1
     5     1     2   ar
     6     2     3   ar
     7     3     4   ar
     8     4     5   ar
     9     5     6   ar
    10     5     7   ar
    11     7     8   ar
    12     8     9   ar
    13     9    10    1
    14    10    11    1
    15    11    12    1
    16    11    13    1
    17    13    17    1
    18    17    18   ar
    19    18    19   ar
    20    19    20    1
    21    19    21   ar
    22    21    22    1
    23    21    23   ar
    24    23    24   ar
    25    24    25    1
    26    13    14    1
    27     6     1   ar
    28    14     8    1
    29     9     4   ar
    30    24    17   ar
    31    12    15    1
    32    12    16    1
@<TRIPOS>MOLECULE
*****
 29 32 0 0 0
SMALL
GASTEIGER

@<TRIPOS>ATOM
      1 C           5.7193   -2.0632   31.1035 C.ar    1  UNL1        0.1073
      2 C           6.5216   -3.3089   30.8703 C.ar    1  UNL1        0.0199
      3 C           6.7477   -3.8048   29.4728 C.ar    1  UNL1        0.0201
      4 C           6.1715   -3.0549   28.3085 C.ar    1  UNL1        0.0787
      5 C           5.3693   -1.8091   28.5417 C.ar    1  UNL1        0.0996
      6 C           5.1432   -1.3133   29.9392 C.ar    1  UNL1        0.0389
      7 N           4.9292   -1.2846   27.2070 N.ar    1  UNL1       -0.2309
      8 C           5.4594   -2.2062   26.1490 C.ar    1  UNL1        0.1207
      9 N           6.2272   -3.3003   26.8298 N.ar    1  UNL1       -0.3135
     10 C           6.8779   -4.3788   26.0152 C.3     1  UNL1        0.1229
     11 C           6.7608   -4.3631   24.5198 C.3     1  UNL1        0.0783
     12 N           7.4115   -5.4416   23.7052 N.3     1  UNL1       -0.3204
     13 C           5.9930   -3.2690   23.8390 C.3     1  UNL1        0.0482
     14 C           5.3423   -2.1905   24.6537 C.3     1  UNL1        0.0698
     15 H           7.8866   -6.0968   24.3260 H       1  UNL1        0.1189
     16 H           8.0899   -5.0240   23.0682 H       1  UNL1        0.1189
     17 C           5.8759   -3.2533   22.3437 C.ar    1  UNL1        0.0091
     18 C           4.6618   -3.8331   21.6804 C.ar    1  UNL1        0.0300
     19 C           4.5447   -3.8175   20.1851 C.ar    1  UNL1        0.1672
     20 F           3.3307   -4.3973   19.5217 F       1  UNL1       -0.2018
     21 C           5.6416   -3.2220   19.3531 C.ar    1  UNL1        0.1696
     22 F           5.5245   -3.2063   17.8578 F       1  UNL1       -0.2017
     23 C           6.8556   -2.6422   20.0164 C.ar    1  UNL1        0.0612
     24 C           6.9727   -2.6578   21.5117 C.ar    1  UNL1        0.1386
     25 F           8.1868   -2.0780   22.1751 F       1  UNL1       -0.2044
     26 C           5.2671   -1.0715   33.8985 C.3     1  UNL1        0.1816
     27 S           5.4932   -1.5673   32.5010 S.O2    1  UNL1        0.0105
     28 O           6.9223   -1.1171   32.5725 O.2     1  UNL1       -0.1686
     29 O           4.0642   -2.0175   32.4295 O.2     1  UNL1       -0.1686
@<TRIPOS>BOND
     1    26    27    1
     2    27    28    2
     3    27    29    2
     4    27     1    1
     5     1     2   ar
     6     2     3   ar
     7     3     4   ar
     8     4     5   ar
     9     5     6   ar
    10     5     7   ar
    11     7     8   ar
    12     8     9   ar
    13     9    10    1
    14    10    11    1
    15    11    12    1
    16    11    13    1
    17    13    17    1
    18    17    18   ar
    19    18    19   ar
    20    19    20    1
    21    19    21   ar
    22    21    22    1
    23    21    23   ar
    24    23    24   ar
    25    24    25    1
    26    13    14    1
    27     6     1   ar
    28    14     8    1
    29     9     4   ar
    30    24    17   ar
    31    12    15    1
    32    12    16    1
@<TRIPOS>MOLECULE
*****
 29 32 0 0 0
SMALL
GASTEIGER

@<TRIPOS>ATOM
      1 C           6.8387   -4.0178   29.0744 C.ar    1  UNL1        0.1073
      2 C           7.5544   -5.0807   28.2946 C.ar    1  UNL1        0.0199
      3 C           7.5359   -5.0514   26.7950 C.ar    1  UNL1        0.0201
      4 C           6.8017   -3.9593   26.0752 C.ar    1  UNL1        0.0787
      5 C           6.0860   -2.8964   26.8549 C.ar    1  UNL1        0.0996
      6 C           6.1045   -2.9257   28.3545 C.ar    1  UNL1        0.0389
      7 N           5.4515   -1.9521   25.8773 N.ar    1  UNL1       -0.2309
      8 C           5.7751   -2.4314   24.4932 C.ar    1  UNL1        0.1207
      9 N           6.6096   -3.6719   24.6155 N.ar    1  UNL1       -0.3135
     10 C           7.0866   -4.3795   23.3820 C.3     1  UNL1        0.1229
     11 C           6.7293   -3.8467   22.0261 C.3     1  UNL1        0.0783
     12 N           7.2064   -4.5544   20.7925 N.3     1  UNL1       -0.3204
     13 C           5.8948   -2.6063   21.9037 C.3     1  UNL1        0.0482
     14 C           5.4177   -1.8986   23.1374 C.3     1  UNL1        0.0698
     15 H           7.7556   -5.3711   21.0601 H       1  UNL1        0.1189
     16 H           7.7849   -3.9217   20.2399 H       1  UNL1        0.1189
     17 C           5.5374   -2.0734   20.5479 C.ar    1  UNL1        0.0091
     18 C           6.2678   -0.8871   19.9918 C.ar    1  UNL1        0.0300
     19 C           5.9104   -0.3543   18.6360 C.ar    1  UNL1        0.1672
     20 F           6.6408    0.8321   18.0799 F       1  UNL1       -0.2018
     21 C           4.8227   -1.0078   17.8362 C.ar    1  UNL1        0.1696
     22 F           4.4653   -0.4750   16.4804 F       1  UNL1       -0.2017
     23 C           4.0923   -2.1941   18.3923 C.ar    1  UNL1        0.0612
     24 C           4.4497   -2.7270   19.7481 C.ar    1  UNL1        0.1386
     25 F           3.7193   -3.9133   20.3042 F       1  UNL1       -0.2044
     26 C           6.8757   -4.0764   32.0736 C.3     1  UNL1        0.1816
     27 S           6.8572   -4.0471   30.5740 S.O2    1  UNL1        0.0105
     28 O           6.9843   -2.5528   30.6016 O.2     1  UNL1       -0.1686
     29 O           6.7302   -5.5415   30.5463 O.2     1  UNL1       -0.1686
@<TRIPOS>BOND
     1    26    27    1
     2    27    28    2
     3    27    29    2
     4    27     1    1
     5     1     2   ar
     6     2     3   ar
     7     3     4   ar
     8     4     5   ar
     9     5     6   ar
    10     5     7   ar
    11     7     8   ar
    12     8     9   ar
    13     9    10    1
    14    10    11    1
    15    11    12    1
    16    11    13    1
    17    13    17    1
    18    17    18   ar
    19    18    19   ar
    20    19    20    1
    21    19    21   ar
    22    21    22    1
    23    21    23   ar
    24    23    24   ar
    25    24    25    1
    26    13    14    1
    27     6     1   ar
    28    14     8    1
    29     9     4   ar
    30    24    17   ar
    31    12    15    1
    32    12    16    1
