@<TRIPOS>MOLECULE
*****
 23 25 0 0 0
SMALL
GASTEIGER

@<TRIPOS>ATOM
      1 S          -9.0134  -19.0717   20.9405 S.3     1  UNL1       -0.0709
      2 C          -2.6071  -19.0421   20.1904 C.2     1  UNL1        0.1223
      3 C          -2.6139  -19.5181   21.6128 C.2     1  UNL1        0.0343
      4 C          -3.9157  -19.7138   22.3319 C.2     1  UNL1        0.0232
      5 C          -5.2106  -19.4336   21.6286 C.2     1  UNL1        0.0975
      6 N          -6.6385  -19.5342   22.0768 N.2     1  UNL1       -0.2200
      7 C          -7.5142  -19.1205   20.9314 C.2     1  UNL1        0.1901
      8 N          -6.6274  -18.7641   19.7752 N.2     1  UNL1       -0.2236
      9 C          -5.2037  -18.9576   20.2062 C.2     1  UNL1        0.0863
     10 C          -3.9020  -18.7619   19.4871 C.3     1  UNL1        0.1112
     11 C          -0.3301  -17.8137   19.9532 C.3     1  UNL1        0.2520
     12 O          -1.3053  -18.8464   19.4712 O.2     1  UNL1       -0.4753
     13 C          -9.7231  -17.9535   21.6449 C.3     1  UNL1        0.0913
     14 C          -9.1005  -17.3105   22.8485 C.ar    1  UNL1       -0.0109
     15 C          -8.0306  -16.2734   22.6757 C.ar    1  UNL1       -0.0037
     16 C          -7.4080  -15.6303   23.8794 C.ar    1  UNL1       -0.0046
     17 C          -7.8554  -16.0243   25.2559 C.ar    1  UNL1       -0.0228
     18 C          -8.9253  -17.0614   25.4287 C.ar    1  UNL1       -0.0046
     19 C          -9.5478  -17.7044   24.2250 C.ar    1  UNL1       -0.0037
     20 C          -7.2328  -15.3812   26.4596 C.3     1  UNL1        0.0189
     21 C          -8.5235  -15.5335   27.2085 C.3     1  UNL1        0.0044
     22 C          -5.9421  -15.2290   25.7106 C.3     1  UNL1        0.0044
     23 C          -6.6102  -14.7382   27.6632 C.3     1  UNL1        0.0044
@<TRIPOS>BOND
     1    11    12    1
     2    12     2    1
     3     2     3    2
     4     3     4    1
     5     4     5    2
     6     5     6    1
     7     6     7    2
     8     7     1    1
     9     1    13    1
    10    13    14    1
    11    14    15   ar
    12    15    16   ar
    13    16    17   ar
    14    17    20    1
    15    20    21    1
    16    20    22    1
    17    20    23    1
    18    17    18   ar
    19    18    19   ar
    20     7     8    1
    21     8     9    2
    22     9    10    1
    23    10     2    1
    24     9     5    1
    25    19    14   ar
@<TRIPOS>MOLECULE
*****
 23 25 0 0 0
SMALL
GASTEIGER

@<TRIPOS>ATOM
      1 S          -7.5198  -19.8256   20.4627 S.3     1  UNL1       -0.0709
      2 C         -12.8697  -17.6073   23.3020 C.2     1  UNL1        0.1223
      3 C         -12.5194  -16.3417   22.5772 C.2     1  UNL1        0.0343
      4 C         -11.2949  -16.2870   21.7125 C.2     1  UNL1        0.0232
      5 C         -10.4208  -17.4979   21.5727 C.2     1  UNL1        0.0975
      6 N          -9.1602  -17.7417   20.7971 N.2     1  UNL1       -0.2200
      7 C          -8.7315  -19.1580   21.0427 C.2     1  UNL1        0.1901
      8 N          -9.7271  -19.7895   21.9700 N.2     1  UNL1       -0.2236
      9 C         -10.7711  -18.7635   22.2975 C.2     1  UNL1        0.0863
     10 C         -11.9956  -18.8182   23.1622 C.3     1  UNL1        0.1112
     11 C         -14.1002  -18.5072   25.4058 C.3     1  UNL1        0.2520
     12 O         -14.0942  -17.6620   24.1667 O.2     1  UNL1       -0.4753
     13 C          -6.3499  -20.1521   21.3429 C.3     1  UNL1        0.0913
     14 C          -5.0340  -19.4655   21.1268 C.ar    1  UNL1       -0.0109
     15 C          -4.1529  -19.1470   22.2982 C.ar    1  UNL1       -0.0037
     16 C          -2.8369  -18.4603   22.0821 C.ar    1  UNL1       -0.0046
     17 C          -2.4020  -18.0921   20.6945 C.ar    1  UNL1       -0.0228
     18 C          -3.2831  -18.4106   19.5231 C.ar    1  UNL1       -0.0046
     19 C          -4.5991  -19.0973   19.7393 C.ar    1  UNL1       -0.0037
     20 C          -1.0861  -17.4055   20.4783 C.3     1  UNL1        0.0189
     21 C          -1.5452  -16.2580   21.3282 C.3     1  UNL1        0.0044
     22 C          -0.6269  -18.5531   19.6284 C.3     1  UNL1        0.0044
     23 C           0.2299  -16.7188   20.2622 C.3     1  UNL1        0.0044
@<TRIPOS>BOND
     1    11    12    1
     2    12     2    1
     3     2     3    2
     4     3     4    1
     5     4     5    2
     6     5     6    1
     7     6     7    2
     8     7     1    1
     9     1    13    1
    10    13    14    1
    11    14    15   ar
    12    15    16   ar
    13    16    17   ar
    14    17    20    1
    15    20    21    1
    16    20    22    1
    17    20    23    1
    18    17    18   ar
    19    18    19   ar
    20     7     8    1
    21     8     9    2
    22     9    10    1
    23    10     2    1
    24     9     5    1
    25    19    14   ar
@<TRIPOS>MOLECULE
*****
 23 25 0 0 0
SMALL
GASTEIGER

@<TRIPOS>ATOM
      1 S         -10.5175  -19.4016   21.4115 S.3     1  UNL1       -0.0709
      2 C          -4.0730  -19.6164   21.2473 C.2     1  UNL1        0.1223
      3 C          -4.2705  -19.2113   19.8166 C.2     1  UNL1        0.0343
      4 C          -5.6560  -19.0063   19.2796 C.2     1  UNL1        0.0232
      5 C          -6.8440  -19.2063   20.1733 C.2     1  UNL1        0.0975
      6 N          -8.3181  -19.0784   19.9271 N.2     1  UNL1       -0.2200
      7 C          -9.0317  -19.4044   21.2056 C.2     1  UNL1        0.1901
      8 N          -7.9986  -19.7338   22.2420 N.2     1  UNL1       -0.2236
      9 C          -6.6465  -19.6114   21.6040 C.2     1  UNL1        0.0863
     10 C          -5.2610  -19.8164   22.1410 C.3     1  UNL1        0.1112
     11 C          -1.8369  -18.6372   22.1367 C.3     1  UNL1        0.2520
     12 O          -2.6875  -19.8214   21.7843 O.2     1  UNL1       -0.4753
     13 C         -11.1338  -18.4721   22.4146 C.3     1  UNL1        0.0913
     14 C         -10.2723  -17.7984   23.4411 C.ar    1  UNL1       -0.0109
     15 C          -9.5662  -16.5185   23.1044 C.ar    1  UNL1       -0.0037
     16 C          -8.7047  -15.8447   24.1309 C.ar    1  UNL1       -0.0046
     17 C          -8.5493  -16.4508   25.4942 C.ar    1  UNL1       -0.0228
     18 C          -9.2554  -17.7306   25.8310 C.ar    1  UNL1       -0.0046
     19 C         -10.1169  -18.4044   24.8044 C.ar    1  UNL1       -0.0037
     20 C          -7.6878  -15.7770   26.5207 C.3     1  UNL1        0.0189
     21 C          -6.8112  -15.2363   25.4302 C.3     1  UNL1        0.0044
     22 C          -8.5643  -16.3178   27.6113 C.3     1  UNL1        0.0044
     23 C          -6.8262  -15.1032   27.5472 C.3     1  UNL1        0.0044
@<TRIPOS>BOND
     1    11    12    1
     2    12     2    1
     3     2     3    2
     4     3     4    1
     5     4     5    2
     6     5     6    1
     7     6     7    2
     8     7     1    1
     9     1    13    1
    10    13    14    1
    11    14    15   ar
    12    15    16   ar
    13    16    17   ar
    14    17    20    1
    15    20    21    1
    16    20    22    1
    17    20    23    1
    18    17    18   ar
    19    18    19   ar
    20     7     8    1
    21     8     9    2
    22     9    10    1
    23    10     2    1
    24     9     5    1
    25    19    14   ar
@<TRIPOS>MOLECULE
*****
 23 25 0 0 0
SMALL
GASTEIGER

@<TRIPOS>ATOM
      1 S          -5.6573  -15.1825   24.3618 S.3     1  UNL1       -0.0709
      2 C          -1.4986  -18.5809   20.7895 C.2     1  UNL1        0.1223
      3 C          -2.3772  -19.7330   21.1777 C.2     1  UNL1        0.0343
      4 C          -3.5707  -19.5032   22.0568 C.2     1  UNL1        0.0232
      5 C          -3.8856  -18.1212   22.5477 C.2     1  UNL1        0.0975
      6 N          -4.9853  -17.5922   23.4199 N.2     1  UNL1       -0.2200
      7 C          -4.7863  -16.1131   23.5708 C.2     1  UNL1        0.1901
      8 N          -3.5637  -15.7280   22.7918 N.2     1  UNL1       -0.2236
      9 C          -3.0070  -16.9692   22.1595 C.2     1  UNL1        0.0863
     10 C          -1.8135  -17.1990   21.2805 C.3     1  UNL1        0.1112
     11 C           0.7485  -17.7507   19.7840 C.3     1  UNL1        0.2520
     12 O          -0.3051  -18.8108   19.9105 O.2     1  UNL1       -0.4753
     13 C          -6.8124  -15.7248   25.1501 C.3     1  UNL1        0.0913
     14 C          -8.0536  -16.1829   24.4433 C.ar    1  UNL1       -0.0109
     15 C          -9.0286  -17.0808   25.1456 C.ar    1  UNL1       -0.0037
     16 C         -10.2697  -17.5389   24.4388 C.ar    1  UNL1       -0.0046
     17 C         -10.5360  -17.0990   23.0296 C.ar    1  UNL1       -0.0228
     18 C          -9.5611  -16.2011   22.3273 C.ar    1  UNL1       -0.0046
     19 C          -8.3198  -15.7431   23.0342 C.ar    1  UNL1       -0.0037
     20 C         -11.7772  -17.5571   22.3228 C.3     1  UNL1        0.0189
     21 C         -12.3179  -16.1587   22.3660 C.3     1  UNL1        0.0044
     22 C         -11.2364  -18.9556   22.2797 C.3     1  UNL1        0.0044
     23 C         -13.0183  -18.0152   21.6160 C.3     1  UNL1        0.0044
@<TRIPOS>BOND
     1    11    12    1
     2    12     2    1
     3     2     3    2
     4     3     4    1
     5     4     5    2
     6     5     6    1
     7     6     7    2
     8     7     1    1
     9     1    13    1
    10    13    14    1
    11    14    15   ar
    12    15    16   ar
    13    16    17   ar
    14    17    20    1
    15    20    21    1
    16    20    22    1
    17    20    23    1
    18    17    18   ar
    19    18    19   ar
    20     7     8    1
    21     8     9    2
    22     9    10    1
    23    10     2    1
    24     9     5    1
    25    19    14   ar
@<TRIPOS>MOLECULE
*****
 23 25 0 0 0
SMALL
GASTEIGER

@<TRIPOS>ATOM
      1 S          -7.6058  -15.6316   27.1829 S.3     1  UNL1       -0.0709
      2 C         -11.1695  -18.0721   22.3924 C.2     1  UNL1        0.1223
      3 C         -11.2013  -19.2879   23.2702 C.2     1  UNL1        0.0343
      4 C         -10.4914  -19.2777   24.5916 C.2     1  UNL1        0.0232
      5 C          -9.7496  -18.0517   25.0350 C.2     1  UNL1        0.0975
      6 N          -8.9624  -17.7486   26.2753 N.2     1  UNL1       -0.2200
      7 C          -8.4440  -16.3454   26.1639 C.2     1  UNL1        0.1901
      8 N          -8.9109  -15.7813   24.8548 N.2     1  UNL1       -0.2236
      9 C          -9.7179  -16.8359   24.1571 C.2     1  UNL1        0.0863
     10 C         -10.4278  -16.8461   22.8358 C.3     1  UNL1        0.1112
     11 C         -11.4157  -17.1833   19.9635 C.3     1  UNL1        0.2520
     12 O         -11.8795  -18.0823   21.0711 O.2     1  UNL1       -0.4753
     13 C          -6.2645  -15.0814   26.7981 C.3     1  UNL1        0.0913
     14 C          -5.4770  -15.7268   25.6967 C.ar    1  UNL1       -0.0109
     15 C          -4.6440  -16.9411   25.9823 C.ar    1  UNL1       -0.0037
     16 C          -3.8565  -17.5864   24.8809 C.ar    1  UNL1       -0.0046
     17 C          -3.9019  -17.0175   23.4936 C.ar    1  UNL1       -0.0228
     18 C          -4.7349  -15.8032   23.2080 C.ar    1  UNL1       -0.0046
     19 C          -5.5224  -15.1578   24.3095 C.ar    1  UNL1       -0.0037
     20 C          -3.1144  -17.6628   22.3922 C.3     1  UNL1        0.0189
     21 C          -2.3707  -16.3790   22.1717 C.3     1  UNL1        0.0044
     22 C          -3.8581  -18.9467   22.6127 C.3     1  UNL1        0.0044
     23 C          -2.3269  -18.3082   21.2907 C.3     1  UNL1        0.0044
@<TRIPOS>BOND
     1    11    12    1
     2    12     2    1
     3     2     3    2
     4     3     4    1
     5     4     5    2
     6     5     6    1
     7     6     7    2
     8     7     1    1
     9     1    13    1
    10    13    14    1
    11    14    15   ar
    12    15    16   ar
    13    16    17   ar
    14    17    20    1
    15    20    21    1
    16    20    22    1
    17    20    23    1
    18    17    18   ar
    19    18    19   ar
    20     7     8    1
    21     8     9    2
    22     9    10    1
    23    10     2    1
    24     9     5    1
    25    19    14   ar
@<TRIPOS>MOLECULE
*****
 23 25 0 0 0
SMALL
GASTEIGER

@<TRIPOS>ATOM
      1 S          -5.8953  -15.6957   24.6327 S.3     1  UNL1       -0.0709
      2 C         -11.3951  -16.7118   21.4197 C.2     1  UNL1        0.1223
      3 C         -11.7829  -17.4493   22.6669 C.2     1  UNL1        0.0343
      4 C         -10.8223  -17.5372   23.8156 C.2     1  UNL1        0.0232
      5 C          -9.4739  -16.8877   23.7171 C.2     1  UNL1        0.0975
      6 N          -8.3258  -16.8072   24.6791 N.2     1  UNL1       -0.2200
      7 C          -7.2284  -16.0199   24.0264 C.2     1  UNL1        0.1901
      8 N          -7.6982  -15.6139   22.6610 N.2     1  UNL1       -0.2236
      9 C          -9.0861  -16.1502   22.4698 C.2     1  UNL1        0.0863
     10 C         -10.0467  -16.0623   21.3211 C.3     1  UNL1        0.1112
     11 C         -12.0734  -15.6963   19.1265 C.3     1  UNL1        0.2520
     12 O         -12.3557  -16.6239   20.2710 O.2     1  UNL1       -0.4753
     13 C          -4.8118  -16.7327   24.6605 C.3     1  UNL1        0.0913
     14 C          -4.0156  -17.0189   23.4219 C.ar    1  UNL1       -0.0109
     15 C          -4.0118  -18.3993   22.8349 C.ar    1  UNL1       -0.0037
     16 C          -3.2157  -18.6854   21.5963 C.ar    1  UNL1       -0.0046
     17 C          -2.4232  -17.5912   20.9446 C.ar    1  UNL1       -0.0228
     18 C          -2.4270  -16.2107   21.5315 C.ar    1  UNL1       -0.0046
     19 C          -3.2233  -15.9246   22.7702 C.ar    1  UNL1       -0.0037
     20 C          -1.6271  -17.8773   19.7060 C.3     1  UNL1        0.0189
     21 C          -0.4898  -17.0640   20.2491 C.3     1  UNL1        0.0044
     22 C          -2.7644  -18.6907   19.1629 C.3     1  UNL1        0.0044
     23 C          -0.8309  -18.1635   18.4674 C.3     1  UNL1        0.0044
@<TRIPOS>BOND
     1    11    12    1
     2    12     2    1
     3     2     3    2
     4     3     4    1
     5     4     5    2
     6     5     6    1
     7     6     7    2
     8     7     1    1
     9     1    13    1
    10    13    14    1
    11    14    15   ar
    12    15    16   ar
    13    16    17   ar
    14    17    20    1
    15    20    21    1
    16    20    22    1
    17    20    23    1
    18    17    18   ar
    19    18    19   ar
    20     7     8    1
    21     8     9    2
    22     9    10    1
    23    10     2    1
    24     9     5    1
    25    19    14   ar
@<TRIPOS>MOLECULE
*****
 23 25 0 0 0
SMALL
GASTEIGER

@<TRIPOS>ATOM
      1 S          -6.7238  -14.9310   27.1048 S.3     1  UNL1       -0.0709
      2 C          -3.0211  -16.6045   22.0954 C.2     1  UNL1        0.1223
      3 C          -2.7783  -17.8391   22.9119 C.2     1  UNL1        0.0343
      4 C          -3.4323  -17.9919   24.2532 C.2     1  UNL1        0.0232
      5 C          -4.3292  -16.9101   24.7779 C.2     1  UNL1        0.0975
      6 N          -5.1057  -16.7815   26.0548 N.2     1  UNL1       -0.2200
      7 C          -5.8284  -15.4673   26.0274 C.2     1  UNL1        0.1901
      8 N          -5.4986  -14.7838   24.7336 N.2     1  UNL1       -0.2236
      9 C          -4.5720  -15.6755   23.9614 C.2     1  UNL1        0.0863
     10 C          -3.9179  -15.5227   22.6201 C.3     1  UNL1        0.1112
     11 C          -2.0828  -17.6628   19.9161 C.3     1  UNL1        0.2520
     12 O          -2.3671  -16.4517   20.7542 O.2     1  UNL1       -0.4753
     13 C          -8.1394  -15.4151   27.2136 C.3     1  UNL1        0.0913
     14 C          -8.7314  -16.2537   26.1198 C.ar    1  UNL1       -0.0109
     15 C          -8.9221  -15.6737   24.7497 C.ar    1  UNL1       -0.0037
     16 C          -9.5141  -16.5123   23.6560 C.ar    1  UNL1       -0.0046
     17 C          -9.9153  -17.9310   23.9324 C.ar    1  UNL1       -0.0228
     18 C          -9.7246  -18.5110   25.3025 C.ar    1  UNL1       -0.0046
     19 C          -9.1326  -17.6724   26.3962 C.ar    1  UNL1       -0.0037
     20 C         -10.5073  -18.7696   22.8387 C.3     1  UNL1        0.0189
     21 C          -9.2535  -19.5914   22.7901 C.3     1  UNL1        0.0044
     22 C         -11.7612  -17.9477   22.8873 C.3     1  UNL1        0.0044
     23 C         -11.0993  -19.6082   21.7449 C.3     1  UNL1        0.0044
@<TRIPOS>BOND
     1    11    12    1
     2    12     2    1
     3     2     3    2
     4     3     4    1
     5     4     5    2
     6     5     6    1
     7     6     7    2
     8     7     1    1
     9     1    13    1
    10    13    14    1
    11    14    15   ar
    12    15    16   ar
    13    16    17   ar
    14    17    20    1
    15    20    21    1
    16    20    22    1
    17    20    23    1
    18    17    18   ar
    19    18    19   ar
    20     7     8    1
    21     8     9    2
    22     9    10    1
    23    10     2    1
    24     9     5    1
    25    19    14   ar
@<TRIPOS>MOLECULE
*****
 23 25 0 0 0
SMALL
GASTEIGER

@<TRIPOS>ATOM
      1 S          -5.3074  -15.9094   24.6318 S.3     1  UNL1       -0.0709
      2 C         -11.3780  -16.5438   22.5461 C.2     1  UNL1        0.1223
      3 C         -10.8350  -15.8947   21.3077 C.2     1  UNL1        0.0343
      4 C          -9.3877  -15.5072   21.2370 C.2     1  UNL1        0.0232
      5 C          -8.4832  -15.7690   22.4046 C.2     1  UNL1        0.0975
      6 N          -7.0241  -15.4994   22.6243 N.2     1  UNL1       -0.2200
      7 C          -6.6653  -15.9820   23.9984 C.2     1  UNL1        0.1901
      8 N          -7.9026  -16.5498   24.6281 N.2     1  UNL1       -0.2236
      9 C          -9.0262  -16.4182   23.6430 C.2     1  UNL1        0.0863
     10 C         -10.4736  -16.8056   23.7138 C.3     1  UNL1        0.1112
     11 C         -13.3203  -18.1250   21.8554 C.3     1  UNL1        0.2520
     12 O         -12.8254  -16.9312   22.6169 O.2     1  UNL1       -0.4753
     13 C          -4.3255  -17.0255   24.4308 C.3     1  UNL1        0.0913
     14 C          -3.6651  -17.2123   23.0970 C.ar    1  UNL1       -0.0109
     15 C          -2.7267  -16.1667   22.5717 C.ar    1  UNL1       -0.0037
     16 C          -2.0663  -16.3535   21.2379 C.ar    1  UNL1       -0.0046
     17 C          -2.3444  -17.5861   20.4294 C.ar    1  UNL1       -0.0228
     18 C          -3.2828  -18.6317   20.9547 C.ar    1  UNL1       -0.0046
     19 C          -3.9432  -18.4448   22.2886 C.ar    1  UNL1       -0.0037
     20 C          -1.6840  -17.7729   19.0957 C.3     1  UNL1        0.0189
     21 C          -2.9452  -17.3375   18.4102 C.3     1  UNL1        0.0044
     22 C          -0.4228  -18.2084   19.7812 C.3     1  UNL1        0.0044
     23 C          -1.0237  -17.9597   17.7619 C.3     1  UNL1        0.0044
@<TRIPOS>BOND
     1    11    12    1
     2    12     2    1
     3     2     3    2
     4     3     4    1
     5     4     5    2
     6     5     6    1
     7     6     7    2
     8     7     1    1
     9     1    13    1
    10    13    14    1
    11    14    15   ar
    12    15    16   ar
    13    16    17   ar
    14    17    20    1
    15    20    21    1
    16    20    22    1
    17    20    23    1
    18    17    18   ar
    19    18    19   ar
    20     7     8    1
    21     8     9    2
    22     9    10    1
    23    10     2    1
    24     9     5    1
    25    19    14   ar
@<TRIPOS>MOLECULE
*****
 23 25 0 0 0
SMALL
GASTEIGER

@<TRIPOS>ATOM
      1 S         -12.1810   -6.6065   19.0112 S.3     1  UNL1       -0.0709
      2 C         -12.0736   -0.2538   17.8994 C.2     1  UNL1        0.1223
      3 C         -10.9083   -0.6041   17.0223 C.2     1  UNL1        0.0343
      4 C         -10.4656   -2.0319   16.8982 C.2     1  UNL1        0.0232
      5 C         -11.1881   -3.1094   17.6511 C.2     1  UNL1        0.0975
      6 N         -10.9817   -4.5932   17.7253 N.2     1  UNL1       -0.2200
      7 C         -12.0194   -5.1601   18.6482 C.2     1  UNL1        0.1901
      8 N         -12.8673   -4.0265   19.1444 N.2     1  UNL1       -0.2236
      9 C         -12.3534   -2.7591   18.5281 C.2     1  UNL1        0.0863
     10 C         -12.7962   -1.3313   18.6523 C.3     1  UNL1        0.1112
     11 C         -12.5536    2.0558   16.8107 C.3     1  UNL1        0.2520
     12 O         -12.5164    1.1739   18.0235 O.2     1  UNL1       -0.4753
     13 C         -12.9214   -7.5323   18.0921 C.3     1  UNL1        0.0913
     14 C         -14.3409   -7.9116   18.3938 C.ar    1  UNL1       -0.0109
     15 C         -14.8752   -9.2381   17.9409 C.ar    1  UNL1       -0.0037
     16 C         -16.2947   -9.6174   18.2426 C.ar    1  UNL1       -0.0046
     17 C         -17.1800   -8.6703   18.9971 C.ar    1  UNL1       -0.0228
     18 C         -16.6458   -7.3438   19.4499 C.ar    1  UNL1       -0.0046
     19 C         -15.2262   -6.9645   19.1482 C.ar    1  UNL1       -0.0037
     20 C         -18.5995   -9.0497   19.2987 C.3     1  UNL1        0.0189
     21 C         -18.6412   -8.0241   20.3924 C.3     1  UNL1        0.0044
     22 C         -18.5578  -10.0753   18.2049 C.3     1  UNL1        0.0044
     23 C         -20.0191   -9.4290   19.6003 C.3     1  UNL1        0.0044
@<TRIPOS>BOND
     1    11    12    1
     2    12     2    1
     3     2     3    2
     4     3     4    1
     5     4     5    2
     6     5     6    1
     7     6     7    2
     8     7     1    1
     9     1    13    1
    10    13    14    1
    11    14    15   ar
    12    15    16   ar
    13    16    17   ar
    14    17    20    1
    15    20    21    1
    16    20    22    1
    17    20    23    1
    18    17    18   ar
    19    18    19   ar
    20     7     8    1
    21     8     9    2
    22     9    10    1
    23    10     2    1
    24     9     5    1
    25    19    14   ar
