@<TRIPOS>MOLECULE
*****
 30 32 0 0 0
SMALL
GASTEIGER

@<TRIPOS>ATOM
      1 O          -9.5052  -16.3647   20.7986 O.3     1  UNL1       -0.3470
      2 C          -9.3942  -15.4078   21.9483 C.3     1  UNL1        0.1875
      3 C          -5.9775  -16.0772   23.8531 C.ar    1  UNL1        0.0806
      4 C          -6.4619  -16.2082   25.2666 C.ar    1  UNL1        0.0230
      5 C          -7.9238  -16.0724   25.5741 C.ar    1  UNL1        0.0742
      6 C          -8.9012  -15.8056   24.4680 C.ar    1  UNL1        0.0211
      7 C          -8.4168  -15.6746   23.0545 C.ar    1  UNL1        0.0887
      8 N          -6.9549  -15.8104   22.7470 N.ar    1  UNL1       -0.2472
      9 C          -8.4082  -16.2034   26.9877 C.3     1  UNL1        0.4187
     10 F          -8.8926  -16.3344   28.4012 F       1  UNL1       -0.1659
     11 F          -9.0657  -17.5064   26.6416 F       1  UNL1       -0.1659
     12 F          -7.7506  -14.9004   27.3338 F       1  UNL1       -0.1659
     13 C          -2.4856  -17.6877   22.8721 C.3     1  UNL1        0.0307
     14 C          -3.9474  -17.5520   23.1796 C.2     1  UNL1       -0.0242
     15 C          -4.5156  -16.2129   23.5456 C.2     1  UNL1        0.0145
     16 C         -10.5717  -17.4197   20.8010 C.3     1  UNL1        0.1467
     17 C         -10.8390  -18.2130   22.0456 C.3     1  UNL1        0.0489
     18 C         -12.0371  -17.3106   22.0496 C.3     1  UNL1        0.0238
     19 C         -13.0542  -17.4192   23.1467 C.3     1  UNL1        0.0725
     20 N         -12.8732  -18.4303   24.2398 N.3     1  UNL1       -0.2715
     21 C         -13.8903  -18.5389   25.3369 C.3     1  UNL1        0.0896
     22 C         -11.6751  -19.3328   24.2358 C.3     1  UNL1        0.0725
     23 C         -10.6579  -19.2242   23.1387 C.3     1  UNL1        0.0238
     24 C          -9.5480  -18.8400   21.6093 C.ar    1  UNL1       -0.0202
     25 C          -8.4564  -19.0824   22.6092 C.ar    1  UNL1       -0.0019
     26 C          -7.1654  -19.7094   22.1729 C.ar    1  UNL1        0.0293
     27 C          -6.9660  -20.0939   20.7368 C.ar    1  UNL1        0.1401
     28 F          -5.6751  -20.7208   20.3005 F       1  UNL1       -0.2042
     29 C          -8.0576  -19.8514   19.7369 C.ar    1  UNL1        0.0293
     30 C          -9.3486  -19.2245   20.1733 C.ar    1  UNL1       -0.0019
@<TRIPOS>BOND
     1    13    14    1
     2    14    15    2
     3    15     3    1
     4     3     4   ar
     5     4     5   ar
     6     5     9    1
     7     9    10    1
     8     9    11    1
     9     9    12    1
    10     5     6   ar
    11     6     7   ar
    12     7     2    1
    13     2     1    1
    14     1    16    1
    15    16    17    1
    16    17    24    1
    17    24    25   ar
    18    25    26   ar
    19    26    27   ar
    20    27    28    1
    21    27    29   ar
    22    29    30   ar
    23    17    18    1
    24    18    19    1
    25    19    20    1
    26    20    21    1
    27    20    22    1
    28    22    23    1
    29     7     8   ar
    30     8     3   ar
    31    23    17    1
    32    30    24   ar
@<TRIPOS>MOLECULE
*****
 30 32 0 0 0
SMALL
GASTEIGER

@<TRIPOS>ATOM
      1 O          -8.0903  -19.2778   21.5958 O.3     1  UNL1       -0.3470
      2 C          -6.7473  -19.8648   21.9148 C.3     1  UNL1        0.1875
      3 C          -3.0984  -18.3067   22.0061 C.ar    1  UNL1        0.0806
      4 C          -3.3016  -17.1646   22.9571 C.ar    1  UNL1        0.0230
      5 C          -4.6533  -16.9225   23.5606 C.ar    1  UNL1        0.0742
      6 C          -5.8019  -17.8226   23.2132 C.ar    1  UNL1        0.0211
      7 C          -5.5987  -18.9647   22.2623 C.ar    1  UNL1        0.0887
      8 N          -4.2470  -19.2067   21.6587 N.ar    1  UNL1       -0.2472
      9 C          -4.8565  -15.7804   24.5116 C.3     1  UNL1        0.4187
     10 F          -5.0596  -14.6383   25.4625 F       1  UNL1       -0.1659
     11 F          -4.7126  -16.7206   25.6714 F       1  UNL1       -0.1659
     12 F          -5.0004  -14.8402   23.3517 F       1  UNL1       -0.1659
     13 C           0.1792  -17.8047   19.8255 C.3     1  UNL1        0.0307
     14 C          -1.1726  -17.5626   20.4290 C.2     1  UNL1       -0.0242
     15 C          -1.7467  -18.5487   21.4026 C.2     1  UNL1        0.0145
     16 C          -8.9508  -18.7319   22.6965 C.3     1  UNL1        0.1467
     17 C          -9.8668  -17.5747   22.4285 C.3     1  UNL1        0.0489
     18 C          -9.9746  -18.3007   21.1204 C.3     1  UNL1        0.0238
     19 C         -10.8506  -17.7570   20.0309 C.3     1  UNL1        0.0725
     20 N         -11.6187  -16.4873   20.2495 N.3     1  UNL1       -0.2715
     21 C         -12.4946  -15.9436   19.1599 C.3     1  UNL1        0.0896
     22 C         -11.5109  -15.7613   21.5576 C.3     1  UNL1        0.0725
     23 C         -10.6350  -16.3050   22.6472 C.3     1  UNL1        0.0238
     24 C          -9.4409  -17.2506   23.8298 C.ar    1  UNL1       -0.0202
     25 C          -9.7203  -18.2182   24.9414 C.ar    1  UNL1       -0.0019
     26 C          -9.2943  -17.8941   26.3427 C.ar    1  UNL1        0.0293
     27 C          -8.5890  -16.6024   26.6323 C.ar    1  UNL1        0.1401
     28 F          -8.1630  -16.2782   28.0335 F       1  UNL1       -0.2042
     29 C          -8.3096  -15.6347   25.5207 C.ar    1  UNL1        0.0293
     30 C          -8.7355  -15.9589   24.1195 C.ar    1  UNL1       -0.0019
@<TRIPOS>BOND
     1    13    14    1
     2    14    15    2
     3    15     3    1
     4     3     4   ar
     5     4     5   ar
     6     5     9    1
     7     9    10    1
     8     9    11    1
     9     9    12    1
    10     5     6   ar
    11     6     7   ar
    12     7     2    1
    13     2     1    1
    14     1    16    1
    15    16    17    1
    16    17    24    1
    17    24    25   ar
    18    25    26   ar
    19    26    27   ar
    20    27    28    1
    21    27    29   ar
    22    29    30   ar
    23    17    18    1
    24    18    19    1
    25    19    20    1
    26    20    21    1
    27    20    22    1
    28    22    23    1
    29     7     8   ar
    30     8     3   ar
    31    23    17    1
    32    30    24   ar
@<TRIPOS>MOLECULE
*****
 30 32 0 0 0
SMALL
GASTEIGER

@<TRIPOS>ATOM
      1 O          -5.9473  -18.6507   21.4513 O.3     1  UNL1       -0.3470
      2 C          -7.2764  -19.2667   21.7739 C.3     1  UNL1        0.1875
      3 C          -9.1648  -16.6010   24.0274 C.ar    1  UNL1        0.0806
      4 C         -10.5668  -16.7360   23.5114 C.ar    1  UNL1        0.0230
      5 C         -10.8720  -17.7146   22.4163 C.ar    1  UNL1        0.0742
      6 C          -9.7752  -18.5581   21.8371 C.ar    1  UNL1        0.0211
      7 C          -8.3732  -18.4231   22.3531 C.ar    1  UNL1        0.0887
      8 N          -8.0681  -17.4446   23.4482 N.ar    1  UNL1       -0.2472
      9 C         -12.2740  -17.8495   21.9003 C.3     1  UNL1        0.4187
     10 F         -13.6759  -17.9846   21.3844 F       1  UNL1       -0.1659
     11 F         -11.8488  -19.0085   21.0484 F       1  UNL1       -0.1659
     12 F         -12.6992  -16.6906   22.7523 F       1  UNL1       -0.1659
     13 C          -8.3875  -15.1252   27.6285 C.3     1  UNL1        0.0307
     14 C          -8.6927  -16.1038   26.5333 C.2     1  UNL1       -0.0242
     15 C          -8.8597  -15.6225   25.1225 C.2     1  UNL1        0.0145
     16 C          -4.8527  -18.6488   22.4771 C.3     1  UNL1        0.1467
     17 C          -3.5803  -17.8992   22.2146 C.3     1  UNL1        0.0489
     18 C          -3.4954  -18.9412   21.1390 C.3     1  UNL1        0.0238
     19 C          -2.3210  -18.9622   20.2061 C.3     1  UNL1        0.0725
     20 N          -1.2314  -17.9411   20.3489 N.3     1  UNL1       -0.2715
     21 C          -0.0570  -17.9621   19.4160 C.3     1  UNL1        0.0896
     22 C          -1.3163  -16.8992   21.4246 C.3     1  UNL1        0.0725
     23 C          -2.4907  -16.8782   22.3574 C.3     1  UNL1        0.0238
     24 C          -4.1071  -17.1176   23.3815 C.ar    1  UNL1       -0.0202
     25 C          -4.8509  -15.8356   23.1509 C.ar    1  UNL1       -0.0019
     26 C          -5.3778  -15.0539   24.3177 C.ar    1  UNL1        0.0293
     27 C          -5.1608  -15.5542   25.7151 C.ar    1  UNL1        0.1401
     28 F          -5.6876  -14.7726   26.8819 F       1  UNL1       -0.2042
     29 C          -4.4169  -16.8363   25.9456 C.ar    1  UNL1        0.0293
     30 C          -3.8901  -17.6179   24.7788 C.ar    1  UNL1       -0.0019
@<TRIPOS>BOND
     1    13    14    1
     2    14    15    2
     3    15     3    1
     4     3     4   ar
     5     4     5   ar
     6     5     9    1
     7     9    10    1
     8     9    11    1
     9     9    12    1
    10     5     6   ar
    11     6     7   ar
    12     7     2    1
    13     2     1    1
    14     1    16    1
    15    16    17    1
    16    17    24    1
    17    24    25   ar
    18    25    26   ar
    19    26    27   ar
    20    27    28    1
    21    27    29   ar
    22    29    30   ar
    23    17    18    1
    24    18    19    1
    25    19    20    1
    26    20    21    1
    27    20    22    1
    28    22    23    1
    29     7     8   ar
    30     8     3   ar
    31    23    17    1
    32    30    24   ar
@<TRIPOS>MOLECULE
*****
 30 32 0 0 0
SMALL
GASTEIGER

@<TRIPOS>ATOM
      1 O          -5.7369  -19.3753   21.8356 O.3     1  UNL1       -0.3470
      2 C          -7.0882  -19.8525   22.2787 C.3     1  UNL1        0.1875
      3 C         -10.5836  -18.2775   23.3042 C.ar    1  UNL1        0.0806
      4 C         -10.4987  -16.9384   22.6339 C.ar    1  UNL1        0.0230
      5 C          -9.2769  -16.5705   21.8452 C.ar    1  UNL1        0.0742
      6 C          -8.1401  -17.5419   21.7268 C.ar    1  UNL1        0.0211
      7 C          -8.2250  -18.8811   22.3971 C.ar    1  UNL1        0.0887
      8 N          -9.4468  -19.2489   23.1858 N.ar    1  UNL1       -0.2472
      9 C          -9.1920  -15.2312   21.1749 C.3     1  UNL1        0.4187
     10 F          -9.1071  -13.8920   20.5047 F       1  UNL1       -0.1659
     11 F          -7.9097  -14.9495   21.9003 F       1  UNL1       -0.1659
     12 F         -10.4743  -15.5130   20.4495 F       1  UNL1       -0.1659
     13 C         -14.3253  -18.3066   24.6264 C.3     1  UNL1        0.0307
     14 C         -13.1036  -17.9388   23.8377 C.2     1  UNL1       -0.0242
     15 C         -11.8053  -18.6454   24.0929 C.2     1  UNL1        0.0145
     16 C          -4.7383  -18.9032   22.8505 C.3     1  UNL1        0.1467
     17 C          -3.6451  -17.9597   22.4446 C.3     1  UNL1        0.0489
     18 C          -3.4261  -19.0573   21.4459 C.3     1  UNL1        0.0238
     19 C          -2.3219  -18.9440   20.4371 C.3     1  UNL1        0.0725
     20 N          -1.4366  -17.7331   20.4269 N.3     1  UNL1       -0.2715
     21 C          -0.3324  -17.6198   19.4181 C.3     1  UNL1        0.0896
     22 C          -1.6556  -16.6355   21.4256 C.3     1  UNL1        0.0725
     23 C          -2.7599  -16.7488   22.4344 C.3     1  UNL1        0.0238
     24 C          -4.2438  -17.1898   23.5843 C.ar    1  UNL1       -0.0202
     25 C          -5.2478  -16.1087   23.3136 C.ar    1  UNL1       -0.0019
     26 C          -5.8465  -15.3388   24.4533 C.ar    1  UNL1        0.0293
     27 C          -5.4412  -15.6500   25.8635 C.ar    1  UNL1        0.1401
     28 F          -6.0399  -14.8801   27.0032 F       1  UNL1       -0.2042
     29 C          -4.4372  -16.7312   26.1342 C.ar    1  UNL1        0.0293
     30 C          -3.8386  -17.5011   24.9945 C.ar    1  UNL1       -0.0019
@<TRIPOS>BOND
     1    13    14    1
     2    14    15    2
     3    15     3    1
     4     3     4   ar
     5     4     5   ar
     6     5     9    1
     7     9    10    1
     8     9    11    1
     9     9    12    1
    10     5     6   ar
    11     6     7   ar
    12     7     2    1
    13     2     1    1
    14     1    16    1
    15    16    17    1
    16    17    24    1
    17    24    25   ar
    18    25    26   ar
    19    26    27   ar
    20    27    28    1
    21    27    29   ar
    22    29    30   ar
    23    17    18    1
    24    18    19    1
    25    19    20    1
    26    20    21    1
    27    20    22    1
    28    22    23    1
    29     7     8   ar
    30     8     3   ar
    31    23    17    1
    32    30    24   ar
@<TRIPOS>MOLECULE
*****
 30 32 0 0 0
SMALL
GASTEIGER

@<TRIPOS>ATOM
      1 O          -5.0718  -20.1252   21.4521 O.3     1  UNL1       -0.3470
      2 C          -6.2630  -20.1846   20.5426 C.3     1  UNL1        0.1875
      3 C          -9.8992  -18.5989   20.6595 C.ar    1  UNL1        0.0806
      4 C         -10.3152  -18.9464   22.0582 C.ar    1  UNL1        0.0230
      5 C          -9.3804  -19.7066   22.9516 C.ar    1  UNL1        0.0742
      6 C          -8.0297  -20.1194   22.4464 C.ar    1  UNL1        0.0211
      7 C          -7.6138  -19.7719   21.0478 C.ar    1  UNL1        0.0887
      8 N          -8.5485  -19.0116   20.1544 N.ar    1  UNL1       -0.2472
      9 C          -9.7964  -20.0542   24.3503 C.3     1  UNL1        0.4187
     10 F         -10.2124  -20.4017   25.7489 F       1  UNL1       -0.1659
     11 F          -8.9538  -21.2937   24.2929 F       1  UNL1       -0.1659
     12 F         -10.6391  -18.8146   24.4077 F       1  UNL1       -0.1659
     13 C         -12.1259  -15.6578   19.1959 C.3     1  UNL1        0.0307
     14 C         -11.1911  -16.4181   20.0893 C.2     1  UNL1       -0.0242
     15 C         -10.8340  -17.8386   19.7661 C.2     1  UNL1        0.0145
     16 C          -4.9389  -19.0059   22.4419 C.3     1  UNL1        0.1467
     17 C          -3.8816  -17.9589   22.2526 C.3     1  UNL1        0.0489
     18 C          -3.3007  -19.0680   21.4267 C.3     1  UNL1        0.0238
     19 C          -1.9917  -18.8713   20.7211 C.3     1  UNL1        0.0725
     20 N          -1.2637  -17.5654   20.8415 N.3     1  UNL1       -0.2715
     21 C           0.0453  -17.3687   20.1359 C.3     1  UNL1        0.0896
     22 C          -1.8446  -16.4562   21.6675 C.3     1  UNL1        0.0725
     23 C          -3.1535  -16.6529   22.3730 C.3     1  UNL1        0.0238
     24 C          -4.8298  -17.2133   23.1444 C.ar    1  UNL1       -0.0202
     25 C          -6.2878  -17.1454   22.7989 C.ar    1  UNL1       -0.0019
     26 C          -7.2360  -16.3998   23.6906 C.ar    1  UNL1        0.0293
     27 C          -6.7261  -15.7222   24.9278 C.ar    1  UNL1        0.1401
     28 F          -7.6742  -14.9766   25.8195 F       1  UNL1       -0.2042
     29 C          -5.2679  -15.7901   25.2733 C.ar    1  UNL1        0.0293
     30 C          -4.3199  -16.5356   24.3816 C.ar    1  UNL1       -0.0019
@<TRIPOS>BOND
     1    13    14    1
     2    14    15    2
     3    15     3    1
     4     3     4   ar
     5     4     5   ar
     6     5     9    1
     7     9    10    1
     8     9    11    1
     9     9    12    1
    10     5     6   ar
    11     6     7   ar
    12     7     2    1
    13     2     1    1
    14     1    16    1
    15    16    17    1
    16    17    24    1
    17    24    25   ar
    18    25    26   ar
    19    26    27   ar
    20    27    28    1
    21    27    29   ar
    22    29    30   ar
    23    17    18    1
    24    18    19    1
    25    19    20    1
    26    20    21    1
    27    20    22    1
    28    22    23    1
    29     7     8   ar
    30     8     3   ar
    31    23    17    1
    32    30    24   ar
@<TRIPOS>MOLECULE
*****
 30 32 0 0 0
SMALL
GASTEIGER

@<TRIPOS>ATOM
      1 O          -5.8378  -19.1517   21.7550 O.3     1  UNL1       -0.3470
      2 C          -7.2072  -19.5689   22.2028 C.3     1  UNL1        0.1875
      3 C         -10.3112  -17.0961   22.2293 C.ar    1  UNL1        0.0806
      4 C         -10.1637  -16.4706   23.5846 C.ar    1  UNL1        0.0230
      5 C          -9.0307  -16.8778   24.4793 C.ar    1  UNL1        0.0742
      6 C          -8.0452  -17.9106   24.0188 C.ar    1  UNL1        0.0211
      7 C          -8.1927  -18.5361   22.6635 C.ar    1  UNL1        0.0887
      8 N          -9.3257  -18.1288   21.7687 N.ar    1  UNL1       -0.2472
      9 C          -8.8833  -16.2522   25.8347 C.3     1  UNL1        0.4187
     10 F          -8.7359  -15.6267   27.1901 F       1  UNL1       -0.1659
     11 F          -9.0042  -17.6047   26.4721 F       1  UNL1       -0.1659
     12 F          -8.7624  -14.8998   25.1974 F       1  UNL1       -0.1659
     13 C         -12.2930  -15.6227   19.1226 C.3     1  UNL1        0.0307
     14 C         -11.1600  -16.0299   20.0174 C.2     1  UNL1       -0.0242
     15 C         -11.4441  -16.6889   21.3345 C.2     1  UNL1        0.0145
     16 C          -4.7791  -18.8397   22.7708 C.3     1  UNL1        0.1467
     17 C          -3.6213  -17.9604   22.4016 C.3     1  UNL1        0.0489
     18 C          -3.4347  -19.0680   21.4074 C.3     1  UNL1        0.0238
     19 C          -2.2948  -19.0176   20.4337 C.3     1  UNL1        0.0725
     20 N          -1.3414  -17.8597   20.4543 N.3     1  UNL1       -0.2715
     21 C          -0.2015  -17.8094   19.4807 C.3     1  UNL1        0.0896
     22 C          -1.5280  -16.7522   21.4486 C.3     1  UNL1        0.0725
     23 C          -2.6679  -16.8025   22.4222 C.3     1  UNL1        0.0238
     24 C          -4.2100  -17.1582   23.5241 C.ar    1  UNL1       -0.0202
     25 C          -3.9635  -17.5655   24.9466 C.ar    1  UNL1       -0.0019
     26 C          -4.5523  -16.7633   26.0691 C.ar    1  UNL1        0.0293
     27 C          -5.3874  -15.5539   25.7691 C.ar    1  UNL1        0.1401
     28 F          -5.9761  -14.7517   26.8915 F       1  UNL1       -0.2042
     29 C          -5.6338  -15.1467   24.3465 C.ar    1  UNL1        0.0293
     30 C          -5.0451  -15.9489   23.2241 C.ar    1  UNL1       -0.0019
@<TRIPOS>BOND
     1    13    14    1
     2    14    15    2
     3    15     3    1
     4     3     4   ar
     5     4     5   ar
     6     5     9    1
     7     9    10    1
     8     9    11    1
     9     9    12    1
    10     5     6   ar
    11     6     7   ar
    12     7     2    1
    13     2     1    1
    14     1    16    1
    15    16    17    1
    16    17    24    1
    17    24    25   ar
    18    25    26   ar
    19    26    27   ar
    20    27    28    1
    21    27    29   ar
    22    29    30   ar
    23    17    18    1
    24    18    19    1
    25    19    20    1
    26    20    21    1
    27    20    22    1
    28    22    23    1
    29     7     8   ar
    30     8     3   ar
    31    23    17    1
    32    30    24   ar
@<TRIPOS>MOLECULE
*****
 30 32 0 0 0
SMALL
GASTEIGER

@<TRIPOS>ATOM
      1 O          -5.8931  -18.8689   22.0467 O.3     1  UNL1       -0.3470
      2 C          -7.2091  -18.7483   22.7563 C.3     1  UNL1        0.1875
      3 C          -9.9212  -19.1430   19.8861 C.ar    1  UNL1        0.0806
      4 C         -11.0021  -18.2335   20.3904 C.ar    1  UNL1        0.0230
      5 C         -10.8187  -17.4956   21.6834 C.ar    1  UNL1        0.0742
      6 C          -9.5544  -17.6672   22.4720 C.ar    1  UNL1        0.0211
      7 C          -8.4735  -18.5767   21.9677 C.ar    1  UNL1        0.0887
      8 N          -8.6569  -19.3146   20.6747 N.ar    1  UNL1       -0.2472
      9 C         -11.8997  -16.5861   22.1877 C.3     1  UNL1        0.4187
     10 F         -12.9807  -15.6766   22.6920 F       1  UNL1       -0.1659
     11 F         -11.8507  -15.8150   20.9021 F       1  UNL1       -0.1659
     12 F         -11.9488  -17.3572   23.4733 F       1  UNL1       -0.1659
     13 C          -9.2148  -21.5424   16.8048 C.3     1  UNL1        0.0307
     14 C          -9.0314  -20.8044   18.0978 C.2     1  UNL1       -0.0242
     15 C         -10.1047  -19.8810   18.5931 C.2     1  UNL1        0.0145
     16 C          -4.6130  -18.8229   22.8274 C.3     1  UNL1        0.1467
     17 C          -3.5274  -17.8663   22.4320 C.3     1  UNL1        0.0489
     18 C          -3.2865  -18.9605   21.4347 C.3     1  UNL1        0.0238
     19 C          -2.1745  -18.8335   20.4360 C.3     1  UNL1        0.0725
     20 N          -1.3035  -17.6123   20.4347 N.3     1  UNL1       -0.2715
     21 C          -0.1915  -17.4853   19.4360 C.3     1  UNL1        0.0896
     22 C          -1.5444  -16.5181   21.4319 C.3     1  UNL1        0.0725
     23 C          -2.6564  -16.6451   22.4306 C.3     1  UNL1        0.0238
     24 C          -4.1454  -17.1043   23.5667 C.ar    1  UNL1       -0.0202
     25 C          -3.9006  -17.5368   24.9819 C.ar    1  UNL1       -0.0019
     26 C          -4.5186  -16.7748   26.1166 C.ar    1  UNL1        0.0293
     27 C          -5.3814  -15.5803   25.8360 C.ar    1  UNL1        0.1401
     28 F          -5.9995  -14.8183   26.9706 F       1  UNL1       -0.2042
     29 C          -5.6263  -15.1478   24.4206 C.ar    1  UNL1        0.0293
     30 C          -5.0083  -15.9099   23.2861 C.ar    1  UNL1       -0.0019
@<TRIPOS>BOND
     1    13    14    1
     2    14    15    2
     3    15     3    1
     4     3     4   ar
     5     4     5   ar
     6     5     9    1
     7     9    10    1
     8     9    11    1
     9     9    12    1
    10     5     6   ar
    11     6     7   ar
    12     7     2    1
    13     2     1    1
    14     1    16    1
    15    16    17    1
    16    17    24    1
    17    24    25   ar
    18    25    26   ar
    19    26    27   ar
    20    27    28    1
    21    27    29   ar
    22    29    30   ar
    23    17    18    1
    24    18    19    1
    25    19    20    1
    26    20    21    1
    27    20    22    1
    28    22    23    1
    29     7     8   ar
    30     8     3   ar
    31    23    17    1
    32    30    24   ar
@<TRIPOS>MOLECULE
*****
 30 32 0 0 0
SMALL
GASTEIGER

@<TRIPOS>ATOM
      1 O          -8.1130  -19.3883   23.0351 O.3     1  UNL1       -0.3470
      2 C          -9.4458  -19.9997   23.3510 C.3     1  UNL1        0.1875
      3 C         -12.1241  -17.4082   21.9869 C.ar    1  UNL1        0.0806
      4 C         -13.1890  -17.5217   23.0372 C.ar    1  UNL1        0.0230
      5 C         -13.0061  -18.4613   24.1921 C.ar    1  UNL1        0.0742
      6 C         -11.7585  -19.2873   24.2967 C.ar    1  UNL1        0.0211
      7 C         -10.6936  -19.1737   23.2464 C.ar    1  UNL1        0.0887
      8 N         -10.8764  -18.2342   22.0915 N.ar    1  UNL1       -0.2472
      9 C         -14.0711  -18.5748   25.2424 C.3     1  UNL1        0.4187
     10 F         -15.1359  -18.6883   26.2927 F       1  UNL1       -0.1659
     11 F         -13.0173  -18.5828   26.3099 F       1  UNL1       -0.1659
     12 F         -15.1248  -18.5669   24.1750 F       1  UNL1       -0.1659
     13 C         -11.3330  -15.2149   18.7754 C.3     1  UNL1        0.0307
     14 C         -11.1502  -16.1545   19.9303 C.2     1  UNL1       -0.0242
     15 C         -12.3070  -16.4686   20.8320 C.2     1  UNL1        0.0145
     16 C          -7.7457  -19.0837   21.6130 C.3     1  UNL1        0.1467
     17 C          -6.3579  -19.3674   21.1196 C.3     1  UNL1        0.0489
     18 C          -6.0388  -18.5916   22.3631 C.3     1  UNL1        0.0238
     19 C          -4.6101  -18.3346   22.7408 C.3     1  UNL1        0.0725
     20 N          -3.5004  -18.8535   21.8751 N.3     1  UNL1       -0.2715
     21 C          -2.0717  -18.5966   22.2528 C.3     1  UNL1        0.0896
     22 C          -3.8195  -19.6294   20.6316 C.3     1  UNL1        0.0725
     23 C          -5.2482  -19.8863   20.2539 C.3     1  UNL1        0.0238
     24 C          -7.1590  -20.0447   20.0475 C.ar    1  UNL1       -0.0202
     25 C          -8.3981  -19.3913   19.5113 C.ar    1  UNL1       -0.0019
     26 C          -9.1993  -20.0686   18.4391 C.ar    1  UNL1        0.0293
     27 C          -8.7613  -21.3994   17.9033 C.ar    1  UNL1        0.1401
     28 F          -9.5623  -22.0768   16.8312 F       1  UNL1       -0.2042
     29 C          -7.5221  -22.0529   18.4395 C.ar    1  UNL1        0.0293
     30 C          -6.7210  -21.3755   19.5116 C.ar    1  UNL1       -0.0019
@<TRIPOS>BOND
     1    13    14    1
     2    14    15    2
     3    15     3    1
     4     3     4   ar
     5     4     5   ar
     6     5     9    1
     7     9    10    1
     8     9    11    1
     9     9    12    1
    10     5     6   ar
    11     6     7   ar
    12     7     2    1
    13     2     1    1
    14     1    16    1
    15    16    17    1
    16    17    24    1
    17    24    25   ar
    18    25    26   ar
    19    26    27   ar
    20    27    28    1
    21    27    29   ar
    22    29    30   ar
    23    17    18    1
    24    18    19    1
    25    19    20    1
    26    20    21    1
    27    20    22    1
    28    22    23    1
    29     7     8   ar
    30     8     3   ar
    31    23    17    1
    32    30    24   ar
@<TRIPOS>MOLECULE
*****
 30 32 0 0 0
SMALL
GASTEIGER

@<TRIPOS>ATOM
      1 O          -6.1355  -18.3988   21.6373 O.3     1  UNL1       -0.3470
      2 C          -7.4271  -19.0978   21.9424 C.3     1  UNL1        0.1875
      3 C         -10.9491  -17.9928   23.4000 C.ar    1  UNL1        0.0806
      4 C         -10.5222  -17.0845   24.5147 C.ar    1  UNL1        0.0230
      5 C          -9.0636  -16.8472   24.7720 C.ar    1  UNL1        0.0742
      6 C          -8.0319  -17.5183   23.9146 C.ar    1  UNL1        0.0211
      7 C          -8.4588  -18.4267   22.7999 C.ar    1  UNL1        0.0887
      8 N          -9.9174  -18.6639   22.5426 N.ar    1  UNL1       -0.2472
      9 C          -8.6368  -15.9388   25.8868 C.3     1  UNL1        0.4187
     10 F          -8.2099  -15.0304   27.0014 F       1  UNL1       -0.1659
     11 F          -8.5420  -14.7963   24.9194 F       1  UNL1       -0.1659
     12 F          -8.7315  -17.0813   26.8541 F       1  UNL1       -0.1659
     13 C         -14.8444  -18.4287   24.0219 C.3     1  UNL1        0.0307
     14 C         -13.3858  -18.1914   24.2792 C.2     1  UNL1       -0.0242
     15 C         -12.4077  -18.2301   23.1426 C.2     1  UNL1        0.0145
     16 C          -4.9488  -18.5901   22.5348 C.3     1  UNL1        0.1467
     17 C          -3.6712  -17.8556   22.2556 C.3     1  UNL1        0.0489
     18 C          -3.6188  -18.8909   21.1714 C.3     1  UNL1        0.0238
     19 C          -2.4610  -18.9207   20.2182 C.3     1  UNL1        0.0725
     20 N          -1.3555  -17.9153   20.3492 N.3     1  UNL1       -0.2715
     21 C          -0.1977  -17.9451   19.3960 C.3     1  UNL1        0.0896
     22 C          -1.4079  -16.8800   21.4334 C.3     1  UNL1        0.0725
     23 C          -2.5657  -16.8502   22.3866 C.3     1  UNL1        0.0238
     24 C          -4.1673  -17.0754   23.4367 C.ar    1  UNL1       -0.0202
     25 C          -4.8197  -15.7401   23.2331 C.ar    1  UNL1       -0.0019
     26 C          -5.3158  -14.9599   24.4143 C.ar    1  UNL1        0.0293
     27 C          -5.1597  -15.5150   25.7990 C.ar    1  UNL1        0.1401
     28 F          -5.6558  -14.7348   26.9802 F       1  UNL1       -0.2042
     29 C          -4.5073  -16.8503   26.0026 C.ar    1  UNL1        0.0293
     30 C          -4.0112  -17.6305   24.8214 C.ar    1  UNL1       -0.0019
@<TRIPOS>BOND
     1    13    14    1
     2    14    15    2
     3    15     3    1
     4     3     4   ar
     5     4     5   ar
     6     5     9    1
     7     9    10    1
     8     9    11    1
     9     9    12    1
    10     5     6   ar
    11     6     7   ar
    12     7     2    1
    13     2     1    1
    14     1    16    1
    15    16    17    1
    16    17    24    1
    17    24    25   ar
    18    25    26   ar
    19    26    27   ar
    20    27    28    1
    21    27    29   ar
    22    29    30   ar
    23    17    18    1
    24    18    19    1
    25    19    20    1
    26    20    21    1
    27    20    22    1
    28    22    23    1
    29     7     8   ar
    30     8     3   ar
    31    23    17    1
    32    30    24   ar
