@<TRIPOS>MOLECULE
*****
 31 34 0 0 0
SMALL
GASTEIGER

@<TRIPOS>ATOM
      1 N          -8.4121  -18.8973   21.1135 N.am    1  UNL1       -0.2863
      2 C          -7.0805  -18.5508   21.7106 C.2     1  UNL1        0.3047
      3 O          -7.0114  -17.8701   23.0455 O.2     1  UNL1       -0.2525
      4 N          -5.8179  -18.8849   20.9729 N.am    1  UNL1       -0.2683
      5 H          -8.4575  -19.3441   20.2373 H       1  UNL1        0.1512
      6 H          -5.8632  -19.3317   20.0968 H       1  UNL1        0.1564
      7 C         -11.2543  -18.9175   23.8833 C.3     1  UNL1        0.1350
      8 C          -9.9917  -19.2516   23.1456 C.3     1  UNL1        0.0642
      9 C          -9.6747  -18.5632   21.8512 C.3     1  UNL1        0.1020
     10 C         -10.6204  -17.5405   21.2944 C.ar    1  UNL1        0.0319
     11 C         -10.3035  -16.8520   20.0000 C.ar    1  UNL1        0.0300
     12 C         -11.2491  -15.8294   19.4433 C.ar    1  UNL1        0.1401
     13 F         -10.9322  -15.1409   18.1488 F       1  UNL1       -0.2042
     14 C         -12.5117  -15.4953   20.1810 C.ar    1  UNL1        0.0327
     15 C         -12.8287  -16.1838   21.4754 C.ar    1  UNL1        0.0389
     16 C         -11.8830  -17.2064   22.0321 C.ar    1  UNL1        0.1358
     17 O         -12.1999  -17.8949   23.3266 O.3     1  UNL1       -0.4828
     18 C         -13.6771  -18.3801   24.6521 C.3     1  UNL1        0.0037
     19 C         -12.3165  -18.9414   24.9420 C.3     1  UNL1        0.0401
     20 C         -10.6775  -19.9484   24.8077 C.3     1  UNL1        0.0401
     21 C          -9.5243  -20.7966   24.3593 C.3     1  UNL1        0.0037
     22 C          -4.4862  -18.5384   21.5701 C.ar    1  UNL1        0.0516
     23 C          -4.3475  -18.3853   23.0558 C.ar    1  UNL1        0.0147
     24 C          -3.0159  -18.0388   23.6530 C.ar    1  UNL1        0.0013
     25 C          -1.8230  -17.8453   22.7644 C.ar    1  UNL1        0.0016
     26 C          -1.9617  -17.9984   21.2788 C.ar    1  UNL1        0.0204
     27 C          -0.7687  -17.8049   20.3902 C.ar    1  UNL1        0.0989
     28 N          -0.9074  -17.9579   18.9045 N.ar    1  UNL1       -0.2423
     29 C          -2.2391  -18.3045   18.3073 C.ar    1  UNL1        0.0989
     30 C          -3.4321  -18.4980   19.1958 C.ar    1  UNL1        0.0219
     31 C          -3.2933  -18.3449   20.6816 C.ar    1  UNL1        0.0166
@<TRIPOS>BOND
     1    18    19    1
     2    19     7    1
     3     7    20    1
     4    20    21    1
     5     7     8    1
     6     8     9    1
     7     9     1    1
     8     1     2   am
     9     2     3    2
    10     2     4   am
    11     4    22    1
    12    22    23   ar
    13    23    24   ar
    14    24    25   ar
    15    25    26   ar
    16    26    27   ar
    17    27    28   ar
    18    28    29   ar
    19    29    30   ar
    20    30    31   ar
    21     9    10    1
    22    10    11   ar
    23    11    12   ar
    24    12    13    1
    25    12    14   ar
    26    14    15   ar
    27    15    16   ar
    28    16    17    1
    29    17     7    1
    30    31    22   ar
    31    16    10   ar
    32    31    26   ar
    33     1     5    1
    34     4     6    1
@<TRIPOS>MOLECULE
*****
 31 34 0 0 0
SMALL
GASTEIGER

@<TRIPOS>ATOM
      1 N           7.1907   -2.9109   24.8049 N.am    1  UNL1       -0.2863
      2 C           6.2083   -2.8273   23.6745 C.2     1  UNL1        0.3047
      3 O           5.3416   -4.0065   23.3452 O.2     1  UNL1       -0.2525
      4 N           6.0926   -1.5645   22.8732 N.am    1  UNL1       -0.2683
      5 H           7.7595   -2.1370   25.0210 H       1  UNL1        0.1512
      6 H           6.6614   -0.7906   23.0893 H       1  UNL1        0.1564
      7 C           7.7732   -6.7266   25.7275 C.3     1  UNL1        0.1350
      8 C           7.6575   -5.4638   24.9263 C.3     1  UNL1        0.0642
      9 C           7.3064   -4.1737   25.6061 C.3     1  UNL1        0.1020
     10 C           7.0710   -4.1463   27.0874 C.ar    1  UNL1        0.0319
     11 C           6.7199   -2.8562   27.7672 C.ar    1  UNL1        0.0300
     12 C           6.4845   -2.8289   29.2484 C.ar    1  UNL1        0.1401
     13 F           6.1334   -1.5387   29.9283 F       1  UNL1       -0.2042
     14 C           6.6002   -4.0916   30.0496 C.ar    1  UNL1        0.0327
     15 C           6.9513   -5.3818   29.3697 C.ar    1  UNL1        0.0389
     16 C           7.1867   -5.4091   27.8886 C.ar    1  UNL1        0.1358
     17 O           7.5378   -6.6993   27.2086 O.3     1  UNL1       -0.4828
     18 C           8.5389   -8.5641   27.3971 C.3     1  UNL1        0.0037
     19 C           7.9977   -8.1733   26.0537 C.3     1  UNL1        0.0401
     20 C           8.0866   -7.2564   24.3596 C.3     1  UNL1        0.0401
     21 C           9.5003   -7.5994   23.9939 C.3     1  UNL1        0.0037
     22 C           5.1102   -1.4810   21.7427 C.ar    1  UNL1        0.0516
     23 C           3.6655   -1.1920   22.0244 C.ar    1  UNL1        0.0147
     24 C           2.6832   -1.1085   20.8939 C.ar    1  UNL1        0.0013
     25 C           3.1455   -1.3139   19.4818 C.ar    1  UNL1        0.0016
     26 C           4.5902   -1.6028   19.2002 C.ar    1  UNL1        0.0204
     27 C           5.0525   -1.8083   17.7881 C.ar    1  UNL1        0.0989
     28 N           6.4972   -2.0972   17.5064 N.ar    1  UNL1       -0.2423
     29 C           7.4796   -2.1808   18.6369 C.ar    1  UNL1        0.0989
     30 C           7.0173   -1.9754   20.0490 C.ar    1  UNL1        0.0219
     31 C           5.5725   -1.6864   20.3306 C.ar    1  UNL1        0.0166
@<TRIPOS>BOND
     1    18    19    1
     2    19     7    1
     3     7    20    1
     4    20    21    1
     5     7     8    1
     6     8     9    1
     7     9     1    1
     8     1     2   am
     9     2     3    2
    10     2     4   am
    11     4    22    1
    12    22    23   ar
    13    23    24   ar
    14    24    25   ar
    15    25    26   ar
    16    26    27   ar
    17    27    28   ar
    18    28    29   ar
    19    29    30   ar
    20    30    31   ar
    21     9    10    1
    22    10    11   ar
    23    11    12   ar
    24    12    13    1
    25    12    14   ar
    26    14    15   ar
    27    15    16   ar
    28    16    17    1
    29    17     7    1
    30    31    22   ar
    31    16    10   ar
    32    31    26   ar
    33     1     5    1
    34     4     6    1
@<TRIPOS>MOLECULE
*****
 31 34 0 0 0
SMALL
GASTEIGER

@<TRIPOS>ATOM
      1 N          -0.3781    3.5342   20.7348 N.am    1  UNL1       -0.2863
      2 C           0.2860    2.2003   20.9069 C.2     1  UNL1        0.3047
      3 O          -0.5340    0.9446   20.8761 O.2     1  UNL1       -0.2525
      4 N           1.7702    2.1221   21.1098 N.am    1  UNL1       -0.2683
      5 H           0.1601    4.3583   20.7550 H       1  UNL1        0.1512
      6 H           2.3084    2.9462   21.1301 H       1  UNL1        0.1564
      7 C          -3.9086    3.8114   18.9435 C.3     1  UNL1        0.1350
      8 C          -2.4245    3.7332   19.1465 C.3     1  UNL1        0.0642
      9 C          -1.8623    3.6124   20.5319 C.3     1  UNL1        0.1020
     10 C          -2.7842    3.5699   21.7144 C.ar    1  UNL1        0.0319
     11 C          -2.2220    3.4492   23.0997 C.ar    1  UNL1        0.0300
     12 C          -3.1440    3.4067   24.2822 C.ar    1  UNL1        0.1401
     13 F          -2.5818    3.2860   25.6676 F       1  UNL1       -0.2042
     14 C          -4.6281    3.4850   24.0792 C.ar    1  UNL1        0.0327
     15 C          -5.1903    3.6057   22.6939 C.ar    1  UNL1        0.0389
     16 C          -4.2684    3.6482   21.5114 C.ar    1  UNL1        0.1358
     17 O          -4.8306    3.7689   20.1260 O.3     1  UNL1       -0.4828
     18 C          -6.4340    3.2165   18.8070 C.3     1  UNL1        0.0037
     19 C          -5.2322    3.9172   18.2458 C.3     1  UNL1        0.0401
     20 C          -3.4463    3.8907   17.5188 C.3     1  UNL1        0.0401
     21 C          -2.4100    4.8997   17.1216 C.3     1  UNL1        0.0037
     22 C           2.4343    0.7881   21.2819 C.ar    1  UNL1        0.0516
     23 C           2.5910    0.1996   22.6527 C.ar    1  UNL1        0.0147
     24 C           3.2551   -1.1343   22.8247 C.ar    1  UNL1        0.0013
     25 C           3.7625   -1.8797   21.6260 C.ar    1  UNL1        0.0016
     26 C           3.6059   -1.2912   20.2553 C.ar    1  UNL1        0.0204
     27 C           4.1133   -2.0365   19.0565 C.ar    1  UNL1        0.0989
     28 N           3.9567   -1.4480   17.6858 N.ar    1  UNL1       -0.2423
     29 C           3.2925   -0.1140   17.5137 C.ar    1  UNL1        0.0989
     30 C           2.7851    0.6313   18.7124 C.ar    1  UNL1        0.0219
     31 C           2.9418    0.0427   20.0832 C.ar    1  UNL1        0.0166
@<TRIPOS>BOND
     1    18    19    1
     2    19     7    1
     3     7    20    1
     4    20    21    1
     5     7     8    1
     6     8     9    1
     7     9     1    1
     8     1     2   am
     9     2     3    2
    10     2     4   am
    11     4    22    1
    12    22    23   ar
    13    23    24   ar
    14    24    25   ar
    15    25    26   ar
    16    26    27   ar
    17    27    28   ar
    18    28    29   ar
    19    29    30   ar
    20    30    31   ar
    21     9    10    1
    22    10    11   ar
    23    11    12   ar
    24    12    13    1
    25    12    14   ar
    26    14    15   ar
    27    15    16   ar
    28    16    17    1
    29    17     7    1
    30    31    22   ar
    31    16    10   ar
    32    31    26   ar
    33     1     5    1
    34     4     6    1
@<TRIPOS>MOLECULE
*****
 31 34 0 0 0
SMALL
GASTEIGER

@<TRIPOS>ATOM
      1 N           1.6839    2.1934   21.0041 N.am    1  UNL1       -0.2863
      2 C           0.1843    2.2180   20.9819 C.2     1  UNL1        0.3047
      3 O          -0.5835    0.9481   20.7628 O.2     1  UNL1       -0.2525
      4 N          -0.5475    3.5125   21.1788 N.am    1  UNL1       -0.2683
      5 H           2.1878    3.0268   21.1479 H       1  UNL1        0.1512
      6 H          -0.0436    4.3459   21.3225 H       1  UNL1        0.1564
      7 C           3.4269   -0.8959   19.2241 C.3     1  UNL1        0.1350
      8 C           2.6950    0.3985   19.4210 C.3     1  UNL1        0.0642
      9 C           2.4158    0.8989   20.8072 C.3     1  UNL1        0.1020
     10 C           2.8684    0.1048   21.9966 C.ar    1  UNL1        0.0319
     11 C           2.5891    0.6052   23.3828 C.ar    1  UNL1        0.0300
     12 C           3.0417   -0.1889   24.5722 C.ar    1  UNL1        0.1401
     13 F           2.7625    0.3115   25.9584 F       1  UNL1       -0.2042
     14 C           3.7736   -1.4834   24.3753 C.ar    1  UNL1        0.0327
     15 C           4.0528   -1.9837   22.9891 C.ar    1  UNL1        0.0389
     16 C           3.6002   -1.1897   21.7998 C.ar    1  UNL1        0.1358
     17 O           3.8795   -1.6900   20.4135 O.3     1  UNL1       -0.4828
     18 C           3.8908   -3.4467   19.0555 C.3     1  UNL1        0.0037
     19 C           4.0803   -2.0543   18.5306 C.3     1  UNL1        0.0401
     20 C           3.2012   -0.5041   17.7939 C.3     1  UNL1        0.0401
     21 C           4.3453   -0.5151   16.8238 C.3     1  UNL1        0.0037
     22 C          -2.0472    3.5370   21.1565 C.ar    1  UNL1        0.0516
     23 C          -2.7780    3.5365   19.8466 C.ar    1  UNL1        0.0147
     24 C          -4.2776    3.5611   19.8245 C.ar    1  UNL1        0.0013
     25 C          -5.0464    3.5862   21.1122 C.ar    1  UNL1        0.0016
     26 C          -4.3156    3.5868   22.4221 C.ar    1  UNL1        0.0204
     27 C          -5.0845    3.6120   23.7099 C.ar    1  UNL1        0.0989
     28 N          -4.3537    3.6125   25.0198 N.ar    1  UNL1       -0.2423
     29 C          -2.8540    3.5879   25.0420 C.ar    1  UNL1        0.0989
     30 C          -2.0852    3.5628   23.7543 C.ar    1  UNL1        0.0219
     31 C          -2.8160    3.5622   22.4443 C.ar    1  UNL1        0.0166
@<TRIPOS>BOND
     1    18    19    1
     2    19     7    1
     3     7    20    1
     4    20    21    1
     5     7     8    1
     6     8     9    1
     7     9     1    1
     8     1     2   am
     9     2     3    2
    10     2     4   am
    11     4    22    1
    12    22    23   ar
    13    23    24   ar
    14    24    25   ar
    15    25    26   ar
    16    26    27   ar
    17    27    28   ar
    18    28    29   ar
    19    29    30   ar
    20    30    31   ar
    21     9    10    1
    22    10    11   ar
    23    11    12   ar
    24    12    13    1
    25    12    14   ar
    26    14    15   ar
    27    15    16   ar
    28    16    17    1
    29    17     7    1
    30    31    22   ar
    31    16    10   ar
    32    31    26   ar
    33     1     5    1
    34     4     6    1
@<TRIPOS>MOLECULE
*****
 31 34 0 0 0
SMALL
GASTEIGER

@<TRIPOS>ATOM
      1 N           1.9220    2.0712   20.4410 N.am    1  UNL1       -0.2863
      2 C           0.4237    2.1360   20.4699 C.2     1  UNL1        0.3047
      3 O          -0.3814    0.8706   20.4990 O.2     1  UNL1       -0.2525
      4 N          -0.2696    3.4661   20.4697 N.am    1  UNL1       -0.2683
      5 H           2.4503    2.9017   20.4220 H       1  UNL1        0.1512
      6 H           0.2587    4.2966   20.4507 H       1  UNL1        0.1564
      7 C           3.6825   -1.2402   19.1428 C.3     1  UNL1        0.1350
      8 C           2.9892    0.0899   19.1427 C.3     1  UNL1        0.0642
      9 C           2.6153    0.7410   20.4412 C.3     1  UNL1        0.1020
     10 C           2.9348    0.0620   21.7400 C.ar    1  UNL1        0.0319
     11 C           2.5609    0.7130   23.0386 C.ar    1  UNL1        0.0300
     12 C           2.8804    0.0340   24.3373 C.ar    1  UNL1        0.1401
     13 F           2.5066    0.6850   25.6360 F       1  UNL1       -0.2042
     14 C           3.5738   -1.2962   24.3375 C.ar    1  UNL1        0.0327
     15 C           3.9476   -1.9473   23.0389 C.ar    1  UNL1        0.0389
     16 C           3.6281   -1.2682   21.7402 C.ar    1  UNL1        0.1358
     17 O           4.0020   -1.9193   20.4416 O.3     1  UNL1       -0.4828
     18 C           3.8492   -3.8318   19.0656 C.3     1  UNL1        0.0037
     19 C           4.3447   -2.4846   18.6301 C.3     1  UNL1        0.0401
     20 C           3.5930   -0.9933   17.6660 C.3     1  UNL1        0.0401
     21 C           4.7117   -0.2924   16.9537 C.3     1  UNL1        0.0037
     22 C          -1.7680    3.5309   20.4986 C.ar    1  UNL1        0.0516
     23 C          -2.4976    3.4398   21.8060 C.ar    1  UNL1        0.0147
     24 C          -3.9959    3.5045   21.8348 C.ar    1  UNL1        0.0013
     25 C          -4.7646    3.6604   20.5562 C.ar    1  UNL1        0.0016
     26 C          -4.0350    3.7515   19.2488 C.ar    1  UNL1        0.0204
     27 C          -4.8037    3.9073   17.9703 C.ar    1  UNL1        0.0989
     28 N          -4.0742    3.9985   16.6628 N.ar    1  UNL1       -0.2423
     29 C          -2.5758    3.9337   16.6340 C.ar    1  UNL1        0.0989
     30 C          -1.8071    3.7778   17.9126 C.ar    1  UNL1        0.0219
     31 C          -2.5367    3.6867   19.2200 C.ar    1  UNL1        0.0166
@<TRIPOS>BOND
     1    18    19    1
     2    19     7    1
     3     7    20    1
     4    20    21    1
     5     7     8    1
     6     8     9    1
     7     9     1    1
     8     1     2   am
     9     2     3    2
    10     2     4   am
    11     4    22    1
    12    22    23   ar
    13    23    24   ar
    14    24    25   ar
    15    25    26   ar
    16    26    27   ar
    17    27    28   ar
    18    28    29   ar
    19    29    30   ar
    20    30    31   ar
    21     9    10    1
    22    10    11   ar
    23    11    12   ar
    24    12    13    1
    25    12    14   ar
    26    14    15   ar
    27    15    16   ar
    28    16    17    1
    29    17     7    1
    30    31    22   ar
    31    16    10   ar
    32    31    26   ar
    33     1     5    1
    34     4     6    1
@<TRIPOS>MOLECULE
*****
 31 34 0 0 0
SMALL
GASTEIGER

@<TRIPOS>ATOM
      1 N           6.9884   -2.4129   24.7042 N.am    1  UNL1       -0.2863
      2 C           5.8746   -2.3409   23.7021 C.2     1  UNL1        0.3047
      3 O           4.8459   -3.4311   23.6444 O.2     1  UNL1       -0.2525
      4 N           5.7895   -1.1788   22.7575 N.am    1  UNL1       -0.2683
      5 H           7.6635   -1.6974   24.7420 H       1  UNL1        0.1512
      6 H           6.4646   -0.4632   22.7953 H       1  UNL1        0.1564
      7 C           6.7632   -4.5665   28.0300 C.3     1  UNL1        0.1350
      8 C           6.6781   -3.4043   27.0855 C.3     1  UNL1        0.0642
      9 C           7.0735   -3.5751   25.6487 C.3     1  UNL1        0.1020
     10 C           7.5542   -4.9080   25.1564 C.ar    1  UNL1        0.0319
     11 C           7.9496   -5.0788   23.7196 C.ar    1  UNL1        0.0300
     12 C           8.4302   -6.4117   23.2273 C.ar    1  UNL1        0.1401
     13 F           8.8257   -6.5824   21.7905 F       1  UNL1       -0.2042
     14 C           8.5154   -7.5738   24.1719 C.ar    1  UNL1        0.0327
     15 C           8.1199   -7.4031   25.6086 C.ar    1  UNL1        0.0389
     16 C           7.6393   -6.0702   26.1009 C.ar    1  UNL1        0.1358
     17 O           7.2438   -5.8994   27.5378 O.3     1  UNL1       -0.4828
     18 C           7.8654   -6.1173   29.7993 C.3     1  UNL1        0.0037
     19 C           6.6702   -5.3616   29.2985 C.3     1  UNL1        0.0401
     20 C           6.2503   -3.5097   28.9628 C.3     1  UNL1        0.0401
     21 C           6.9196   -2.1684   29.0173 C.3     1  UNL1        0.0037
     22 C           4.6756   -1.1068   21.7554 C.ar    1  UNL1        0.0516
     23 C           3.3043   -0.6796   22.1876 C.ar    1  UNL1        0.0147
     24 C           2.1905   -0.6077   21.1855 C.ar    1  UNL1        0.0013
     25 C           2.4481   -0.9630   19.7511 C.ar    1  UNL1        0.0016
     26 C           3.8194   -1.3902   19.3189 C.ar    1  UNL1        0.0204
     27 C           4.0770   -1.7455   17.8845 C.ar    1  UNL1        0.0989
     28 N           5.4483   -2.1727   17.4523 N.ar    1  UNL1       -0.2423
     29 C           6.5622   -2.2446   18.4544 C.ar    1  UNL1        0.0989
     30 C           6.3046   -1.8893   19.8888 C.ar    1  UNL1        0.0219
     31 C           4.9332   -1.4621   20.3210 C.ar    1  UNL1        0.0166
@<TRIPOS>BOND
     1    18    19    1
     2    19     7    1
     3     7    20    1
     4    20    21    1
     5     7     8    1
     6     8     9    1
     7     9     1    1
     8     1     2   am
     9     2     3    2
    10     2     4   am
    11     4    22    1
    12    22    23   ar
    13    23    24   ar
    14    24    25   ar
    15    25    26   ar
    16    26    27   ar
    17    27    28   ar
    18    28    29   ar
    19    29    30   ar
    20    30    31   ar
    21     9    10    1
    22    10    11   ar
    23    11    12   ar
    24    12    13    1
    25    12    14   ar
    26    14    15   ar
    27    15    16   ar
    28    16    17    1
    29    17     7    1
    30    31    22   ar
    31    16    10   ar
    32    31    26   ar
    33     1     5    1
    34     4     6    1
@<TRIPOS>MOLECULE
*****
 31 34 0 0 0
SMALL
GASTEIGER

@<TRIPOS>ATOM
      1 N          -0.5389    3.7218   21.2924 N.am    1  UNL1       -0.2863
      2 C           0.1324    2.4823   20.7797 C.2     1  UNL1        0.3047
      3 O          -0.6246    1.1886   20.7219 O.2     1  UNL1       -0.2525
      4 N           1.5607    2.5365   20.3246 N.am    1  UNL1       -0.2683
      5 H          -0.0421    4.5709   21.3304 H       1  UNL1        0.1512
      6 H           2.0575    3.3856   20.3626 H       1  UNL1        0.1564
      7 C          -3.7137    3.5280   23.6658 C.3     1  UNL1        0.1350
      8 C          -2.2854    3.5822   23.2108 C.3     1  UNL1        0.0642
      9 C          -1.9672    3.6676   21.7475 C.3     1  UNL1        0.1020
     10 C          -3.0773    3.6988   20.7391 C.ar    1  UNL1        0.0319
     11 C          -2.7591    3.7842   19.2757 C.ar    1  UNL1        0.0300
     12 C          -3.8691    3.8154   18.2674 C.ar    1  UNL1        0.1401
     13 F          -3.5509    3.9008   16.8040 F       1  UNL1       -0.2042
     14 C          -5.2974    3.7612   18.7224 C.ar    1  UNL1        0.0327
     15 C          -5.6157    3.6758   20.1858 C.ar    1  UNL1        0.0389
     16 C          -4.5056    3.6446   21.1941 C.ar    1  UNL1        0.1358
     17 O          -4.8238    3.5592   22.6575 O.3     1  UNL1       -0.4828
     18 C          -5.9979    4.4696   24.4697 C.3     1  UNL1        0.0037
     19 C          -4.8995    3.4541   24.5814 C.3     1  UNL1        0.0401
     20 C          -3.0155    3.4711   24.9921 C.3     1  UNL1        0.0401
     21 C          -2.2311    4.6538   25.4781 C.3     1  UNL1        0.0037
     22 C           2.2320    1.2970   19.8118 C.ar    1  UNL1        0.0516
     23 C           2.4081    1.0953   18.3359 C.ar    1  UNL1        0.0147
     24 C           3.0794   -0.1442   17.8232 C.ar    1  UNL1        0.0013
     25 C           3.5746   -1.1821   18.7864 C.ar    1  UNL1        0.0016
     26 C           3.3985   -0.9804   20.2622 C.ar    1  UNL1        0.0204
     27 C           3.8938   -2.0182   21.2254 C.ar    1  UNL1        0.0989
     28 N           3.7177   -1.8165   22.7013 N.ar    1  UNL1       -0.2423
     29 C           3.0464   -0.5770   23.2141 C.ar    1  UNL1        0.0989
     30 C           2.5512    0.4609   22.2509 C.ar    1  UNL1        0.0219
     31 C           2.7273    0.2591   20.7750 C.ar    1  UNL1        0.0166
@<TRIPOS>BOND
     1    18    19    1
     2    19     7    1
     3     7    20    1
     4    20    21    1
     5     7     8    1
     6     8     9    1
     7     9     1    1
     8     1     2   am
     9     2     3    2
    10     2     4   am
    11     4    22    1
    12    22    23   ar
    13    23    24   ar
    14    24    25   ar
    15    25    26   ar
    16    26    27   ar
    17    27    28   ar
    18    28    29   ar
    19    29    30   ar
    20    30    31   ar
    21     9    10    1
    22    10    11   ar
    23    11    12   ar
    24    12    13    1
    25    12    14   ar
    26    14    15   ar
    27    15    16   ar
    28    16    17    1
    29    17     7    1
    30    31    22   ar
    31    16    10   ar
    32    31    26   ar
    33     1     5    1
    34     4     6    1
@<TRIPOS>MOLECULE
*****
 31 34 0 0 0
SMALL
GASTEIGER

@<TRIPOS>ATOM
      1 N           3.5125    1.1635   22.8484 N.am    1  UNL1       -0.2863
      2 C           2.2548    1.2783   23.6576 C.2     1  UNL1        0.3047
      3 O           1.0080    0.5745   23.2099 O.2     1  UNL1       -0.2525
      4 N           2.2437    2.0969   24.9144 N.am    1  UNL1       -0.2683
      5 H           4.3308    1.6254   23.1422 H       1  UNL1        0.1512
      6 H           3.0619    2.5588   25.2083 H       1  UNL1        0.1564
      7 C           3.0856    0.1348   19.0392 C.3     1  UNL1        0.1350
      8 C           3.0745    0.9534   20.2961 C.3     1  UNL1        0.0642
      9 C           3.5236    0.3449   21.5915 C.3     1  UNL1        0.1020
     10 C           3.9839   -1.0823   21.6300 C.ar    1  UNL1        0.0319
     11 C           4.4330   -1.6908   22.9253 C.ar    1  UNL1        0.0300
     12 C           4.8932   -3.1179   22.9637 C.ar    1  UNL1        0.1401
     13 F           5.3424   -3.7265   24.2591 F       1  UNL1       -0.2042
     14 C           4.9043   -3.9365   21.7069 C.ar    1  UNL1        0.0327
     15 C           4.4552   -3.3280   20.4115 C.ar    1  UNL1        0.0389
     16 C           3.9950   -1.9009   20.3731 C.ar    1  UNL1        0.1358
     17 O           3.5458   -1.2923   19.0777 O.3     1  UNL1       -0.4828
     18 C           4.0865   -0.7474   16.8099 C.3     1  UNL1        0.0037
     19 C           2.9164   -0.2324   17.5948 C.3     1  UNL1        0.0401
     20 C           2.5666    1.4344   18.4991 C.3     1  UNL1        0.0401
     21 C           1.1110    1.7726   18.6287 C.3     1  UNL1        0.0037
     22 C           0.9858    2.2117   25.7236 C.ar    1  UNL1        0.0516
     23 C          -0.1159    3.1239   25.2720 C.ar    1  UNL1        0.0147
     24 C          -1.3736    3.2387   26.0812 C.ar    1  UNL1        0.0013
     25 C          -1.5297    2.4412   27.3420 C.ar    1  UNL1        0.0016
     26 C          -0.4280    1.5290   27.7937 C.ar    1  UNL1        0.0204
     27 C          -0.5840    0.7315   29.0545 C.ar    1  UNL1        0.0989
     28 N           0.5177   -0.1807   29.5061 N.ar    1  UNL1       -0.2423
     29 C           1.7755   -0.2955   28.6969 C.ar    1  UNL1        0.0989
     30 C           1.9316    0.5019   27.4361 C.ar    1  UNL1        0.0219
     31 C           0.8298    1.4142   26.9845 C.ar    1  UNL1        0.0166
@<TRIPOS>BOND
     1    18    19    1
     2    19     7    1
     3     7    20    1
     4    20    21    1
     5     7     8    1
     6     8     9    1
     7     9     1    1
     8     1     2   am
     9     2     3    2
    10     2     4   am
    11     4    22    1
    12    22    23   ar
    13    23    24   ar
    14    24    25   ar
    15    25    26   ar
    16    26    27   ar
    17    27    28   ar
    18    28    29   ar
    19    29    30   ar
    20    30    31   ar
    21     9    10    1
    22    10    11   ar
    23    11    12   ar
    24    12    13    1
    25    12    14   ar
    26    14    15   ar
    27    15    16   ar
    28    16    17    1
    29    17     7    1
    30    31    22   ar
    31    16    10   ar
    32    31    26   ar
    33     1     5    1
    34     4     6    1
@<TRIPOS>MOLECULE
*****
 31 34 0 0 0
SMALL
GASTEIGER

@<TRIPOS>ATOM
      1 N          -7.3218  -20.0388   22.6547 N.am    1  UNL1       -0.2863
      2 C          -6.2658  -19.0165   22.3555 C.2     1  UNL1        0.3047
      3 O          -6.6598  -17.6164   21.9887 O.2     1  UNL1       -0.2525
      4 N          -4.8157  -19.3942   22.4230 N.am    1  UNL1       -0.2683
      5 H          -7.0632  -20.9577   22.8955 H       1  UNL1        0.1512
      6 H          -4.5570  -20.3131   22.6637 H       1  UNL1        0.1564
      7 C         -10.9687  -18.9469   23.7764 C.3     1  UNL1        0.1350
      8 C          -9.5186  -19.3246   23.8439 C.3     1  UNL1        0.0642
      9 C          -8.7719  -19.6611   22.5872 C.3     1  UNL1        0.1020
     10 C          -9.4753  -19.6199   21.2630 C.ar    1  UNL1        0.0319
     11 C          -8.7287  -19.9564   20.0063 C.ar    1  UNL1        0.0300
     12 C          -9.4321  -19.9151   18.6822 C.ar    1  UNL1        0.1401
     13 F          -8.6854  -20.2516   17.4254 F       1  UNL1       -0.2042
     14 C         -10.8822  -19.5374   18.6147 C.ar    1  UNL1        0.0327
     15 C         -11.6289  -19.2009   19.8713 C.ar    1  UNL1        0.0389
     16 C         -10.9254  -19.2422   21.1955 C.ar    1  UNL1        0.1358
     17 O         -11.6721  -18.9057   22.4522 O.3     1  UNL1       -0.4828
     18 C         -13.1371  -17.5666   23.3983 C.3     1  UNL1        0.0037
     19 C         -12.3398  -18.5337   24.2226 C.3     1  UNL1        0.0401
     20 C         -10.7414  -18.8447   25.2555 C.3     1  UNL1        0.0401
     21 C          -9.5991  -18.0287   25.7842 C.3     1  UNL1        0.0037
     22 C          -3.7596  -18.3718   22.1237 C.ar    1  UNL1        0.0516
     23 C          -3.3936  -17.3472   23.1563 C.ar    1  UNL1        0.0147
     24 C          -2.3376  -16.3249   22.8570 C.ar    1  UNL1        0.0013
     25 C          -1.6476  -16.3271   21.5251 C.ar    1  UNL1        0.0016
     26 C          -2.0136  -17.3517   20.4925 C.ar    1  UNL1        0.0204
     27 C          -1.3236  -17.3539   19.1607 C.ar    1  UNL1        0.0989
     28 N          -1.6896  -18.3785   18.1281 N.ar    1  UNL1       -0.2423
     29 C          -2.7456  -19.4009   18.4274 C.ar    1  UNL1        0.0989
     30 C          -3.4357  -19.3987   19.7593 C.ar    1  UNL1        0.0219
     31 C          -3.0696  -18.3740   20.7918 C.ar    1  UNL1        0.0166
@<TRIPOS>BOND
     1    18    19    1
     2    19     7    1
     3     7    20    1
     4    20    21    1
     5     7     8    1
     6     8     9    1
     7     9     1    1
     8     1     2   am
     9     2     3    2
    10     2     4   am
    11     4    22    1
    12    22    23   ar
    13    23    24   ar
    14    24    25   ar
    15    25    26   ar
    16    26    27   ar
    17    27    28   ar
    18    28    29   ar
    19    29    30   ar
    20    30    31   ar
    21     9    10    1
    22    10    11   ar
    23    11    12   ar
    24    12    13    1
    25    12    14   ar
    26    14    15   ar
    27    15    16   ar
    28    16    17    1
    29    17     7    1
    30    31    22   ar
    31    16    10   ar
    32    31    26   ar
    33     1     5    1
    34     4     6    1
