@<TRIPOS>MOLECULE
*****
 24 27 0 0 0
SMALL
GASTEIGER

@<TRIPOS>ATOM
      1 C         -13.3991  -18.2044   23.8700 C.2     1  UNL1        0.1230
      2 C         -12.0803  -18.5432   24.4993 C.2     1  UNL1        0.0442
      3 C         -10.8241  -18.4942   23.6809 C.2     1  UNL1        0.0617
      4 CL         -9.5053  -18.8331   24.3103 Cl      1  UNL1       -0.0821
      5 C         -10.8867  -18.1063   22.2333 C.2     1  UNL1        0.0324
      6 C          -9.8238  -17.9711   21.1836 C.2     1  UNL1        0.0966
      7 C         -10.4856  -17.5487   19.9055 C.2     1  UNL1        0.1049
      8 N         -11.9575  -17.4229   20.1653 N.2     1  UNL1       -0.2475
      9 C         -12.2054  -17.7675   21.6040 C.2     1  UNL1        0.0676
     10 C         -13.4616  -17.8165   22.4223 C.3     1  UNL1        0.1096
     11 C         -14.5806  -18.5273   26.1611 C.3     1  UNL1        0.2520
     12 O         -14.6552  -18.2534   24.6882 O.2     1  UNL1       -0.4753
     13 C          -8.3566  -18.2155   21.3779 C.2     1  UNL1        0.3428
     14 O          -7.8015  -19.6014   21.2331 O.2     1  UNL1       -0.2448
     15 O          -7.4446  -17.0738   21.7169 O.3     1  UNL1       -0.4454
     16 C          -7.9656  -15.9041   22.4982 C.3     1  UNL1        0.2087
     17 C          -7.5678  -15.7236   23.9331 C.3     1  UNL1        0.0445
     18 C          -8.6169  -15.6984   25.0049 C.3     1  UNL1        0.0210
     19 C          -8.2190  -15.5179   26.4398 C.3     1  UNL1        0.0722
     20 N          -6.7719  -15.3626   26.8030 N.3     1  UNL1       -0.2727
     21 C          -5.7228  -15.3878   25.7313 C.3     1  UNL1        0.0722
     22 C          -6.1207  -15.5683   24.2963 C.3     1  UNL1        0.0210
     23 C          -6.9415  -15.4589   26.0031 C.3     1  UNL1        0.0722
     24 C          -7.3012  -15.6222   24.7056 C.3     1  UNL1        0.0210
@<TRIPOS>BOND
     1    11    12    1
     2    12     1    1
     3     1     2    2
     4     2     3    1
     5     3     4    1
     6     3     5    2
     7     5     6    1
     8     6    13    1
     9    13    14    2
    10    13    15    1
    11    15    16    1
    12    16    17    1
    13    17    18    1
    14    18    19    1
    15    19    20    1
    16    20    21    1
    17    21    22    1
    18    20    23    1
    19    23    24    1
    20     6     7    2
    21     7     8    1
    22     8     9    2
    23     9    10    1
    24    10     1    1
    25     9     5    1
    26    22    17    1
    27    24    17    1
@<TRIPOS>MOLECULE
*****
 24 27 0 0 0
SMALL
GASTEIGER

@<TRIPOS>ATOM
      1 C          -2.4384  -19.1501   20.9033 C.2     1  UNL1        0.1230
      2 C          -3.4044  -20.1866   20.4106 C.2     1  UNL1        0.0442
      3 C          -4.8471  -20.1201   20.8159 C.2     1  UNL1        0.0617
      4 CL         -5.8130  -21.1566   20.3232 Cl      1  UNL1       -0.0821
      5 C          -5.3238  -19.0172   21.7139 C.2     1  UNL1        0.0324
      6 C          -6.6763  -18.6954   22.2772 C.2     1  UNL1        0.0966
      7 C          -6.5462  -17.4601   23.1180 C.2     1  UNL1        0.1049
      8 N          -5.1134  -17.0184   23.0744 N.2     1  UNL1       -0.2475
      9 C          -4.3579  -17.9808   22.2065 C.2     1  UNL1        0.0676
     10 C          -2.9152  -18.0472   21.8013 C.3     1  UNL1        0.1096
     11 C          -0.3439  -18.0320   19.8486 C.3     1  UNL1        0.2520
     12 O          -0.9958  -19.2166   20.4981 O.2     1  UNL1       -0.4753
     13 C          -7.9374  -19.4725   22.0411 C.2     1  UNL1        0.3428
     14 O          -8.4764  -20.3715   23.1141 O.2     1  UNL1       -0.2448
     15 O          -8.6594  -19.3507   20.7320 O.3     1  UNL1       -0.4454
     16 C         -10.1386  -19.5909   20.6661 C.3     1  UNL1        0.2087
     17 C         -11.0820  -18.6568   21.3642 C.3     1  UNL1        0.0445
     18 C         -11.5131  -17.3864   20.6933 C.3     1  UNL1        0.0210
     19 C         -12.4565  -16.4523   21.3914 C.3     1  UNL1        0.0722
     20 N         -12.9688  -16.7886   22.7606 N.3     1  UNL1       -0.2727
     21 C         -12.5377  -18.0591   23.4315 C.3     1  UNL1        0.0722
     22 C         -11.5943  -18.9931   22.7333 C.3     1  UNL1        0.0210
     23 C         -12.4535  -17.3315   22.4176 C.3     1  UNL1        0.0722
     24 C         -11.6005  -18.1762   21.7864 C.3     1  UNL1        0.0210
@<TRIPOS>BOND
     1    11    12    1
     2    12     1    1
     3     1     2    2
     4     2     3    1
     5     3     4    1
     6     3     5    2
     7     5     6    1
     8     6    13    1
     9    13    14    2
    10    13    15    1
    11    15    16    1
    12    16    17    1
    13    17    18    1
    14    18    19    1
    15    19    20    1
    16    20    21    1
    17    21    22    1
    18    20    23    1
    19    23    24    1
    20     6     7    2
    21     7     8    1
    22     8     9    2
    23     9    10    1
    24    10     1    1
    25     9     5    1
    26    22    17    1
    27    24    17    1
@<TRIPOS>MOLECULE
*****
 24 27 0 0 0
SMALL
GASTEIGER

@<TRIPOS>ATOM
      1 C         -12.7289  -18.0802   23.4391 C.2     1  UNL1        0.1230
      2 C         -12.4779  -17.6135   22.0359 C.2     1  UNL1        0.0442
      3 C         -11.1863  -17.9523   21.3525 C.2     1  UNL1        0.0617
      4 CL        -10.9353  -17.4857   19.9492 Cl      1  UNL1       -0.0821
      5 C         -10.1457  -18.7578   22.0725 C.2     1  UNL1        0.0324
      6 C          -8.7875  -19.2420   21.6590 C.2     1  UNL1        0.0966
      7 C          -8.1991  -20.0078   22.8067 C.2     1  UNL1        0.1049
      8 N          -9.1937  -19.9970   23.9295 N.2     1  UNL1       -0.2475
      9 C         -10.3967  -19.2245   23.4758 C.2     1  UNL1        0.0676
     10 C         -11.6883  -18.8857   24.1591 C.3     1  UNL1        0.1096
     11 C         -14.4076  -18.4483   25.3875 C.3     1  UNL1        0.2520
     12 O         -14.0205  -17.7413   24.1225 O.2     1  UNL1       -0.4753
     13 C          -8.1327  -19.0023   20.3309 C.2     1  UNL1        0.3428
     14 O          -8.9177  -19.1788   19.0649 O.2     1  UNL1       -0.2448
     15 O          -6.6930  -18.5861   20.2688 O.3     1  UNL1       -0.4454
     16 C          -5.6183  -19.6223   20.1228 C.3     1  UNL1        0.2087
     17 C          -4.1828  -19.2512   20.3499 C.3     1  UNL1        0.0445
     18 C          -3.5610  -19.4508   21.7003 C.3     1  UNL1        0.0210
     19 C          -2.1255  -19.0796   21.9272 C.3     1  UNL1        0.0722
     20 N          -1.3118  -18.5089   20.8038 N.3     1  UNL1       -0.2727
     21 C          -1.9335  -18.3093   19.4534 C.3     1  UNL1        0.0722
     22 C          -3.3690  -18.6804   19.2265 C.3     1  UNL1        0.0210
     23 C          -2.0945  -18.6973   20.6315 C.3     1  UNL1        0.0722
     24 C          -3.3925  -19.0329   20.4261 C.3     1  UNL1        0.0210
@<TRIPOS>BOND
     1    11    12    1
     2    12     1    1
     3     1     2    2
     4     2     3    1
     5     3     4    1
     6     3     5    2
     7     5     6    1
     8     6    13    1
     9    13    14    2
    10    13    15    1
    11    15    16    1
    12    16    17    1
    13    17    18    1
    14    18    19    1
    15    19    20    1
    16    20    21    1
    17    21    22    1
    18    20    23    1
    19    23    24    1
    20     6     7    2
    21     7     8    1
    22     8     9    2
    23     9    10    1
    24    10     1    1
    25     9     5    1
    26    22    17    1
    27    24    17    1
@<TRIPOS>MOLECULE
*****
 24 27 0 0 0
SMALL
GASTEIGER

@<TRIPOS>ATOM
      1 C         -12.7345  -18.5207   24.2461 C.2     1  UNL1        0.1230
      2 C         -11.3989  -19.1794   24.4259 C.2     1  UNL1        0.0442
      3 C         -10.3969  -19.1601   23.3098 C.2     1  UNL1        0.0617
      4 CL         -9.0612  -19.8187   23.4896 Cl      1  UNL1       -0.0821
      5 C         -10.7304  -18.4822   22.0140 C.2     1  UNL1        0.0324
      6 C          -9.9506  -18.3029   20.7452 C.2     1  UNL1        0.0966
      7 C         -10.8043  -17.5335   19.7813 C.2     1  UNL1        0.1049
      8 N         -12.1117  -17.2373   20.4543 N.2     1  UNL1       -0.2475
      9 C         -12.0660  -17.8236   21.8342 C.2     1  UNL1        0.0676
     10 C         -13.0681  -17.8428   22.9502 C.3     1  UNL1        0.1096
     11 C         -15.2042  -18.5429   25.0522 C.3     1  UNL1        0.2520
     12 O         -13.7366  -18.5400   25.3621 O.2     1  UNL1       -0.4753
     13 C          -8.5611  -18.8050   20.4860 C.2     1  UNL1        0.3428
     14 O          -8.3538  -20.0695   19.7063 O.2     1  UNL1       -0.2448
     15 O          -7.3789  -18.0425   21.0064 O.3     1  UNL1       -0.4454
     16 C          -6.5035  -18.6462   22.0644 C.3     1  UNL1        0.2087
     17 C          -5.1175  -19.1043   21.7196 C.3     1  UNL1        0.0445
     18 C          -4.9061  -20.0743   20.5952 C.3     1  UNL1        0.0210
     19 C          -3.5200  -20.5323   20.2504 C.3     1  UNL1        0.0722
     20 N          -2.3453  -20.0203   21.0301 N.3     1  UNL1       -0.2727
     21 C          -2.5566  -19.0503   22.1545 C.3     1  UNL1        0.0722
     22 C          -3.9428  -18.5923   22.4993 C.3     1  UNL1        0.0210
     23 C          -3.0860  -19.7407   21.2559 C.3     1  UNL1        0.0722
     24 C          -4.3393  -19.3264   21.5677 C.3     1  UNL1        0.0210
@<TRIPOS>BOND
     1    11    12    1
     2    12     1    1
     3     1     2    2
     4     2     3    1
     5     3     4    1
     6     3     5    2
     7     5     6    1
     8     6    13    1
     9    13    14    2
    10    13    15    1
    11    15    16    1
    12    16    17    1
    13    17    18    1
    14    18    19    1
    15    19    20    1
    16    20    21    1
    17    21    22    1
    18    20    23    1
    19    23    24    1
    20     6     7    2
    21     7     8    1
    22     8     9    2
    23     9    10    1
    24    10     1    1
    25     9     5    1
    26    22    17    1
    27    24    17    1
@<TRIPOS>MOLECULE
*****
 24 27 0 0 0
SMALL
GASTEIGER

@<TRIPOS>ATOM
      1 C         -12.0091  -17.5868   22.8721 C.2     1  UNL1        0.1230
      2 C         -11.5941  -18.6496   21.8983 C.2     1  UNL1        0.0442
      3 C         -10.1394  -18.8773   21.6114 C.2     1  UNL1        0.0617
      4 CL         -9.7244  -19.9401   20.6376 Cl      1  UNL1       -0.0821
      5 C          -9.0999  -18.0421   22.2982 C.2     1  UNL1        0.0324
      6 C          -7.6021  -18.0370   22.2169 C.2     1  UNL1        0.0966
      7 C          -7.0913  -16.9710   23.1404 C.2     1  UNL1        0.1049
      8 N          -8.2735  -16.3174   23.7925 N.2     1  UNL1       -0.2475
      9 C          -9.5148  -16.9793   23.2720 C.2     1  UNL1        0.0676
     10 C         -10.9694  -16.7517   23.5589 C.3     1  UNL1        0.1096
     11 C         -14.1336  -18.1047   24.2749 C.3     1  UNL1        0.2520
     12 O         -13.4636  -17.3592   23.1590 O.2     1  UNL1       -0.4753
     13 C          -6.7624  -18.9394   21.3622 C.2     1  UNL1        0.3428
     14 O          -6.5002  -20.3516   21.7945 O.2     1  UNL1       -0.2448
     15 O          -6.1849  -18.4296   20.0751 O.3     1  UNL1       -0.4454
     16 C          -5.0711  -19.1777   19.4043 C.3     1  UNL1        0.2087
     17 C          -3.6501  -18.9397   19.8214 C.3     1  UNL1        0.0445
     18 C          -2.7784  -18.0167   19.0225 C.3     1  UNL1        0.0210
     19 C          -1.3574  -17.7788   19.4397 C.3     1  UNL1        0.0722
     20 N          -0.8080  -18.4639   20.6558 N.3     1  UNL1       -0.2727
     21 C          -1.6797  -19.3869   21.4547 C.3     1  UNL1        0.0722
     22 C          -3.1007  -19.6248   21.0375 C.3     1  UNL1        0.0210
     23 C          -1.5928  -18.6254   20.4663 C.3     1  UNL1        0.0722
     24 C          -2.8777  -18.8406   20.0892 C.3     1  UNL1        0.0210
@<TRIPOS>BOND
     1    11    12    1
     2    12     1    1
     3     1     2    2
     4     2     3    1
     5     3     4    1
     6     3     5    2
     7     5     6    1
     8     6    13    1
     9    13    14    2
    10    13    15    1
    11    15    16    1
    12    16    17    1
    13    17    18    1
    14    18    19    1
    15    19    20    1
    16    20    21    1
    17    21    22    1
    18    20    23    1
    19    23    24    1
    20     6     7    2
    21     7     8    1
    22     8     9    2
    23     9    10    1
    24    10     1    1
    25     9     5    1
    26    22    17    1
    27    24    17    1
@<TRIPOS>MOLECULE
*****
 24 27 0 0 0
SMALL
GASTEIGER

@<TRIPOS>ATOM
      1 C         -12.8180  -18.1706   23.8327 C.2     1  UNL1        0.1230
      2 C         -12.2651  -17.0436   23.0115 C.2     1  UNL1        0.0442
      3 C         -10.8479  -17.0967   22.5228 C.2     1  UNL1        0.0617
      4 CL        -10.2950  -15.9698   21.7017 Cl      1  UNL1       -0.0821
      5 C          -9.9837  -18.2768   22.8553 C.2     1  UNL1        0.0324
      6 C          -8.5601  -18.6057   22.5158 C.2     1  UNL1        0.0966
      7 C          -8.2332  -19.9359   23.1271 C.2     1  UNL1        0.1049
      8 N          -9.4547  -20.4291   23.8444 N.2     1  UNL1       -0.2475
      9 C         -10.5366  -19.4037   23.6764 C.2     1  UNL1        0.0676
     10 C         -11.9537  -19.3506   24.1651 C.3     1  UNL1        0.1096
     11 C         -14.5519  -18.4743   25.7434 C.3     1  UNL1        0.2520
     12 O         -14.2352  -18.1175   24.3214 O.2     1  UNL1       -0.4753
     13 C          -7.6273  -17.7539   21.7069 C.2     1  UNL1        0.3428
     14 O          -7.0611  -18.2756   20.4196 O.2     1  UNL1       -0.2448
     15 O          -7.2605  -16.3804   22.1855 O.3     1  UNL1       -0.4454
     16 C          -6.3227  -16.2154   23.3445 C.3     1  UNL1        0.2087
     17 C          -6.8621  -15.8850   24.7045 C.3     1  UNL1        0.0445
     18 C          -5.9202  -15.5747   25.8299 C.3     1  UNL1        0.0210
     19 C          -6.4596  -15.2442   27.1900 C.3     1  UNL1        0.0722
     20 N          -7.9410  -15.2240   27.4246 N.3     1  UNL1       -0.2727
     21 C          -8.8830  -15.5343   26.2992 C.3     1  UNL1        0.0722
     22 C          -8.3435  -15.8648   24.9392 C.3     1  UNL1        0.0210
     23 C          -7.6925  -15.4107   26.6622 C.3     1  UNL1        0.0722
     24 C          -7.2048  -15.7095   25.4324 C.3     1  UNL1        0.0210
@<TRIPOS>BOND
     1    11    12    1
     2    12     1    1
     3     1     2    2
     4     2     3    1
     5     3     4    1
     6     3     5    2
     7     5     6    1
     8     6    13    1
     9    13    14    2
    10    13    15    1
    11    15    16    1
    12    16    17    1
    13    17    18    1
    14    18    19    1
    15    19    20    1
    16    20    21    1
    17    21    22    1
    18    20    23    1
    19    23    24    1
    20     6     7    2
    21     7     8    1
    22     8     9    2
    23     9    10    1
    24    10     1    1
    25     9     5    1
    26    22    17    1
    27    24    17    1
@<TRIPOS>MOLECULE
*****
 24 27 0 0 0
SMALL
GASTEIGER

@<TRIPOS>ATOM
      1 C         -13.2126  -18.2148   24.1149 C.2     1  UNL1        0.1230
      2 C         -11.8881  -18.5225   24.7482 C.2     1  UNL1        0.0442
      3 C         -10.6226  -18.0092   24.1275 C.2     1  UNL1        0.0617
      4 CL         -9.2982  -18.3169   24.7609 Cl      1  UNL1       -0.0821
      5 C         -10.6817  -17.1881   22.8736 C.2     1  UNL1        0.0324
      6 C          -9.6100  -16.5506   22.0400 C.2     1  UNL1        0.0966
      7 C         -10.2721  -15.8488   20.8914 C.2     1  UNL1        0.1049
      8 N         -11.7530  -16.0526   21.0153 N.2     1  UNL1       -0.2475
      9 C         -12.0062  -16.8804   22.2403 C.2     1  UNL1        0.0676
     10 C         -13.2716  -17.3937   22.8609 C.3     1  UNL1        0.1096
     11 C         -14.7398  -18.5083   26.1960 C.3     1  UNL1        0.2520
     12 O         -14.4780  -18.7281   24.7355 O.2     1  UNL1       -0.4753
     13 C          -8.1351  -16.6052   22.3078 C.2     1  UNL1        0.3428
     14 O          -7.3375  -15.3366   22.3748 O.2     1  UNL1       -0.2448
     15 O          -7.4578  -17.9284   22.5088 O.3     1  UNL1       -0.4454
     16 C          -7.0058  -18.7275   21.3225 C.3     1  UNL1        0.2087
     17 C          -5.5841  -19.1968   21.2320 C.3     1  UNL1        0.0445
     18 C          -4.5849  -18.7660   22.2645 C.3     1  UNL1        0.0210
     19 C          -3.1631  -19.2354   22.1739 C.3     1  UNL1        0.0722
     20 N          -2.7405  -20.1355   21.0508 N.3     1  UNL1       -0.2727
     21 C          -3.7397  -20.5662   20.0183 C.3     1  UNL1        0.0722
     22 C          -5.1615  -20.0968   20.1089 C.3     1  UNL1        0.0210
     23 C          -3.5306  -19.9041   21.0586 C.3     1  UNL1        0.0722
     24 C          -4.8162  -19.4798   21.1404 C.3     1  UNL1        0.0210
@<TRIPOS>BOND
     1    11    12    1
     2    12     1    1
     3     1     2    2
     4     2     3    1
     5     3     4    1
     6     3     5    2
     7     5     6    1
     8     6    13    1
     9    13    14    2
    10    13    15    1
    11    15    16    1
    12    16    17    1
    13    17    18    1
    14    18    19    1
    15    19    20    1
    16    20    21    1
    17    21    22    1
    18    20    23    1
    19    23    24    1
    20     6     7    2
    21     7     8    1
    22     8     9    2
    23     9    10    1
    24    10     1    1
    25     9     5    1
    26    22    17    1
    27    24    17    1
@<TRIPOS>MOLECULE
*****
 24 27 0 0 0
SMALL
GASTEIGER

@<TRIPOS>ATOM
      1 C         -12.8451  -18.1936   23.7469 C.2     1  UNL1        0.1230
      2 C         -12.4634  -17.6012   22.4228 C.2     1  UNL1        0.0442
      3 C         -11.1490  -17.9563   21.7932 C.2     1  UNL1        0.0617
      4 CL        -10.7673  -17.3640   20.4691 Cl      1  UNL1       -0.0821
      5 C         -10.2164  -18.9038   22.4878 C.2     1  UNL1        0.0324
      6 C          -8.8646  -19.4361   22.1143 C.2     1  UNL1        0.0966
      7 C          -8.4108  -20.3574   23.2075 C.2     1  UNL1        0.1049
      8 N          -9.4822  -20.3945   24.2567 N.2     1  UNL1       -0.2475
      9 C         -10.5981  -19.4962   23.8119 C.2     1  UNL1        0.0676
     10 C         -11.9124  -19.1411   24.4415 C.3     1  UNL1        0.1096
     11 C         -14.5500  -18.4466   25.6909 C.3     1  UNL1        0.2520
     12 O         -14.1594  -17.8385   24.3765 O.2     1  UNL1       -0.4753
     13 C          -8.1007  -19.1050   20.8665 C.2     1  UNL1        0.3428
     14 O          -8.5094  -19.7073   19.5549 O.2     1  UNL1       -0.2448
     15 O          -6.9281  -18.1718   20.9303 O.3     1  UNL1       -0.4454
     16 C          -6.0863  -18.1087   22.1703 C.3     1  UNL1        0.2087
     17 C          -6.2606  -16.9762   23.1383 C.3     1  UNL1        0.0445
     18 C          -7.6248  -16.4034   23.3847 C.3     1  UNL1        0.0210
     19 C          -7.7990  -15.2709   24.3527 C.3     1  UNL1        0.0722
     20 N          -6.6090  -14.7112   25.0743 N.3     1  UNL1       -0.2727
     21 C          -5.2448  -15.2841   24.8278 C.3     1  UNL1        0.0722
     22 C          -5.0706  -16.4166   23.8598 C.3     1  UNL1        0.0210
     23 C          -6.4640  -15.3319   24.5532 C.3     1  UNL1        0.0722
     24 C          -6.3064  -16.3560   23.6779 C.3     1  UNL1        0.0210
@<TRIPOS>BOND
     1    11    12    1
     2    12     1    1
     3     1     2    2
     4     2     3    1
     5     3     4    1
     6     3     5    2
     7     5     6    1
     8     6    13    1
     9    13    14    2
    10    13    15    1
    11    15    16    1
    12    16    17    1
    13    17    18    1
    14    18    19    1
    15    19    20    1
    16    20    21    1
    17    21    22    1
    18    20    23    1
    19    23    24    1
    20     6     7    2
    21     7     8    1
    22     8     9    2
    23     9    10    1
    24    10     1    1
    25     9     5    1
    26    22    17    1
    27    24    17    1
@<TRIPOS>MOLECULE
*****
 24 27 0 0 0
SMALL
GASTEIGER

@<TRIPOS>ATOM
      1 C          -3.3222  -18.8487   21.9359 C.2     1  UNL1        0.1230
      2 C          -4.6968  -19.3335   21.5821 C.2     1  UNL1        0.0442
      3 C          -5.9039  -18.6290   22.1269 C.2     1  UNL1        0.0617
      4 CL         -7.2786  -19.1139   21.7731 Cl      1  UNL1       -0.0821
      5 C          -5.7363  -17.4397   23.0254 C.2     1  UNL1        0.0324
      6 C          -6.7318  -16.5496   23.7085 C.2     1  UNL1        0.0966
      7 C          -5.9724  -15.5147   24.4845 C.2     1  UNL1        0.1049
      8 N          -4.5076  -15.7651   24.2809 N.2     1  UNL1       -0.2475
      9 C          -4.3616  -16.9548   23.3791 C.2     1  UNL1        0.0676
     10 C          -3.1546  -17.6593   22.8344 C.3     1  UNL1        0.1096
     11 C          -1.3027  -18.9164   20.3028 C.3     1  UNL1        0.2520
     12 O          -2.1151  -19.5531   21.3911 O.2     1  UNL1       -0.4753
     13 C          -8.2246  -16.6729   23.6296 C.2     1  UNL1        0.3428
     14 O          -8.9781  -15.9747   22.5365 O.2     1  UNL1       -0.2448
     15 O          -8.9640  -17.4944   24.6437 O.3     1  UNL1       -0.4454
     16 C          -9.8320  -18.6336   24.1975 C.3     1  UNL1        0.2087
     17 C         -10.9587  -18.3871   23.2386 C.3     1  UNL1        0.0445
     18 C         -10.7808  -18.6858   21.7794 C.3     1  UNL1        0.0210
     19 C         -11.9076  -18.4393   20.8206 C.3     1  UNL1        0.0722
     20 N         -13.2124  -17.8940   21.3209 N.3     1  UNL1       -0.2727
     21 C         -13.3904  -17.5953   22.7800 C.3     1  UNL1        0.0722
     22 C         -12.2635  -17.8419   23.7389 C.3     1  UNL1        0.0210
     23 C         -12.6238  -18.0127   21.8842 C.3     1  UNL1        0.0722
     24 C         -11.6050  -18.2356   22.7513 C.3     1  UNL1        0.0210
@<TRIPOS>BOND
     1    11    12    1
     2    12     1    1
     3     1     2    2
     4     2     3    1
     5     3     4    1
     6     3     5    2
     7     5     6    1
     8     6    13    1
     9    13    14    2
    10    13    15    1
    11    15    16    1
    12    16    17    1
    13    17    18    1
    14    18    19    1
    15    19    20    1
    16    20    21    1
    17    21    22    1
    18    20    23    1
    19    23    24    1
    20     6     7    2
    21     7     8    1
    22     8     9    2
    23     9    10    1
    24    10     1    1
    25     9     5    1
    26    22    17    1
    27    24    17    1
