@<TRIPOS>MOLECULE
*****
 21 24 0 0 0
SMALL
GASTEIGER

@<TRIPOS>ATOM
      1 O          -6.4849  -17.0878   22.9046 O.2     1  UNL1       -0.2448
      2 C          -7.3528  -17.9224   22.0103 C.2     1  UNL1        0.3428
      3 C          -8.6232  -18.5179   22.5409 C.2     1  UNL1        0.0958
      4 C          -8.7795  -19.8956   23.1130 C.2     1  UNL1        0.1049
      5 N         -10.2132  -20.0693   23.5182 N.2     1  UNL1       -0.2476
      6 C         -10.9431  -18.7989   23.1966 C.2     1  UNL1        0.0636
      7 C         -12.3754  -18.3913   23.3757 C.3     1  UNL1        0.0717
      8 C         -12.8251  -17.0249   22.9508 C.2     1  UNL1       -0.0198
      9 C         -11.8424  -16.0661   22.3467 C.2     1  UNL1       -0.0041
     10 C         -10.4100  -16.4736   22.1676 C.2     1  UNL1        0.0011
     11 C          -9.9604  -17.8400   22.5925 C.2     1  UNL1        0.0216
     12 O          -6.9504  -18.1616   20.5851 O.3     1  UNL1       -0.4454
     13 C          -6.0838  -19.3355   20.2374 C.3     1  UNL1        0.2087
     14 C          -4.5941  -19.2367   20.3821 C.3     1  UNL1        0.0445
     15 C          -3.7666  -18.6825   19.2605 C.3     1  UNL1        0.0210
     16 C          -2.2769  -18.5838   19.4053 C.3     1  UNL1        0.0722
     17 N          -1.6145  -19.0393   20.6717 N.3     1  UNL1       -0.2727
     18 C          -2.4420  -19.5936   21.7934 C.3     1  UNL1        0.0722
     19 C          -3.9318  -19.6923   21.6486 C.3     1  UNL1        0.0210
     20 C          -2.4340  -19.1130   20.6387 C.3     1  UNL1        0.0722
     21 C          -3.7810  -19.2023   20.5079 C.3     1  UNL1        0.0210
@<TRIPOS>BOND
     1     1     2    2
     2     2    12    1
     3    12    13    1
     4    13    14    1
     5    14    15    1
     6    15    16    1
     7    16    17    1
     8    17    18    1
     9    18    19    1
    10    17    20    1
    11    20    21    1
    12     2     3    1
    13     3     4    2
    14     4     5    1
    15     5     6    2
    16     6     7    1
    17     7     8    1
    18     8     9    2
    19     9    10    1
    20    10    11    2
    21    19    14    1
    22    11     3    1
    23    21    14    1
    24    11     6    1
@<TRIPOS>MOLECULE
*****
 21 24 0 0 0
SMALL
GASTEIGER

@<TRIPOS>ATOM
      1 O          -8.0315  -18.6847   20.3025 O.2     1  UNL1       -0.2448
      2 C          -8.1307  -18.1421   21.6973 C.2     1  UNL1        0.3428
      3 C          -9.1634  -18.6834   22.6410 C.2     1  UNL1        0.0958
      4 C          -9.0002  -19.8748   23.5376 C.2     1  UNL1        0.1049
      5 N         -10.2766  -20.0560   24.3044 N.2     1  UNL1       -0.2476
      6 C         -11.2286  -18.9766   23.8818 C.2     1  UNL1        0.0636
      7 C         -12.6330  -18.6567   24.3003 C.3     1  UNL1        0.0717
      8 C         -13.3494  -17.4883   23.6907 C.2     1  UNL1       -0.0198
      9 C         -12.6615  -16.6400   22.6626 C.2     1  UNL1       -0.0041
     10 C         -11.2570  -16.9600   22.2441 C.2     1  UNL1        0.0011
     11 C         -10.5406  -18.1283   22.8537 C.2     1  UNL1        0.0216
     12 O          -7.1972  -17.0580   22.1485 O.3     1  UNL1       -0.4454
     13 C          -7.7282  -15.8802   22.9106 C.3     1  UNL1        0.2087
     14 C          -7.4431  -15.7455   24.3771 C.3     1  UNL1        0.0445
     15 C          -8.5334  -15.9876   25.3784 C.3     1  UNL1        0.0210
     16 C          -8.2482  -15.8529   26.8449 C.3     1  UNL1        0.0722
     17 N          -6.8728  -15.4760   27.3101 N.3     1  UNL1       -0.2727
     18 C          -5.7826  -15.2339   26.3087 C.3     1  UNL1        0.0722
     19 C          -6.0677  -15.3687   24.8422 C.3     1  UNL1        0.0210
     20 C          -6.9812  -15.5378   26.4962 C.3     1  UNL1        0.0722
     21 C          -7.2389  -15.6596   25.1701 C.3     1  UNL1        0.0210
@<TRIPOS>BOND
     1     1     2    2
     2     2    12    1
     3    12    13    1
     4    13    14    1
     5    14    15    1
     6    15    16    1
     7    16    17    1
     8    17    18    1
     9    18    19    1
    10    17    20    1
    11    20    21    1
    12     2     3    1
    13     3     4    2
    14     4     5    1
    15     5     6    2
    16     6     7    1
    17     7     8    1
    18     8     9    2
    19     9    10    1
    20    10    11    2
    21    19    14    1
    22    11     3    1
    23    21    14    1
    24    11     6    1
@<TRIPOS>MOLECULE
*****
 21 24 0 0 0
SMALL
GASTEIGER

@<TRIPOS>ATOM
      1 O          -7.3769  -15.4421   22.5930 O.2     1  UNL1       -0.2448
      2 C          -8.1118  -16.5739   21.9382 C.2     1  UNL1        0.3428
      3 C          -9.6117  -16.5891   21.9297 C.2     1  UNL1        0.0958
      4 C         -10.4957  -15.8317   20.9837 C.2     1  UNL1        0.1049
      5 N         -11.9213  -16.1389   21.3350 N.2     1  UNL1       -0.2476
      6 C         -11.9183  -17.0861   22.4981 C.2     1  UNL1        0.0636
      7 C         -13.0309  -17.7311   23.2701 C.3     1  UNL1        0.0717
      8 C         -12.7161  -18.6545   24.4095 C.2     1  UNL1       -0.0198
      9 C         -11.2887  -18.9327   24.7770 C.2     1  UNL1       -0.0041
     10 C         -10.1761  -18.2876   24.0051 C.2     1  UNL1        0.0011
     11 C         -10.4909  -17.3643   22.8657 C.2     1  UNL1        0.0216
     12 O          -7.3467  -17.6907   21.2919 O.3     1  UNL1       -0.4454
     13 C          -6.6333  -18.7007   22.1409 C.3     1  UNL1        0.2087
     14 C          -5.1587  -18.9162   21.9703 C.3     1  UNL1        0.0445
     15 C          -4.6560  -19.8751   20.9322 C.3     1  UNL1        0.0210
     16 C          -3.1814  -20.0905   20.7617 C.3     1  UNL1        0.0722
     17 N          -2.2094  -19.3470   21.6292 N.3     1  UNL1       -0.2727
     18 C          -2.7121  -18.3881   22.6673 C.3     1  UNL1        0.0722
     19 C          -4.1868  -18.1727   22.8379 C.3     1  UNL1        0.0210
     20 C          -3.0083  -19.1960   21.7596 C.3     1  UNL1        0.0722
     21 C          -4.3416  -19.0011   21.9139 C.3     1  UNL1        0.0210
@<TRIPOS>BOND
     1     1     2    2
     2     2    12    1
     3    12    13    1
     4    13    14    1
     5    14    15    1
     6    15    16    1
     7    16    17    1
     8    17    18    1
     9    18    19    1
    10    17    20    1
    11    20    21    1
    12     2     3    1
    13     3     4    2
    14     4     5    1
    15     5     6    2
    16     6     7    1
    17     7     8    1
    18     8     9    2
    19     9    10    1
    20    10    11    2
    21    19    14    1
    22    11     3    1
    23    21    14    1
    24    11     6    1
@<TRIPOS>MOLECULE
*****
 21 24 0 0 0
SMALL
GASTEIGER

@<TRIPOS>ATOM
      1 O          -6.6619  -21.3792   19.7546 O.2     1  UNL1       -0.2448
      2 C          -7.0603  -19.9492   19.9697 C.2     1  UNL1        0.3428
      3 C          -6.3837  -19.1336   21.0313 C.2     1  UNL1        0.0958
      4 C          -7.0607  -18.2032   21.9936 C.2     1  UNL1        0.1049
      5 N          -6.0068  -17.5998   22.8740 N.2     1  UNL1       -0.2476
      6 C          -4.6785  -18.1573   22.4559 C.2     1  UNL1        0.0636
      7 C          -3.2869  -17.9242   22.9650 C.3     1  UNL1        0.0717
      8 C          -2.1284  -18.6391   22.3352 C.2     1  UNL1       -0.0198
      9 C          -2.3614  -19.5871   21.1963 C.2     1  UNL1       -0.0041
     10 C          -3.7529  -19.8201   20.6872 C.2     1  UNL1        0.0011
     11 C          -4.9115  -19.1053   21.3170 C.2     1  UNL1        0.0216
     12 O          -8.1353  -19.3347   19.1229 O.3     1  UNL1       -0.4454
     13 C          -9.5560  -19.7949   19.2640 C.3     1  UNL1        0.2087
     14 C         -10.4556  -19.1515   20.2771 C.3     1  UNL1        0.0445
     15 C         -10.6088  -19.7614   21.6389 C.3     1  UNL1        0.0210
     16 C         -11.5084  -19.1179   22.6521 C.3     1  UNL1        0.0722
     17 N         -12.2550  -17.8644   22.3035 N.3     1  UNL1       -0.2727
     18 C         -12.1019  -17.2545   20.9417 C.3     1  UNL1        0.0722
     19 C         -11.2021  -17.8980   19.9285 C.3     1  UNL1        0.0210
     20 C         -11.7736  -18.1809   21.7152 C.3     1  UNL1        0.0722
     21 C         -10.9601  -18.7627   20.7990 C.3     1  UNL1        0.0210
@<TRIPOS>BOND
     1     1     2    2
     2     2    12    1
     3    12    13    1
     4    13    14    1
     5    14    15    1
     6    15    16    1
     7    16    17    1
     8    17    18    1
     9    18    19    1
    10    17    20    1
    11    20    21    1
    12     2     3    1
    13     3     4    2
    14     4     5    1
    15     5     6    2
    16     6     7    1
    17     7     8    1
    18     8     9    2
    19     9    10    1
    20    10    11    2
    21    19    14    1
    22    11     3    1
    23    21    14    1
    24    11     6    1
@<TRIPOS>MOLECULE
*****
 21 24 0 0 0
SMALL
GASTEIGER

@<TRIPOS>ATOM
      1 O         -12.4526  -18.3778   23.6008 O.2     1  UNL1       -0.2448
      2 C         -11.0036  -18.1058   23.3250 C.2     1  UNL1        0.3428
      3 C         -10.4344  -18.3808   21.9648 C.2     1  UNL1        0.0958
      4 C         -11.1013  -18.0861   20.6539 C.2     1  UNL1        0.1049
      5 N         -10.1773  -18.5220   19.5555 N.2     1  UNL1       -0.2476
      6 C          -8.9394  -19.0861   20.1876 C.2     1  UNL1        0.0636
      7 C          -7.6881  -19.6679   19.5996 C.3     1  UNL1        0.0717
      8 C          -6.5957  -20.1624   20.5007 C.2     1  UNL1       -0.0198
      9 C          -6.7546  -20.0751   21.9897 C.2     1  UNL1       -0.0041
     10 C          -8.0059  -19.4933   22.5777 C.2     1  UNL1        0.0011
     11 C          -9.0983  -18.9988   21.6766 C.2     1  UNL1        0.0216
     12 O         -10.1236  -17.5586   24.4097 O.3     1  UNL1       -0.4454
     13 C          -9.4942  -16.2059   24.2540 C.3     1  UNL1        0.2087
     14 C          -8.2104  -15.8902   24.9624 C.3     1  UNL1        0.0445
     15 C          -6.9378  -15.7482   24.1811 C.3     1  UNL1        0.0210
     16 C          -5.6540  -15.4324   24.8896 C.3     1  UNL1        0.0722
     17 N          -5.6426  -15.2585   26.3795 N.3     1  UNL1       -0.2727
     18 C          -6.9152  -15.4005   27.1608 C.3     1  UNL1        0.0722
     19 C          -8.1991  -15.7163   26.4523 C.3     1  UNL1        0.0210
     20 C          -6.3705  -15.4310   26.0354 C.3     1  UNL1        0.0722
     21 C          -7.5315  -15.7165   25.3948 C.3     1  UNL1        0.0210
@<TRIPOS>BOND
     1     1     2    2
     2     2    12    1
     3    12    13    1
     4    13    14    1
     5    14    15    1
     6    15    16    1
     7    16    17    1
     8    17    18    1
     9    18    19    1
    10    17    20    1
    11    20    21    1
    12     2     3    1
    13     3     4    2
    14     4     5    1
    15     5     6    2
    16     6     7    1
    17     7     8    1
    18     8     9    2
    19     9    10    1
    20    10    11    2
    21    19    14    1
    22    11     3    1
    23    21    14    1
    24    11     6    1
@<TRIPOS>MOLECULE
*****
 21 24 0 0 0
SMALL
GASTEIGER

@<TRIPOS>ATOM
      1 O          -7.9489  -15.7360   24.6225 O.2     1  UNL1       -0.2448
      2 C          -7.3164  -16.3487   23.4083 C.2     1  UNL1        0.3428
      3 C          -8.1034  -17.2925   22.5481 C.2     1  UNL1        0.0958
      4 C          -7.5381  -18.3981   21.7065 C.2     1  UNL1        0.1049
      5 N          -8.6791  -19.0853   21.0168 N.2     1  UNL1       -0.2476
      6 C          -9.9496  -18.4044   21.4320 C.2     1  UNL1        0.0636
      7 C         -11.3845  -18.6502   21.0706 C.3     1  UNL1        0.0717
      8 C         -12.4635  -17.7880   21.6556 C.2     1  UNL1       -0.0198
      9 C         -12.1076  -16.6800   22.6020 C.2     1  UNL1       -0.0041
     10 C         -10.6727  -16.4342   22.9634 C.2     1  UNL1        0.0011
     11 C          -9.5937  -17.2964   22.3784 C.2     1  UNL1        0.0216
     12 O          -5.8968  -16.0176   23.0542 O.3     1  UNL1       -0.4454
     13 C          -4.7679  -16.7419   23.7258 C.3     1  UNL1        0.2087
     14 C          -3.8090  -17.5571   22.9097 C.3     1  UNL1        0.0445
     15 C          -4.0822  -19.0112   22.6627 C.3     1  UNL1        0.0210
     16 C          -3.1233  -19.8263   21.8466 C.3     1  UNL1        0.0722
     17 N          -1.8912  -19.1874   21.2775 N.3     1  UNL1       -0.2727
     18 C          -1.6180  -17.7334   21.5245 C.3     1  UNL1        0.0722
     19 C          -2.5770  -16.9181   22.3407 C.3     1  UNL1        0.0210
     20 C          -2.3874  -18.7002   21.7184 C.3     1  UNL1        0.0722
     21 C          -3.2544  -17.9630   22.4563 C.3     1  UNL1        0.0210
@<TRIPOS>BOND
     1     1     2    2
     2     2    12    1
     3    12    13    1
     4    13    14    1
     5    14    15    1
     6    15    16    1
     7    16    17    1
     8    17    18    1
     9    18    19    1
    10    17    20    1
    11    20    21    1
    12     2     3    1
    13     3     4    2
    14     4     5    1
    15     5     6    2
    16     6     7    1
    17     7     8    1
    18     8     9    2
    19     9    10    1
    20    10    11    2
    21    19    14    1
    22    11     3    1
    23    21    14    1
    24    11     6    1
@<TRIPOS>MOLECULE
*****
 21 24 0 0 0
SMALL
GASTEIGER

@<TRIPOS>ATOM
      1 O          -6.1855  -15.5956   23.1718 O.2     1  UNL1       -0.2448
      2 C          -6.6698  -17.0008   22.9701 C.2     1  UNL1        0.3428
      3 C          -8.1262  -17.3223   23.1295 C.2     1  UNL1        0.0958
      4 C          -9.0004  -16.9075   24.2756 C.2     1  UNL1        0.1049
      5 N         -10.3786  -17.4440   24.0251 N.2     1  UNL1       -0.2476
      6 C         -10.3562  -18.1904   22.7242 C.2     1  UNL1        0.0636
      7 C         -11.4234  -18.9288   21.9721 C.3     1  UNL1        0.0717
      8 C         -11.0986  -19.5919   20.6665 C.2     1  UNL1       -0.0198
      9 C          -9.7065  -19.5167   20.1130 C.2     1  UNL1       -0.0041
     10 C          -8.6393  -18.7784   20.8650 C.2     1  UNL1        0.0011
     11 C          -8.9641  -18.1152   22.1706 C.2     1  UNL1        0.0216
     12 O          -5.6975  -18.0845   22.6090 O.3     1  UNL1       -0.4454
     13 C          -4.2843  -18.0210   23.1077 C.3     1  UNL1        0.2087
     14 C          -3.1545  -17.8367   22.1384 C.3     1  UNL1        0.0445
     15 C          -2.7299  -18.9734   21.2565 C.3     1  UNL1        0.0210
     16 C          -1.6002  -18.7890   20.2872 C.3     1  UNL1        0.0722
     17 N          -0.8950  -17.4680   20.1996 N.3     1  UNL1       -0.2727
     18 C          -1.3196  -16.3313   21.0815 C.3     1  UNL1        0.0722
     19 C          -2.4494  -16.5157   22.0509 C.3     1  UNL1        0.0210
     20 C          -1.5085  -17.5213   20.7462 C.3     1  UNL1        0.0722
     21 C          -2.5301  -17.6879   21.6227 C.3     1  UNL1        0.0210
@<TRIPOS>BOND
     1     1     2    2
     2     2    12    1
     3    12    13    1
     4    13    14    1
     5    14    15    1
     6    15    16    1
     7    16    17    1
     8    17    18    1
     9    18    19    1
    10    17    20    1
    11    20    21    1
    12     2     3    1
    13     3     4    2
    14     4     5    1
    15     5     6    2
    16     6     7    1
    17     7     8    1
    18     8     9    2
    19     9    10    1
    20    10    11    2
    21    19    14    1
    22    11     3    1
    23    21    14    1
    24    11     6    1
@<TRIPOS>MOLECULE
*****
 21 24 0 0 0
SMALL
GASTEIGER

@<TRIPOS>ATOM
      1 O          -8.3338  -15.1980   26.0982 O.2     1  UNL1       -0.2448
      2 C          -7.5626  -15.8645   24.9979 C.2     1  UNL1        0.3428
      3 C          -8.2783  -16.3727   23.7816 C.2     1  UNL1        0.0958
      4 C          -8.2322  -15.7625   22.4121 C.2     1  UNL1        0.1049
      5 N          -9.0912  -16.5931   21.5054 N.2     1  UNL1       -0.2476
      6 C          -9.6683  -17.7166   22.3145 C.2     1  UNL1        0.0636
      7 C         -10.5864  -18.8461   21.9520 C.3     1  UNL1        0.0717
      8 C         -11.0021  -19.8393   22.9963 C.2     1  UNL1       -0.0198
      9 C         -10.4996  -19.7031   24.4031 C.2     1  UNL1       -0.0041
     10 C          -9.5816  -18.5737   24.7656 C.2     1  UNL1        0.0011
     11 C          -9.1659  -17.5804   23.7213 C.2     1  UNL1        0.0216
     12 O          -6.0754  -16.0228   25.1138 O.3     1  UNL1       -0.4454
     13 C          -5.2091  -15.8831   23.8972 C.3     1  UNL1        0.2087
     14 C          -4.5672  -17.0954   23.2905 C.3     1  UNL1        0.0445
     15 C          -3.0740  -17.1730   23.1709 C.3     1  UNL1        0.0210
     16 C          -2.4322  -18.3854   22.5641 C.3     1  UNL1        0.0722
     17 N          -3.2835  -19.5203   22.0769 N.3     1  UNL1       -0.2727
     18 C          -4.7767  -19.4427   22.1965 C.3     1  UNL1        0.0722
     19 C          -5.4186  -18.2303   22.8033 C.3     1  UNL1        0.0210
     20 C          -3.6807  -18.8765   22.4022 C.3     1  UNL1        0.0722
     21 C          -4.2611  -17.7803   22.9509 C.3     1  UNL1        0.0210
@<TRIPOS>BOND
     1     1     2    2
     2     2    12    1
     3    12    13    1
     4    13    14    1
     5    14    15    1
     6    15    16    1
     7    16    17    1
     8    17    18    1
     9    18    19    1
    10    17    20    1
    11    20    21    1
    12     2     3    1
    13     3     4    2
    14     4     5    1
    15     5     6    2
    16     6     7    1
    17     7     8    1
    18     8     9    2
    19     9    10    1
    20    10    11    2
    21    19    14    1
    22    11     3    1
    23    21    14    1
    24    11     6    1
@<TRIPOS>MOLECULE
*****
 21 24 0 0 0
SMALL
GASTEIGER

@<TRIPOS>ATOM
      1 O         -14.0677   -5.5086   20.0939 O.2     1  UNL1       -0.2448
      2 C         -14.3348   -6.1819   18.7804 C.2     1  UNL1        0.3428
      3 C         -14.9589   -7.5455   18.7498 C.2     1  UNL1        0.0958
      4 C         -14.2926   -8.8100   18.2947 C.2     1  UNL1        0.1049
      5 N         -15.2809   -9.9301   18.4325 N.2     1  UNL1       -0.2476
      6 C         -16.5578   -9.3578   18.9728 C.2     1  UNL1        0.0636
      7 C         -17.8761   -9.9882   19.3115 C.3     1  UNL1        0.0717
      8 C         -18.9953   -9.1449   19.8462 C.2     1  UNL1       -0.0198
      9 C         -18.7963   -7.6711   20.0423 C.2     1  UNL1       -0.0041
     10 C         -17.4781   -7.0407   19.7036 C.2     1  UNL1        0.0011
     11 C         -16.3588   -7.8840   19.1688 C.2     1  UNL1        0.0216
     12 O         -13.9777   -5.4914   17.4974 O.3     1  UNL1       -0.4454
     13 C         -12.6509   -5.7536   16.8487 C.3     1  UNL1        0.2087
     14 C         -11.4432   -6.0267   17.6952 C.3     1  UNL1        0.0445
     15 C         -10.8828   -7.4157   17.7766 C.3     1  UNL1        0.0210
     16 C          -9.6751   -7.6888   18.6232 C.3     1  UNL1        0.0722
     17 N          -9.0275   -6.5728   19.3884 N.3     1  UNL1       -0.2727
     18 C          -9.5879   -5.1838   19.3069 C.3     1  UNL1        0.0722
     19 C         -10.7957   -4.9107   18.4603 C.3     1  UNL1        0.0210
     20 C          -9.6876   -6.3746   18.9378 C.3     1  UNL1        0.0722
     21 C         -10.7797   -6.1276   18.1723 C.3     1  UNL1        0.0210
@<TRIPOS>BOND
     1     1     2    2
     2     2    12    1
     3    12    13    1
     4    13    14    1
     5    14    15    1
     6    15    16    1
     7    16    17    1
     8    17    18    1
     9    18    19    1
    10    17    20    1
    11    20    21    1
    12     2     3    1
    13     3     4    2
    14     4     5    1
    15     5     6    2
    16     6     7    1
    17     7     8    1
    18     8     9    2
    19     9    10    1
    20    10    11    2
    21    19    14    1
    22    11     3    1
    23    21    14    1
    24    11     6    1
