@<TRIPOS>MOLECULE
*****
 39 42 0 0 0
SMALL
GASTEIGER

@<TRIPOS>ATOM
      1 C          -3.3825    3.3285   20.0026 C.3     1  UNL1        0.0771
      2 C          -4.0330    3.6641   18.6934 C.3     1  UNL1        0.0370
      3 C          -3.1984    4.1392   17.5412 C.3     1  UNL1        0.0747
      4 N          -1.7132    4.2788   17.6983 N.3     1  UNL1       -0.2598
      5 C          -1.0626    3.9432   19.0075 C.3     1  UNL1        0.0760
      6 C          -1.8972    3.4680   20.1596 C.3     1  UNL1        0.0500
      7 N          -5.6025    3.3664   23.2920 N.am    1  UNL1       -0.2485
      8 C          -4.7679    3.8415   22.1398 C.2     1  UNL1        0.3058
      9 O          -4.4840    5.3049   21.9725 O.2     1  UNL1       -0.2524
     10 N          -4.2171    2.8533   21.1549 N.am    1  UNL1       -0.2901
     11 H          -5.7888    2.4060   23.4018 H       1  UNL1        0.1583
     12 H          -4.4034    1.8929   21.2647 H       1  UNL1        0.1509
     13 C          -6.4348    5.7240   26.2609 C.ar    1  UNL1        0.0803
     14 S          -5.5613    4.6906   25.6136 S.2     1  UNL1       -0.0488
     15 C          -6.1532    4.3547   24.2769 C.ar    1  UNL1        0.1664
     16 N          -7.3926    5.1804   24.0981 N.ar    1  UNL1       -0.2282
     17 C          -7.5667    6.0268   25.3243 C.ar    1  UNL1        0.0701
     18 C          -8.6775    7.0042   25.5705 C.3     1  UNL1        0.0528
     19 C          -5.1186    7.3509   27.8006 C.3     1  UNL1        0.0779
     20 C          -6.2151    6.3456   27.6083 C.2     1  UNL1        0.1807
     21 O          -7.0918    5.9619   28.7632 O.2     1  UNL1       -0.2908
     22 C          -0.8785    4.7540   16.5460 C.3     1  UNL1        0.1795
     23 C           0.5148    5.2551   16.7856 C.1     1  UNL1        0.0912
     24 N           1.9082    5.7563   17.0251 N.1     1  UNL1       -0.1944
     25 C          -1.2467    3.1324   21.4690 C.3     1  UNL1        0.0751
     26 N           0.0524    2.3828   21.4906 N.3     1  UNL1       -0.2726
     27 C           1.2213    2.9298   22.2551 C.3     1  UNL1        0.0721
     28 C           2.5204    2.1801   22.2767 C.3     1  UNL1        0.0174
     29 C           2.6505    0.8835   21.5338 C.3     1  UNL1        0.0031
     30 C           1.4816    0.3365   20.7693 C.3     1  UNL1        0.0204
     31 C           0.1825    1.0862   20.7477 C.3     1  UNL1        0.0724
     32 C           1.6117   -0.9601   20.0264 C.3     1  UNL1        0.0277
     33 C           2.9311   -1.3548   19.4320 C.ar    1  UNL1       -0.0220
     34 C           3.7195   -2.4791   20.0358 C.ar    1  UNL1       -0.0020
     35 C           5.0389   -2.8737   19.4413 C.ar    1  UNL1        0.0293
     36 C           5.5700   -2.1441   18.2431 C.ar    1  UNL1        0.1401
     37 F           6.8894   -2.5387   17.6486 F       1  UNL1       -0.2042
     38 C           4.7816   -1.0199   17.6393 C.ar    1  UNL1        0.0293
     39 C           3.4621   -0.6252   18.2338 C.ar    1  UNL1       -0.0020
@<TRIPOS>BOND
     1    19    20    1
     2    20    21    2
     3    20    13    1
     4    13    14   ar
     5    14    15   ar
     6    15     7    1
     7     7     8   am
     8     8     9    2
     9     8    10   am
    10     1    10    1
    11     1     2    1
    12     2     3    1
    13     3     4    1
    14     4    22    1
    15    22    23    1
    16    23    24    3
    17     4     5    1
    18     5     6    1
    19     6    25    1
    20    25    26    1
    21    26    27    1
    22    27    28    1
    23    28    29    1
    24    29    30    1
    25    30    32    1
    26    32    33    1
    27    33    34   ar
    28    34    35   ar
    29    35    36   ar
    30    36    37    1
    31    36    38   ar
    32    38    39   ar
    33    30    31    1
    34    15    16   ar
    35    16    17   ar
    36    17    18    1
    37    17    13   ar
    38     6     1    1
    39    31    26    1
    40    39    33   ar
    41     7    11    1
    42    10    12    1
@<TRIPOS>MOLECULE
*****
 39 42 0 0 0
SMALL
GASTEIGER

@<TRIPOS>ATOM
      1 C           3.5868   -0.1160   21.4199 C.3     1  UNL1        0.0771
      2 C           5.0521   -0.4312   21.3620 C.3     1  UNL1        0.0370
      3 C           5.5632   -1.4435   20.3802 C.3     1  UNL1        0.0747
      4 N           4.6090   -2.1405   19.4562 N.3     1  UNL1       -0.2598
      5 C           3.1437   -1.8252   19.5141 C.3     1  UNL1        0.0760
      6 C           2.6326   -0.8129   20.4960 C.3     1  UNL1        0.0500
      7 N           2.2444    1.4947   24.7895 N.am    1  UNL1       -0.2485
      8 C           2.7555    0.4825   23.8076 C.2     1  UNL1        0.3058
      9 O           2.9466   -0.9437   24.2315 O.2     1  UNL1       -0.2524
     10 N           3.0756    0.8963   22.4018 N.am    1  UNL1       -0.2901
     11 H           2.1189    2.4307   24.5113 H       1  UNL1        0.1583
     12 H           2.9502    1.8323   22.1236 H       1  UNL1        0.1509
     13 C           0.7385    0.7199   28.2820 C.ar    1  UNL1        0.0803
     14 S           0.6145    1.2840   26.8977 S.2     1  UNL1       -0.0488
     15 C           1.9243    1.0808   26.1953 C.ar    1  UNL1        0.1664
     16 N           2.8577    0.3911   27.1455 N.ar    1  UNL1       -0.2282
     17 C           2.1249    0.1680   28.4352 C.ar    1  UNL1        0.0701
     18 C           2.6808   -0.4912   29.6625 C.3     1  UNL1        0.0528
     19 C          -1.6308   -0.0001   29.0679 C.3     1  UNL1        0.0779
     20 C          -0.3354    0.7094   29.3292 C.2     1  UNL1        0.1807
     21 O          -0.1137    1.4084   30.6377 O.2     1  UNL1       -0.2908
     22 C           5.1202   -3.1528   18.4744 C.3     1  UNL1        0.1795
     23 C           4.9399   -4.6171   18.7445 C.1     1  UNL1        0.0912
     24 N           4.7597   -6.0816   19.0147 N.1     1  UNL1       -0.1944
     25 C           1.1672   -0.4976   20.5539 C.3     1  UNL1        0.0751
     26 N           0.6725    0.8506   20.1210 N.3     1  UNL1       -0.2726
     27 C           0.8309    1.2850   18.6940 C.3     1  UNL1        0.0721
     28 C           0.3362    2.6333   18.2610 C.3     1  UNL1        0.0174
     29 C          -0.3170    3.5472   19.2551 C.3     1  UNL1        0.0031
     30 C          -0.4754    3.1128   20.6821 C.3     1  UNL1        0.0204
     31 C           0.0193    1.7646   21.1150 C.3     1  UNL1        0.0724
     32 C          -1.1286    4.0268   21.6762 C.3     1  UNL1        0.0277
     33 C          -2.5958    3.8995   21.9608 C.ar    1  UNL1       -0.0220
     34 C          -3.0910    3.9334   23.3763 C.ar    1  UNL1       -0.0020
     35 C          -4.5582    3.8062   23.6609 C.ar    1  UNL1        0.0293
     36 C          -5.5303    3.6450   22.5299 C.ar    1  UNL1        0.1401
     37 F          -6.9976    3.5178   22.8145 F       1  UNL1       -0.2042
     38 C          -5.0352    3.6111   21.1144 C.ar    1  UNL1        0.0293
     39 C          -3.5679    3.7383   20.8299 C.ar    1  UNL1       -0.0020
@<TRIPOS>BOND
     1    19    20    1
     2    20    21    2
     3    20    13    1
     4    13    14   ar
     5    14    15   ar
     6    15     7    1
     7     7     8   am
     8     8     9    2
     9     8    10   am
    10     1    10    1
    11     1     2    1
    12     2     3    1
    13     3     4    1
    14     4    22    1
    15    22    23    1
    16    23    24    3
    17     4     5    1
    18     5     6    1
    19     6    25    1
    20    25    26    1
    21    26    27    1
    22    27    28    1
    23    28    29    1
    24    29    30    1
    25    30    32    1
    26    32    33    1
    27    33    34   ar
    28    34    35   ar
    29    35    36   ar
    30    36    37    1
    31    36    38   ar
    32    38    39   ar
    33    30    31    1
    34    15    16   ar
    35    16    17   ar
    36    17    18    1
    37    17    13   ar
    38     6     1    1
    39    31    26    1
    40    39    33   ar
    41     7    11    1
    42    10    12    1
@<TRIPOS>MOLECULE
*****
 39 42 0 0 0
SMALL
GASTEIGER

@<TRIPOS>ATOM
      1 C           8.3555   -4.6927   25.9106 C.3     1  UNL1        0.0771
      2 C           7.9872   -6.1044   26.2589 C.3     1  UNL1        0.0370
      3 C           7.5237   -6.4382   27.6459 C.3     1  UNL1        0.0747
      4 N           7.4285   -5.3602   28.6846 N.3     1  UNL1       -0.2598
      5 C           7.7968   -3.9485   28.3363 C.3     1  UNL1        0.0760
      6 C           8.2603   -3.6147   26.9493 C.3     1  UNL1        0.0500
      7 N           8.2795   -3.8105   22.0420 N.am    1  UNL1       -0.2485
      8 C           7.8161   -4.1442   23.4290 C.2     1  UNL1        0.3058
      9 O           6.3497   -4.2634   23.7215 O.2     1  UNL1       -0.2524
     10 N           8.8190   -4.3589   24.5236 N.am    1  UNL1       -0.2901
     11 H           9.2420   -3.7323   21.8501 H       1  UNL1        0.1583
     12 H           9.7815   -4.2807   24.3316 H       1  UNL1        0.1509
     13 C           6.0692   -2.6198   19.0819 C.ar    1  UNL1        0.0803
     14 S           7.2307   -2.4250   20.0109 S.2     1  UNL1       -0.0488
     15 C           7.2766   -3.5958   20.9474 C.ar    1  UNL1        0.1664
     16 N           6.1436   -4.5142   20.5972 N.ar    1  UNL1       -0.2282
     17 C           5.3974   -3.9111   19.4442 C.ar    1  UNL1        0.0701
     18 C           4.1911   -4.4964   18.7717 C.3     1  UNL1        0.0528
     19 C           4.1972   -1.4248   17.7339 C.3     1  UNL1        0.0779
     20 C           5.6528   -1.6872   17.9833 C.2     1  UNL1        0.1807
     21 O           6.6920   -1.0170   17.1343 O.2     1  UNL1       -0.2908
     22 C           6.9650   -5.6940   30.0716 C.3     1  UNL1        0.1795
     23 C           6.9134   -4.6252   31.1227 C.1     1  UNL1        0.0912
     24 N           6.8619   -3.5562   32.1738 N.1     1  UNL1       -0.1944
     25 C           8.6285   -2.2029   26.6009 C.3     1  UNL1        0.0751
     26 N           7.8478   -1.4598   25.5578 N.3     1  UNL1       -0.2726
     27 C           8.5664   -0.6738   24.5014 C.3     1  UNL1        0.0721
     28 C           7.7856    0.0694   23.4583 C.3     1  UNL1        0.0174
     29 C           6.2862    0.0265   23.4715 C.3     1  UNL1        0.0031
     30 C           5.5677   -0.7595   24.5279 C.3     1  UNL1        0.0204
     31 C           6.3485   -1.5026   25.5710 C.3     1  UNL1        0.0724
     32 C           4.0683   -0.8024   24.5411 C.3     1  UNL1        0.0277
     33 C           3.3036   -0.6964   23.2551 C.ar    1  UNL1       -0.0220
     34 C           3.5344   -1.6959   22.1607 C.ar    1  UNL1       -0.0020
     35 C           2.7697   -1.5900   20.8746 C.ar    1  UNL1        0.0293
     36 C           1.7742   -0.4844   20.6829 C.ar    1  UNL1        0.1401
     37 F           1.0095   -0.3784   19.3968 F       1  UNL1       -0.2042
     38 C           1.5434    0.5151   21.7773 C.ar    1  UNL1        0.0293
     39 C           2.3081    0.4091   23.0633 C.ar    1  UNL1       -0.0020
@<TRIPOS>BOND
     1    19    20    1
     2    20    21    2
     3    20    13    1
     4    13    14   ar
     5    14    15   ar
     6    15     7    1
     7     7     8   am
     8     8     9    2
     9     8    10   am
    10     1    10    1
    11     1     2    1
    12     2     3    1
    13     3     4    1
    14     4    22    1
    15    22    23    1
    16    23    24    3
    17     4     5    1
    18     5     6    1
    19     6    25    1
    20    25    26    1
    21    26    27    1
    22    27    28    1
    23    28    29    1
    24    29    30    1
    25    30    32    1
    26    32    33    1
    27    33    34   ar
    28    34    35   ar
    29    35    36   ar
    30    36    37    1
    31    36    38   ar
    32    38    39   ar
    33    30    31    1
    34    15    16   ar
    35    16    17   ar
    36    17    18    1
    37    17    13   ar
    38     6     1    1
    39    31    26    1
    40    39    33   ar
    41     7    11    1
    42    10    12    1
@<TRIPOS>MOLECULE
*****
 39 42 0 0 0
SMALL
GASTEIGER

@<TRIPOS>ATOM
      1 C           4.7964    1.0515   33.7662 C.3     1  UNL1        0.0771
      2 C           4.8377    2.4027   34.4161 C.3     1  UNL1        0.0370
      3 C           4.8724    2.5150   35.9114 C.3     1  UNL1        0.0747
      4 N           4.8658    1.2760   36.7569 N.3     1  UNL1       -0.2598
      5 C           4.8245   -0.0752   36.1071 C.3     1  UNL1        0.0760
      6 C           4.7898   -0.1875   34.6117 C.3     1  UNL1        0.0500
      7 N           3.4110    0.7629   30.0585 N.am    1  UNL1       -0.2485
      8 C           3.4458    0.8752   31.5538 C.2     1  UNL1        0.3058
      9 O           2.1644    0.9236   32.3323 O.2     1  UNL1       -0.2524
     10 N           4.7618    0.9391   32.2708 N.am    1  UNL1       -0.2901
     11 H           4.2520    0.7311   29.5476 H       1  UNL1        0.1583
     12 H           5.6027    0.9073   31.7599 H       1  UNL1        0.1509
     13 C           0.3021    1.1336   27.7644 C.ar    1  UNL1        0.0803
     14 S           1.6972    1.5239   28.1536 S.2     1  UNL1       -0.0488
     15 C           2.0950    0.6989   29.3415 C.ar    1  UNL1        0.1664
     16 N           0.9458   -0.2011   29.6866 N.ar    1  UNL1       -0.2282
     17 C          -0.1623    0.0675   28.7119 C.ar    1  UNL1        0.0701
     18 C          -1.5000   -0.6109   28.6888 C.3     1  UNL1        0.0528
     19 C          -0.0965    1.4068   25.2117 C.3     1  UNL1        0.0779
     20 C          -0.4896    1.7086   26.6275 C.2     1  UNL1        0.1807
     21 O          -1.6743    2.5853   26.9063 O.2     1  UNL1       -0.2908
     22 C           4.9005    1.3884   38.2524 C.3     1  UNL1        0.1795
     23 C           4.0322    2.3935   38.9493 C.1     1  UNL1        0.0912
     24 N           3.1639    3.3987   39.6463 N.1     1  UNL1       -0.1944
     25 C           4.7485   -1.5388   33.9618 C.3     1  UNL1        0.0751
     26 N           5.9691   -2.0797   33.2779 N.3     1  UNL1       -0.2726
     27 C           7.2545   -1.3074   33.3162 C.3     1  UNL1        0.0721
     28 C           8.4750   -1.8484   32.6323 C.3     1  UNL1        0.0174
     29 C           8.4102   -3.1616   31.9102 C.3     1  UNL1        0.0031
     30 C           7.1248   -3.9338   31.8720 C.3     1  UNL1        0.0204
     31 C           5.9043   -3.3929   32.5559 C.3     1  UNL1        0.0724
     32 C           7.0600   -5.2470   31.1499 C.3     1  UNL1        0.0277
     33 C           7.0999   -5.2813   29.6508 C.ar    1  UNL1       -0.0220
     34 C           7.7550   -6.4310   28.9441 C.ar    1  UNL1       -0.0020
     35 C           7.7950   -6.4653   27.4451 C.ar    1  UNL1        0.0293
     36 C           7.1799   -5.3500   26.6526 C.ar    1  UNL1        0.1401
     37 F           7.2199   -5.3843   25.1536 F       1  UNL1       -0.2042
     38 C           6.5249   -4.2004   27.3593 C.ar    1  UNL1        0.0293
     39 C           6.4849   -4.1661   28.8584 C.ar    1  UNL1       -0.0020
@<TRIPOS>BOND
     1    19    20    1
     2    20    21    2
     3    20    13    1
     4    13    14   ar
     5    14    15   ar
     6    15     7    1
     7     7     8   am
     8     8     9    2
     9     8    10   am
    10     1    10    1
    11     1     2    1
    12     2     3    1
    13     3     4    1
    14     4    22    1
    15    22    23    1
    16    23    24    3
    17     4     5    1
    18     5     6    1
    19     6    25    1
    20    25    26    1
    21    26    27    1
    22    27    28    1
    23    28    29    1
    24    29    30    1
    25    30    32    1
    26    32    33    1
    27    33    34   ar
    28    34    35   ar
    29    35    36   ar
    30    36    37    1
    31    36    38   ar
    32    38    39   ar
    33    30    31    1
    34    15    16   ar
    35    16    17   ar
    36    17    18    1
    37    17    13   ar
    38     6     1    1
    39    31    26    1
    40    39    33   ar
    41     7    11    1
    42    10    12    1
@<TRIPOS>MOLECULE
*****
 39 42 0 0 0
SMALL
GASTEIGER

@<TRIPOS>ATOM
      1 C           6.4534   -2.6726   27.9862 C.3     1  UNL1        0.0771
      2 C           6.2650   -4.0422   28.5682 C.3     1  UNL1        0.0370
      3 C           6.9423   -5.2238   27.9396 C.3     1  UNL1        0.0747
      4 N           7.8080   -5.0358   26.7292 N.3     1  UNL1       -0.2598
      5 C           7.9964   -3.6662   26.1472 C.3     1  UNL1        0.0760
      6 C           7.3191   -2.4846   26.7758 C.3     1  UNL1        0.0500
      7 N           3.6628   -0.0123   28.9272 N.am    1  UNL1       -0.2485
      8 C           4.3402   -1.1939   28.2987 C.2     1  UNL1        0.3058
      9 O           3.5816   -2.0784   27.3541 O.2     1  UNL1       -0.2524
     10 N           5.7761   -1.4910   28.6148 N.am    1  UNL1       -0.2901
     11 H           4.1607    0.5683   29.5471 H       1  UNL1        0.1583
     12 H           6.2740   -0.9104   29.2347 H       1  UNL1        0.1509
     13 C           0.2328    1.1687   27.5467 C.ar    1  UNL1        0.0803
     14 S           1.7316    1.1498   27.4901 S.2     1  UNL1       -0.0488
     15 C           2.2269    0.2848   28.6111 C.ar    1  UNL1        0.1664
     16 N           1.0342   -0.2308   29.3604 N.ar    1  UNL1       -0.2282
     17 C          -0.1982    0.3154   28.7026 C.ar    1  UNL1        0.0701
     18 C          -1.6132    0.0542   29.1264 C.3     1  UNL1        0.0528
     19 C          -0.4459    1.8416   25.1309 C.3     1  UNL1        0.0779
     20 C          -0.6755    1.9106   26.6116 C.2     1  UNL1        0.1807
     21 O          -1.8134    2.7215   27.1571 O.2     1  UNL1       -0.2908
     22 C           8.4853   -6.2174   26.1006 C.3     1  UNL1        0.1795
     23 C           8.1853   -7.6026   26.5916 C.1     1  UNL1        0.0912
     24 N           7.8853   -8.9879   27.0826 N.1     1  UNL1       -0.1944
     25 C           7.5075   -1.1149   26.1939 C.3     1  UNL1        0.0751
     26 N           6.3439   -0.3943   25.5801 N.3     1  UNL1       -0.2726
     27 C           6.1508    1.0714   25.8340 C.3     1  UNL1        0.0721
     28 C           4.9872    1.7920   25.2202 C.3     1  UNL1        0.0174
     29 C           4.0167    1.0469   24.3525 C.3     1  UNL1        0.0031
     30 C           4.2098   -0.4187   24.0985 C.3     1  UNL1        0.0204
     31 C           5.3734   -1.1393   24.7123 C.3     1  UNL1        0.0724
     32 C           3.2393   -1.1639   23.2307 C.3     1  UNL1        0.0277
     33 C           3.7122   -1.8164   21.9656 C.ar    1  UNL1       -0.0220
     34 C           3.5024   -1.1344   20.6462 C.ar    1  UNL1       -0.0020
     35 C           3.9753   -1.7869   19.3810 C.ar    1  UNL1        0.0293
     36 C           4.6582   -3.1214   19.4354 C.ar    1  UNL1        0.1401
     37 F           5.1312   -3.7739   18.1703 F       1  UNL1       -0.2042
     38 C           4.8680   -3.8033   20.7548 C.ar    1  UNL1        0.0293
     39 C           4.3951   -3.1508   22.0199 C.ar    1  UNL1       -0.0020
@<TRIPOS>BOND
     1    19    20    1
     2    20    21    2
     3    20    13    1
     4    13    14   ar
     5    14    15   ar
     6    15     7    1
     7     7     8   am
     8     8     9    2
     9     8    10   am
    10     1    10    1
    11     1     2    1
    12     2     3    1
    13     3     4    1
    14     4    22    1
    15    22    23    1
    16    23    24    3
    17     4     5    1
    18     5     6    1
    19     6    25    1
    20    25    26    1
    21    26    27    1
    22    27    28    1
    23    28    29    1
    24    29    30    1
    25    30    32    1
    26    32    33    1
    27    33    34   ar
    28    34    35   ar
    29    35    36   ar
    30    36    37    1
    31    36    38   ar
    32    38    39   ar
    33    30    31    1
    34    15    16   ar
    35    16    17   ar
    36    17    18    1
    37    17    13   ar
    38     6     1    1
    39    31    26    1
    40    39    33   ar
    41     7    11    1
    42    10    12    1
@<TRIPOS>MOLECULE
*****
 39 42 0 0 0
SMALL
GASTEIGER

@<TRIPOS>ATOM
      1 C           2.3616    1.1422   19.8375 C.3     1  UNL1        0.0771
      2 C           2.2717   -0.0656   18.9526 C.3     1  UNL1        0.0370
      3 C           3.1489   -1.2538   19.2142 C.3     1  UNL1        0.0747
      4 N           4.1160   -1.2342   20.3607 N.3     1  UNL1       -0.2598
      5 C           4.2059   -0.0264   21.2455 C.3     1  UNL1        0.0760
      6 C           3.3287    1.1618   20.9839 C.3     1  UNL1        0.0500
      7 N          -0.8132    3.5233   19.7972 N.am    1  UNL1       -0.2485
      8 C           0.0641    2.3351   20.0587 C.2     1  UNL1        0.3058
      9 O          -0.4788    1.1513   20.8030 O.2     1  UNL1       -0.2524
     10 N           1.4843    2.3306   19.5759 N.am    1  UNL1       -0.2901
     11 H          -0.4568    4.3003   19.3087 H       1  UNL1        0.1583
     12 H           1.8406    3.1075   19.0875 H       1  UNL1        0.1509
     13 C          -4.6503    3.7411   20.3399 C.ar    1  UNL1        0.0803
     14 S          -3.4427    3.8643   19.4587 S.2     1  UNL1       -0.0488
     15 C          -2.2333    3.5279   20.2799 C.ar    1  UNL1        0.1664
     16 N          -2.6936    3.1968   21.6686 N.ar    1  UNL1       -0.2282
     17 C          -4.1874    3.3285   21.7057 C.ar    1  UNL1        0.0701
     18 C          -5.0642    3.0897   22.8991 C.3     1  UNL1        0.0528
     19 C          -6.6581    3.2332   18.7713 C.3     1  UNL1        0.0779
     20 C          -6.0714    3.9873   19.9276 C.2     1  UNL1        0.1807
     21 O          -6.9056    4.9874   20.6716 O.2     1  UNL1       -0.2908
     22 C           4.9933   -2.4226   20.6222 C.3     1  UNL1        0.1795
     23 C           4.4793   -3.8068   20.3584 C.1     1  UNL1        0.0912
     24 N           3.9654   -5.1912   20.0946 N.1     1  UNL1       -0.1944
     25 C           3.4185    2.3697   21.8688 C.3     1  UNL1        0.0751
     26 N           2.2435    2.7724   22.7098 N.3     1  UNL1       -0.2726
     27 C           1.6832    4.1596   22.6005 C.3     1  UNL1        0.0721
     28 C           0.5082    4.5622   23.4415 C.3     1  UNL1        0.0174
     29 C          -0.1065    3.5777   24.3918 C.3     1  UNL1        0.0031
     30 C           0.4538    2.1906   24.5011 C.3     1  UNL1        0.0204
     31 C           1.6288    1.7880   23.6601 C.3     1  UNL1        0.0724
     32 C          -0.1608    1.2061   25.4514 C.3     1  UNL1        0.0277
     33 C           0.0904    1.3291   26.9251 C.ar    1  UNL1       -0.0220
     34 C          -0.8491    0.6866   27.9022 C.ar    1  UNL1       -0.0020
     35 C          -0.5979    0.8096   29.3759 C.ar    1  UNL1        0.0293
     36 C           0.5928    1.5751   29.8725 C.ar    1  UNL1        0.1401
     37 F           0.8439    1.6980   31.3462 F       1  UNL1       -0.2042
     38 C           1.5321    2.2175   28.8953 C.ar    1  UNL1        0.0293
     39 C           1.2809    2.0945   27.4216 C.ar    1  UNL1       -0.0020
@<TRIPOS>BOND
     1    19    20    1
     2    20    21    2
     3    20    13    1
     4    13    14   ar
     5    14    15   ar
     6    15     7    1
     7     7     8   am
     8     8     9    2
     9     8    10   am
    10     1    10    1
    11     1     2    1
    12     2     3    1
    13     3     4    1
    14     4    22    1
    15    22    23    1
    16    23    24    3
    17     4     5    1
    18     5     6    1
    19     6    25    1
    20    25    26    1
    21    26    27    1
    22    27    28    1
    23    28    29    1
    24    29    30    1
    25    30    32    1
    26    32    33    1
    27    33    34   ar
    28    34    35   ar
    29    35    36   ar
    30    36    37    1
    31    36    38   ar
    32    38    39   ar
    33    30    31    1
    34    15    16   ar
    35    16    17   ar
    36    17    18    1
    37    17    13   ar
    38     6     1    1
    39    31    26    1
    40    39    33   ar
    41     7    11    1
    42    10    12    1
@<TRIPOS>MOLECULE
*****
 39 42 0 0 0
SMALL
GASTEIGER

@<TRIPOS>ATOM
      1 C           2.6989    0.6202   21.6812 C.3     1  UNL1        0.0771
      2 C           4.1444    0.2313   21.7760 C.3     1  UNL1        0.0370
      3 C           4.7047   -0.8050   20.8474 C.3     1  UNL1        0.0747
      4 N           3.8193   -1.4523   19.8241 N.3     1  UNL1       -0.2598
      5 C           2.3738   -1.0633   19.7293 C.3     1  UNL1        0.0760
      6 C           1.8135   -0.0271   20.6579 C.3     1  UNL1        0.0500
      7 N           1.1699    2.3104   24.9301 N.am    1  UNL1       -0.2485
      8 C           1.7302    1.2742   24.0016 C.2     1  UNL1        0.3058
      9 O           1.8822   -0.1444   24.4648 O.2     1  UNL1       -0.2524
     10 N           2.1386    1.6565   22.6098 N.am    1  UNL1       -0.2901
     11 H           1.0702    3.2415   24.6261 H       1  UNL1        0.1583
     12 H           2.0389    2.5876   22.3058 H       1  UNL1        0.1509
     13 C           0.7460    1.6757   28.7358 C.ar    1  UNL1        0.0803
     14 S           1.5132    2.2469   27.5803 S.2     1  UNL1       -0.0488
     15 C           0.7616    1.9281   26.3219 C.ar    1  UNL1        0.1664
     16 N          -0.4701    1.1598   26.6998 N.ar    1  UNL1       -0.2282
     17 C          -0.4797    1.0038   28.1916 C.ar    1  UNL1        0.0701
     18 C          -1.5306    0.2996   28.9977 C.3     1  UNL1        0.0528
     19 C           0.9360    3.0412   30.9379 C.3     1  UNL1        0.0779
     20 C           1.1361    1.7613   30.1816 C.2     1  UNL1        0.1807
     21 O           1.7263    0.5672   30.8712 O.2     1  UNL1       -0.2908
     22 C           4.3796   -2.4886   18.8955 C.3     1  UNL1        0.1795
     23 C           5.6962   -2.2537   18.2162 C.1     1  UNL1        0.0912
     24 N           7.0129   -2.0189   17.5370 N.1     1  UNL1       -0.1944
     25 C           0.3679    0.3619   20.5631 C.3     1  UNL1        0.0751
     26 N          -0.0224    1.6355   19.8734 N.3     1  UNL1       -0.2726
     27 C           0.5502    1.9649   18.5266 C.3     1  UNL1        0.0721
     28 C           0.1599    3.2385   17.8369 C.3     1  UNL1        0.0174
     29 C          -0.8030    4.1826   18.4939 C.3     1  UNL1        0.0031
     30 C          -1.3756    3.8531   19.8406 C.3     1  UNL1        0.0204
     31 C          -0.9853    2.5795   20.5303 C.3     1  UNL1        0.0724
     32 C          -2.3385    4.7972   20.4976 C.3     1  UNL1        0.0277
     33 C          -3.0155    4.4072   21.7780 C.ar    1  UNL1       -0.0220
     34 C          -2.4871    4.9096   23.0890 C.ar    1  UNL1       -0.0020
     35 C          -3.1642    4.5196   24.3694 C.ar    1  UNL1        0.0293
     36 C          -4.3695    3.6272   24.3389 C.ar    1  UNL1        0.1401
     37 F          -5.0465    3.2373   25.6194 F       1  UNL1       -0.2042
     38 C          -4.8978    3.1249   23.0280 C.ar    1  UNL1        0.0293
     39 C          -4.2208    3.5149   21.7476 C.ar    1  UNL1       -0.0020
@<TRIPOS>BOND
     1    19    20    1
     2    20    21    2
     3    20    13    1
     4    13    14   ar
     5    14    15   ar
     6    15     7    1
     7     7     8   am
     8     8     9    2
     9     8    10   am
    10     1    10    1
    11     1     2    1
    12     2     3    1
    13     3     4    1
    14     4    22    1
    15    22    23    1
    16    23    24    3
    17     4     5    1
    18     5     6    1
    19     6    25    1
    20    25    26    1
    21    26    27    1
    22    27    28    1
    23    28    29    1
    24    29    30    1
    25    30    32    1
    26    32    33    1
    27    33    34   ar
    28    34    35   ar
    29    35    36   ar
    30    36    37    1
    31    36    38   ar
    32    38    39   ar
    33    30    31    1
    34    15    16   ar
    35    16    17   ar
    36    17    18    1
    37    17    13   ar
    38     6     1    1
    39    31    26    1
    40    39    33   ar
    41     7    11    1
    42    10    12    1
@<TRIPOS>MOLECULE
*****
 39 42 0 0 0
SMALL
GASTEIGER

@<TRIPOS>ATOM
      1 C           6.7448   -2.4669   28.6931 C.3     1  UNL1        0.0771
      2 C           7.2370   -2.3486   27.2811 C.3     1  UNL1        0.0370
      3 C           8.0538   -3.4519   26.6767 C.3     1  UNL1        0.0747
      4 N           8.3785   -4.6736   27.4842 N.3     1  UNL1       -0.2598
      5 C           7.8863   -4.7919   28.8961 C.3     1  UNL1        0.0760
      6 C           7.0695   -3.6886   29.5006 C.3     1  UNL1        0.0500
      7 N           3.7079   -0.0203   29.4291 N.am    1  UNL1       -0.2485
      8 C           4.5248   -1.1236   28.8246 C.2     1  UNL1        0.3058
      9 O           3.9386   -1.9870   27.7471 O.2     1  UNL1       -0.2524
     10 N           5.9279   -1.3636   29.2976 N.am    1  UNL1       -0.2901
     11 H           4.0927    0.5463   30.1363 H       1  UNL1        0.1583
     12 H           6.3127   -0.7970   30.0048 H       1  UNL1        0.1509
     13 C           0.4068    1.0192   27.6720 C.ar    1  UNL1        0.0803
     14 S           1.9025    1.0568   27.7782 S.2     1  UNL1       -0.0488
     15 C           2.3049    0.2197   28.9561 C.ar    1  UNL1        0.1664
     16 N           1.0577   -0.3353   29.5779 N.ar    1  UNL1       -0.2282
     17 C          -0.1154    0.1588   28.7843 C.ar    1  UNL1        0.0701
     18 C          -1.5574   -0.1528   29.0554 C.3     1  UNL1        0.0528
     19 C          -0.1752    1.4603   25.1787 C.3     1  UNL1        0.0779
     20 C          -0.4214    1.7190   26.6356 C.2     1  UNL1        0.1807
     21 O          -1.4958    2.6776   27.0559 O.2     1  UNL1       -0.2908
     22 C           9.1954   -5.7769   26.8796 C.3     1  UNL1        0.1795
     23 C           8.5492   -7.0859   26.5345 C.1     1  UNL1        0.0912
     24 N           7.9031   -8.3949   26.1894 N.1     1  UNL1       -0.1944
     25 C           6.5772   -3.8070   30.9126 C.3     1  UNL1        0.0751
     26 N           6.8280   -2.6969   31.8898 N.3     1  UNL1       -0.2726
     27 C           8.1652   -2.0182   31.9270 C.3     1  UNL1        0.0721
     28 C           8.4160   -0.9082   32.9042 C.3     1  UNL1        0.0174
     29 C           7.3295   -0.4767   33.8441 C.3     1  UNL1        0.0031
     30 C           5.9923   -1.1553   33.8069 C.3     1  UNL1        0.0204
     31 C           5.7416   -2.2654   32.8297 C.3     1  UNL1        0.0724
     32 C           4.9058   -0.7239   34.7468 C.3     1  UNL1        0.0277
     33 C           3.9739    0.3851   34.3575 C.ar    1  UNL1       -0.0220
     34 C           3.6771    1.4906   35.3270 C.ar    1  UNL1       -0.0020
     35 C           2.7452    2.5996   34.9376 C.ar    1  UNL1        0.0293
     36 C           2.1101    2.6032   33.5787 C.ar    1  UNL1        0.1401
     37 F           1.1781    3.7122   33.1893 F       1  UNL1       -0.2042
     38 C           2.4068    1.4977   32.6092 C.ar    1  UNL1        0.0293
     39 C           3.3387    0.3887   32.9986 C.ar    1  UNL1       -0.0020
@<TRIPOS>BOND
     1    19    20    1
     2    20    21    2
     3    20    13    1
     4    13    14   ar
     5    14    15   ar
     6    15     7    1
     7     7     8   am
     8     8     9    2
     9     8    10   am
    10     1    10    1
    11     1     2    1
    12     2     3    1
    13     3     4    1
    14     4    22    1
    15    22    23    1
    16    23    24    3
    17     4     5    1
    18     5     6    1
    19     6    25    1
    20    25    26    1
    21    26    27    1
    22    27    28    1
    23    28    29    1
    24    29    30    1
    25    30    32    1
    26    32    33    1
    27    33    34   ar
    28    34    35   ar
    29    35    36   ar
    30    36    37    1
    31    36    38   ar
    32    38    39   ar
    33    30    31    1
    34    15    16   ar
    35    16    17   ar
    36    17    18    1
    37    17    13   ar
    38     6     1    1
    39    31    26    1
    40    39    33   ar
    41     7    11    1
    42    10    12    1
@<TRIPOS>MOLECULE
*****
 39 42 0 0 0
SMALL
GASTEIGER

@<TRIPOS>ATOM
      1 C           6.3831   -2.6808   28.1079 C.3     1  UNL1        0.0771
      2 C           6.3865   -4.0447   28.7322 C.3     1  UNL1        0.0370
      3 C           7.0947   -5.1789   28.0525 C.3     1  UNL1        0.0747
      4 N           7.7994   -4.9492   26.7485 N.3     1  UNL1       -0.2598
      5 C           7.7960   -3.5854   26.1241 C.3     1  UNL1        0.0760
      6 C           7.0879   -2.4512   26.8038 C.3     1  UNL1        0.0500
      7 N           3.5476   -0.0892   29.1046 N.am    1  UNL1       -0.2485
      8 C           4.2558   -1.2235   28.4249 C.2     1  UNL1        0.3058
      9 O           3.5447   -2.0347   27.3826 O.2     1  UNL1       -0.2524
     10 N           5.6750   -1.5465   28.7876 N.am    1  UNL1       -0.2901
     11 H           4.0142    0.4432   29.7887 H       1  UNL1        0.1583
     12 H           6.1416   -1.0141   29.4717 H       1  UNL1        0.1509
     13 C           0.1862    1.1478   27.6091 C.ar    1  UNL1        0.0803
     14 S           1.6853    1.0981   27.5988 S.2     1  UNL1       -0.0488
     15 C           2.1284    0.2338   28.7419 C.ar    1  UNL1        0.1664
     16 N           0.9030   -0.2507   29.4587 N.ar    1  UNL1       -0.2282
     17 C          -0.2973    0.3142   28.7586 C.ar    1  UNL1        0.0701
     18 C          -1.7296    0.0855   29.1409 C.3     1  UNL1        0.0528
     19 C          -0.4427    1.7640   25.1648 C.3     1  UNL1        0.0779
     20 C          -0.6778    1.8991   26.6401 C.2     1  UNL1        0.1807
     21 O          -1.7767    2.7856   27.1463 O.2     1  UNL1       -0.2908
     22 C           8.5076   -6.0836   26.0687 C.3     1  UNL1        0.1795
     23 C           8.2385   -7.4971   26.4922 C.1     1  UNL1        0.0912
     24 N           7.9695   -8.9108   26.9157 N.1     1  UNL1       -0.1944
     25 C           7.0844   -1.0873   26.1794 C.3     1  UNL1        0.0751
     26 N           6.7618   -0.9300   24.7230 N.3     1  UNL1       -0.2726
     27 C           7.7131   -0.2043   23.8182 C.3     1  UNL1        0.0721
     28 C           7.3905   -0.0470   22.3618 C.3     1  UNL1        0.0174
     29 C           6.1166   -0.6154   21.8101 C.3     1  UNL1        0.0031
     30 C           5.1654   -1.3410   22.7149 C.3     1  UNL1        0.0204
     31 C           5.4880   -1.4983   24.1713 C.3     1  UNL1        0.0724
     32 C           3.8915   -1.9094   22.1632 C.3     1  UNL1        0.0277
     33 C           2.8087   -0.9914   21.6786 C.ar    1  UNL1       -0.0220
     34 C           2.1724   -1.2232   20.3401 C.ar    1  UNL1       -0.0020
     35 C           1.0895   -0.3052   19.8555 C.ar    1  UNL1        0.0293
     36 C           0.6431    0.8445   20.7093 C.ar    1  UNL1        0.1401
     37 F          -0.4397    1.7624   20.2246 F       1  UNL1       -0.2042
     38 C           1.2795    1.0762   22.0477 C.ar    1  UNL1        0.0293
     39 C           2.3623    0.1583   22.5323 C.ar    1  UNL1       -0.0020
@<TRIPOS>BOND
     1    19    20    1
     2    20    21    2
     3    20    13    1
     4    13    14   ar
     5    14    15   ar
     6    15     7    1
     7     7     8   am
     8     8     9    2
     9     8    10   am
    10     1    10    1
    11     1     2    1
    12     2     3    1
    13     3     4    1
    14     4    22    1
    15    22    23    1
    16    23    24    3
    17     4     5    1
    18     5     6    1
    19     6    25    1
    20    25    26    1
    21    26    27    1
    22    27    28    1
    23    28    29    1
    24    29    30    1
    25    30    32    1
    26    32    33    1
    27    33    34   ar
    28    34    35   ar
    29    35    36   ar
    30    36    37    1
    31    36    38   ar
    32    38    39   ar
    33    30    31    1
    34    15    16   ar
    35    16    17   ar
    36    17    18    1
    37    17    13   ar
    38     6     1    1
    39    31    26    1
    40    39    33   ar
    41     7    11    1
    42    10    12    1
