@<TRIPOS>MOLECULE
*****
 34 36 0 0 0
SMALL
GASTEIGER

@<TRIPOS>ATOM
      1 C          -3.4361  -16.4691   23.0472 C.3     1  UNL1        0.1697
      2 O          -3.0831  -15.4918   21.9654 O.3     1  UNL1       -0.3793
      3 H          -3.7619  -14.8003   21.9203 H       1  UNL1        0.2106
      4 C          -4.6849  -16.2748   23.8552 C.3     1  UNL1        0.1020
      5 N          -5.6432  -15.1762   23.5022 N.3     1  UNL1       -0.2972
      6 H          -5.2063  -14.3006   23.7900 H       1  UNL1        0.1233
      7 C          -6.4567  -15.2257   25.4606 C.3     1  UNL1        0.0161
      8 C          -7.0294  -15.1773   24.0752 C.3     1  UNL1        0.0462
      9 C          -7.6023  -15.1288   22.6897 C.3     1  UNL1        0.0161
     10 C          -8.4157  -15.1783   24.6483 C.3     1  UNL1        0.0424
     11 C          -9.2353  -16.4344   24.6267 C.2     1  UNL1       -0.0006
     12 C          -9.0019  -17.6540   25.4682 C.2     1  UNL1        0.0942
     13 N         -10.0545  -18.6648   25.1214 N.2     1  UNL1       -0.2482
     14 C         -10.9384  -18.0700   24.0654 C.2     1  UNL1        0.0631
     15 C         -12.1388  -18.6054   23.3429 C.3     1  UNL1        0.0717
     16 C         -12.8329  -17.7624   22.3145 C.2     1  UNL1       -0.0198
     17 C         -12.3266  -16.3839   22.0088 C.2     1  UNL1       -0.0042
     18 C         -11.1262  -15.8485   22.7314 C.2     1  UNL1        0.0006
     19 C         -10.4321  -16.6915   23.7597 C.2     1  UNL1        0.0114
     20 C          -2.5404  -17.6407   23.3210 C.3     1  UNL1        0.2358
     21 O          -2.4522  -18.7647   22.3317 O.3     1  UNL1       -0.4721
     22 C          -3.6868  -19.2408   21.6252 C.ar    1  UNL1        0.1482
     23 C          -4.8480  -19.7661   22.4162 C.ar    1  UNL1        0.0373
     24 C          -6.0826  -20.2422   21.7098 C.ar    1  UNL1       -0.0011
     25 C          -6.1560  -20.1930   20.2124 C.ar    1  UNL1       -0.0209
     26 C          -4.9948  -19.6677   19.4214 C.ar    1  UNL1        0.0091
     27 C          -3.7602  -19.1916   20.1278 C.ar    1  UNL1        0.1020
     28 C          -2.5989  -18.6664   19.3370 C.1     1  UNL1        0.1035
     29 N          -1.4376  -18.1411   18.5461 N.1     1  UNL1       -0.1907
     30 C          -7.3906  -20.6691   19.5060 C.3     1  UNL1        0.0323
     31 C          -8.4515  -19.6871   19.1056 C.3     1  UNL1        0.0464
     32 C          -9.3935  -19.1390   20.1361 C.2     1  UNL1        0.0507
     33 O         -10.7316  -19.7832   20.3473 O.co2   1  UNL1       -0.5492
     34 O          -8.9976  -17.9466   20.9555 O.co2   1  UNL1       -0.5492
@<TRIPOS>UNITY_ATOM_ATTR
33 1
charge -1
@<TRIPOS>BOND
     1     7     8    1
     2     8     9    1
     3     8    10    1
     4    10    11    1
     5    11    12    2
     6    12    13    1
     7    13    14    2
     8    14    15    1
     9    15    16    1
    10    16    17    2
    11    17    18    1
    12    18    19    2
    13     8     5    1
    14     5     4    1
    15     4     1    1
    16     1     2    1
    17     1    20    1
    18    20    21    1
    19    21    22    1
    20    22    23   ar
    21    23    24   ar
    22    24    25   ar
    23    25    30    1
    24    30    31    1
    25    31    32    1
    26    32    33   ar
    27    32    34   ar
    28    25    26   ar
    29    26    27   ar
    30    27    28    1
    31    28    29    3
    32    19    11    1
    33    27    22   ar
    34    19    14    1
    35     5     6    1
    36     2     3    1
@<TRIPOS>MOLECULE
*****
 34 36 0 0 0
SMALL
GASTEIGER

@<TRIPOS>ATOM
      1 C          -9.1225  -16.9939   25.4292 C.3     1  UNL1        0.1697
      2 O          -8.1737  -16.3354   26.3864 O.3     1  UNL1       -0.3793
      3 H          -8.2451  -16.7598   27.2557 H       1  UNL1        0.2106
      4 C          -9.9887  -18.1276   25.8924 C.3     1  UNL1        0.1020
      5 N          -9.7361  -19.5181   25.3899 N.3     1  UNL1       -0.2972
      6 H          -8.7244  -19.6263   25.3189 H       1  UNL1        0.1233
      7 C          -8.9784  -20.5178   23.6793 C.3     1  UNL1        0.0161
      8 C         -10.3118  -19.9571   24.0762 C.3     1  UNL1        0.0462
      9 C         -11.6453  -19.3964   24.4731 C.3     1  UNL1        0.0161
     10 C         -10.8875  -20.3961   22.7624 C.3     1  UNL1        0.0424
     11 C         -10.6392  -19.5840   21.5259 C.2     1  UNL1       -0.0006
     12 C          -9.6596  -19.9113   20.4381 C.2     1  UNL1        0.0942
     13 N          -9.7419  -18.8316   19.4001 N.2     1  UNL1       -0.2482
     14 C         -10.7724  -17.8371   19.8464 C.2     1  UNL1        0.0631
     15 C         -11.2773  -16.5682   19.2261 C.3     1  UNL1        0.0717
     16 C         -12.3368  -15.7643   19.9197 C.2     1  UNL1       -0.0198
     17 C         -12.8914  -16.2293   21.2336 C.2     1  UNL1       -0.0042
     18 C         -12.3864  -17.4982   21.8538 C.2     1  UNL1        0.0006
     19 C         -11.3269  -18.3021   21.1602 C.2     1  UNL1        0.0114
     20 C          -9.2051  -16.5188   24.0089 C.3     1  UNL1        0.2358
     21 O          -7.9822  -15.9837   23.3247 O.3     1  UNL1       -0.4721
     22 C          -6.8420  -16.9025   22.9995 C.ar    1  UNL1        0.1482
     23 C          -7.0284  -18.0037   21.9982 C.ar    1  UNL1        0.0373
     24 C          -5.8882  -18.9226   21.6731 C.ar    1  UNL1       -0.0011
     25 C          -4.5617  -18.7403   22.3493 C.ar    1  UNL1       -0.0209
     26 C          -4.3754  -17.6391   23.3506 C.ar    1  UNL1        0.0091
     27 C          -5.5156  -16.7202   23.6757 C.ar    1  UNL1        0.1020
     28 C          -5.3293  -15.6190   24.6770 C.1     1  UNL1        0.1035
     29 N          -5.1431  -14.5179   25.6784 N.1     1  UNL1       -0.1907
     30 C          -3.4216  -19.6591   22.0241 C.3     1  UNL1        0.0323
     31 C          -2.8595  -19.6942   20.6339 C.3     1  UNL1        0.0464
     32 C          -1.9925  -18.5713   20.1468 C.2     1  UNL1        0.0507
     33 O          -2.5685  -17.1961   19.9818 O.co2   1  UNL1       -0.5492
     34 O          -0.5493  -18.8234   19.8248 O.co2   1  UNL1       -0.5492
@<TRIPOS>UNITY_ATOM_ATTR
33 1
charge -1
@<TRIPOS>BOND
     1     7     8    1
     2     8     9    1
     3     8    10    1
     4    10    11    1
     5    11    12    2
     6    12    13    1
     7    13    14    2
     8    14    15    1
     9    15    16    1
    10    16    17    2
    11    17    18    1
    12    18    19    2
    13     8     5    1
    14     5     4    1
    15     4     1    1
    16     1     2    1
    17     1    20    1
    18    20    21    1
    19    21    22    1
    20    22    23   ar
    21    23    24   ar
    22    24    25   ar
    23    25    30    1
    24    30    31    1
    25    31    32    1
    26    32    33   ar
    27    32    34   ar
    28    25    26   ar
    29    26    27   ar
    30    27    28    1
    31    28    29    3
    32    19    11    1
    33    27    22   ar
    34    19    14    1
    35     5     6    1
    36     2     3    1
@<TRIPOS>MOLECULE
*****
 34 36 0 0 0
SMALL
GASTEIGER

@<TRIPOS>ATOM
      1 C          -8.3289  -15.5236   26.1877 C.3     1  UNL1        0.1697
      2 O          -8.5631  -14.7457   27.4487 O.3     1  UNL1       -0.3793
      3 H          -8.3843  -13.8062   27.2869 H       1  UNL1        0.2106
      4 C          -7.8861  -14.8161   24.9413 C.3     1  UNL1        0.1020
      5 N          -6.4237  -14.6681   24.6423 N.3     1  UNL1       -0.2972
      6 H          -6.3531  -14.1472   23.7682 H       1  UNL1        0.1233
      7 C          -6.3925  -16.3288   23.3229 C.3     1  UNL1        0.0161
      8 C          -5.5620  -15.8865   24.4910 C.3     1  UNL1        0.0462
      9 C          -4.7315  -15.4443   25.6592 C.3     1  UNL1        0.0161
     10 C          -4.7003  -17.1051   24.3397 C.3     1  UNL1        0.0424
     11 C          -3.9536  -17.3415   23.0604 C.2     1  UNL1       -0.0006
     12 C          -2.8297  -16.5030   22.5278 C.2     1  UNL1        0.0942
     13 N          -2.3812  -17.1012   21.2274 N.2     1  UNL1       -0.2482
     14 C          -3.2280  -18.3093   20.9563 C.2     1  UNL1        0.0631
     15 C          -3.2396  -19.2933   19.8243 C.3     1  UNL1        0.0717
     16 C          -4.2231  -20.4258   19.8252 C.2     1  UNL1       -0.0198
     17 C          -5.1950  -20.5744   20.9581 C.2     1  UNL1       -0.0042
     18 C          -5.1833  -19.5903   22.0901 C.2     1  UNL1        0.0006
     19 C          -4.1998  -18.4578   22.0892 C.2     1  UNL1        0.0114
     20 C          -8.5375  -17.0089   26.1730 C.3     1  UNL1        0.2358
     21 O          -9.8303  -17.5798   25.6704 O.3     1  UNL1       -0.4721
     22 C         -10.0551  -17.7439   24.1964 C.ar    1  UNL1        0.1482
     23 C         -10.2674  -16.5371   23.3313 C.ar    1  UNL1        0.0373
     24 C         -10.4922  -16.7012   21.8573 C.ar    1  UNL1       -0.0011
     25 C         -10.5047  -18.0720   21.2486 C.ar    1  UNL1       -0.0209
     26 C         -10.2923  -19.2788   22.1137 C.ar    1  UNL1        0.0091
     27 C         -10.0675  -19.1148   23.5877 C.ar    1  UNL1        0.1020
     28 C          -9.8551  -20.3215   24.4529 C.1     1  UNL1        0.1035
     29 N          -9.6427  -21.5282   25.3182 N.1     1  UNL1       -0.1907
     30 C         -10.7295  -18.2361   19.7746 C.3     1  UNL1        0.0323
     31 C         -10.4893  -19.5654   19.1226 C.3     1  UNL1        0.0464
     32 C          -9.1039  -19.9530   18.6977 C.2     1  UNL1        0.0507
     33 O          -7.9165  -19.2322   19.2637 O.co2   1  UNL1       -0.5492
     34 O          -8.9060  -21.0615   17.7067 O.co2   1  UNL1       -0.5492
@<TRIPOS>UNITY_ATOM_ATTR
33 1
charge -1
@<TRIPOS>BOND
     1     7     8    1
     2     8     9    1
     3     8    10    1
     4    10    11    1
     5    11    12    2
     6    12    13    1
     7    13    14    2
     8    14    15    1
     9    15    16    1
    10    16    17    2
    11    17    18    1
    12    18    19    2
    13     8     5    1
    14     5     4    1
    15     4     1    1
    16     1     2    1
    17     1    20    1
    18    20    21    1
    19    21    22    1
    20    22    23   ar
    21    23    24   ar
    22    24    25   ar
    23    25    30    1
    24    30    31    1
    25    31    32    1
    26    32    33   ar
    27    32    34   ar
    28    25    26   ar
    29    26    27   ar
    30    27    28    1
    31    28    29    3
    32    19    11    1
    33    27    22   ar
    34    19    14    1
    35     5     6    1
    36     2     3    1
@<TRIPOS>MOLECULE
*****
 34 36 0 0 0
SMALL
GASTEIGER

@<TRIPOS>ATOM
      1 C          -8.7988  -16.5153   26.6188 C.3     1  UNL1        0.1697
      2 O          -8.8737  -16.9149   28.0626 O.3     1  UNL1       -0.3793
      3 H          -9.0275  -17.8706   28.1261 H       1  UNL1        0.2106
      4 C          -8.9570  -17.5506   25.5449 C.3     1  UNL1        0.1020
      5 N         -10.1410  -18.4713   25.5593 N.3     1  UNL1       -0.2972
      6 H          -9.9370  -19.2027   26.2404 H       1  UNL1        0.1233
      7 C         -10.0060  -20.4524   24.8131 C.3     1  UNL1        0.0161
      8 C         -10.5700  -19.1613   24.2985 C.3     1  UNL1        0.0462
      9 C         -11.1341  -17.8702   23.7838 C.3     1  UNL1        0.0161
     10 C         -10.9990  -19.8514   23.0375 C.3     1  UNL1        0.0424
     11 C         -10.2809  -19.5753   21.7499 C.2     1  UNL1       -0.0006
     12 C         -10.9101  -19.1004   20.4737 C.2     1  UNL1        0.0942
     13 N          -9.8256  -18.9572   19.4475 N.2     1  UNL1       -0.2482
     14 C          -8.5260  -19.3436   20.0893 C.2     1  UNL1        0.0631
     15 C          -7.1229  -19.3970   19.5619 C.3     1  UNL1        0.0717
     16 C          -6.0011  -19.8324   20.4575 C.2     1  UNL1       -0.0198
     17 C          -6.2826  -20.2144   21.8805 C.2     1  UNL1       -0.0042
     18 C          -7.6857  -20.1610   22.4079 C.2     1  UNL1        0.0006
     19 C          -8.8075  -19.7256   21.5123 C.2     1  UNL1        0.0114
     20 C          -8.5658  -15.0805   26.2488 C.3     1  UNL1        0.2358
     21 O          -7.8577  -14.7409   24.9708 O.3     1  UNL1       -0.4721
     22 C          -6.6760  -15.5526   24.5295 C.ar    1  UNL1        0.1482
     23 C          -5.4658  -15.6552   25.4097 C.ar    1  UNL1        0.0373
     24 C          -4.2841  -16.4669   24.9684 C.ar    1  UNL1       -0.0011
     25 C          -4.3127  -17.1760   23.6469 C.ar    1  UNL1       -0.0209
     26 C          -5.5229  -17.0734   22.7667 C.ar    1  UNL1        0.0091
     27 C          -6.7046  -16.2617   23.2080 C.ar    1  UNL1        0.1020
     28 C          -7.9149  -16.1591   22.3279 C.1     1  UNL1        0.1035
     29 N          -9.1251  -16.0564   21.4478 N.1     1  UNL1       -0.1907
     30 C          -3.1310  -17.9877   23.2056 C.3     1  UNL1        0.0323
     31 C          -2.5493  -17.7835   21.8382 C.3     1  UNL1        0.0464
     32 C          -1.7302  -18.8671   21.2021 C.2     1  UNL1        0.0507
     33 O          -0.5944  -18.5109   20.2893 O.co2   1  UNL1       -0.5492
     34 O          -2.0469  -20.3070   21.4786 O.co2   1  UNL1       -0.5492
@<TRIPOS>UNITY_ATOM_ATTR
33 1
charge -1
@<TRIPOS>BOND
     1     7     8    1
     2     8     9    1
     3     8    10    1
     4    10    11    1
     5    11    12    2
     6    12    13    1
     7    13    14    2
     8    14    15    1
     9    15    16    1
    10    16    17    2
    11    17    18    1
    12    18    19    2
    13     8     5    1
    14     5     4    1
    15     4     1    1
    16     1     2    1
    17     1    20    1
    18    20    21    1
    19    21    22    1
    20    22    23   ar
    21    23    24   ar
    22    24    25   ar
    23    25    30    1
    24    30    31    1
    25    31    32    1
    26    32    33   ar
    27    32    34   ar
    28    25    26   ar
    29    26    27   ar
    30    27    28    1
    31    28    29    3
    32    19    11    1
    33    27    22   ar
    34    19    14    1
    35     5     6    1
    36     2     3    1
@<TRIPOS>MOLECULE
*****
 34 36 0 0 0
SMALL
GASTEIGER

@<TRIPOS>ATOM
      1 C          -8.2879  -15.5332   25.3850 C.3     1  UNL1        0.1697
      2 O          -8.1827  -14.9534   26.7644 O.3     1  UNL1       -0.3793
      3 H          -7.6399  -14.1500   26.7369 H       1  UNL1        0.2106
      4 C          -7.6017  -14.8593   24.2339 C.3     1  UNL1        0.1020
      5 N          -6.9849  -15.6827   23.1423 N.3     1  UNL1       -0.2972
      6 H          -7.7226  -16.2830   22.7737 H       1  UNL1        0.1233
      7 C          -5.0928  -15.4098   24.0616 C.3     1  UNL1        0.0161
      8 C          -5.8139  -16.5704   23.4429 C.3     1  UNL1        0.0462
      9 C          -6.5349  -17.7312   22.8243 C.3     1  UNL1        0.0161
     10 C          -4.6427  -17.4582   23.7437 C.3     1  UNL1        0.0424
     11 C          -3.9906  -18.2387   22.6411 C.2     1  UNL1       -0.0006
     12 C          -4.3636  -19.6233   22.2010 C.2     1  UNL1        0.0942
     13 N          -3.4544  -20.0117   21.0729 N.2     1  UNL1       -0.2482
     14 C          -2.5195  -18.8672   20.8159 C.2     1  UNL1        0.0631
     15 C          -1.4093  -18.6814   19.8245 C.3     1  UNL1        0.0717
     16 C          -0.6305  -17.3997   19.8023 C.2     1  UNL1       -0.0198
     17 C          -0.9618  -16.3038   20.7715 C.2     1  UNL1       -0.0042
     18 C          -2.0720  -16.4897   21.7628 C.2     1  UNL1        0.0006
     19 C          -2.8509  -17.7714   21.7850 C.2     1  UNL1        0.0114
     20 C          -9.0793  -16.7868   25.1566 C.3     1  UNL1        0.2358
     21 O         -10.2690  -16.7668   24.2434 O.3     1  UNL1       -0.4721
     22 C         -10.2237  -17.5013   22.9363 C.ar    1  UNL1        0.1482
     23 C         -10.3022  -16.7410   21.6457 C.ar    1  UNL1        0.0373
     24 C         -10.2568  -17.4754   20.3386 C.ar    1  UNL1       -0.0011
     25 C         -10.1329  -18.9702   20.3221 C.ar    1  UNL1       -0.0209
     26 C         -10.0544  -19.7305   21.6127 C.ar    1  UNL1        0.0091
     27 C         -10.0998  -18.9961   22.9198 C.ar    1  UNL1        0.1020
     28 C         -10.0213  -19.7563   24.2105 C.1     1  UNL1        0.1035
     29 N          -9.9427  -20.5165   25.5012 N.1     1  UNL1       -0.1907
     30 C         -10.0875  -19.7047   19.0150 C.3     1  UNL1        0.0323
     31 C          -8.8049  -20.3269   18.5484 C.3     1  UNL1        0.0464
     32 C          -7.5465  -20.1361   19.3421 C.2     1  UNL1        0.0507
     33 O          -7.0573  -18.7522   19.6512 O.co2   1  UNL1       -0.5492
     34 O          -6.7773  -21.3292   19.8266 O.co2   1  UNL1       -0.5492
@<TRIPOS>UNITY_ATOM_ATTR
33 1
charge -1
@<TRIPOS>BOND
     1     7     8    1
     2     8     9    1
     3     8    10    1
     4    10    11    1
     5    11    12    2
     6    12    13    1
     7    13    14    2
     8    14    15    1
     9    15    16    1
    10    16    17    2
    11    17    18    1
    12    18    19    2
    13     8     5    1
    14     5     4    1
    15     4     1    1
    16     1     2    1
    17     1    20    1
    18    20    21    1
    19    21    22    1
    20    22    23   ar
    21    23    24   ar
    22    24    25   ar
    23    25    30    1
    24    30    31    1
    25    31    32    1
    26    32    33   ar
    27    32    34   ar
    28    25    26   ar
    29    26    27   ar
    30    27    28    1
    31    28    29    3
    32    19    11    1
    33    27    22   ar
    34    19    14    1
    35     5     6    1
    36     2     3    1
@<TRIPOS>MOLECULE
*****
 34 36 0 0 0
SMALL
GASTEIGER

@<TRIPOS>ATOM
      1 C          -6.6034  -15.0752   26.8642 C.3     1  UNL1        0.1697
      2 O          -6.6049  -14.0783   27.9851 O.3     1  UNL1       -0.3793
      3 H          -5.6966  -13.7853   28.1585 H       1  UNL1        0.2106
      4 C          -5.3119  -15.4626   26.2069 C.3     1  UNL1        0.1020
      5 N          -5.2719  -16.6243   25.2589 N.3     1  UNL1       -0.2972
      6 H          -5.0649  -17.4527   25.8169 H       1  UNL1        0.1233
      7 C          -5.0350  -15.4636   23.4992 C.3     1  UNL1        0.0161
      8 C          -4.3061  -16.6230   24.1112 C.3     1  UNL1        0.0462
      9 C          -3.5772  -17.7823   24.7231 C.3     1  UNL1        0.0161
     10 C          -3.3403  -16.6215   22.9634 C.3     1  UNL1        0.0424
     11 C          -3.2086  -17.8357   22.0925 C.2     1  UNL1       -0.0006
     12 C          -1.9354  -18.3600   21.4975 C.2     1  UNL1        0.0942
     13 N          -2.2669  -19.5871   20.7010 N.2     1  UNL1       -0.2482
     14 C          -3.7450  -19.8211   20.8038 C.2     1  UNL1        0.0631
     15 C          -4.6361  -20.8800   20.2254 C.3     1  UNL1        0.0717
     16 C          -6.1092  -20.8564   20.5070 C.2     1  UNL1       -0.0198
     17 C          -6.6912  -19.7740   21.3670 C.2     1  UNL1       -0.0042
     18 C          -5.8001  -18.7151   21.9454 C.2     1  UNL1        0.0006
     19 C          -4.3270  -18.7387   21.6638 C.2     1  UNL1        0.0114
     20 C          -7.8932  -15.6846   26.4007 C.3     1  UNL1        0.2358
     21 O          -8.3449  -15.4963   24.9828 O.3     1  UNL1       -0.4721
     22 C          -9.0211  -16.6204   24.2555 C.ar    1  UNL1        0.1482
     23 C          -9.6941  -17.7161   25.0279 C.ar    1  UNL1        0.0373
     24 C         -10.3704  -18.8402   24.3006 C.ar    1  UNL1       -0.0011
     25 C         -10.3736  -18.8687   22.8009 C.ar    1  UNL1       -0.0209
     26 C          -9.7006  -17.7731   22.0284 C.ar    1  UNL1        0.0091
     27 C          -9.0244  -16.6489   22.7558 C.ar    1  UNL1        0.1020
     28 C          -8.3514  -15.5533   21.9834 C.1     1  UNL1        0.1035
     29 N          -7.6783  -14.4576   21.2112 N.1     1  UNL1       -0.1907
     30 C         -11.0499  -19.9928   22.0735 C.3     1  UNL1        0.0323
     31 C         -10.6001  -20.3714   20.6936 C.3     1  UNL1        0.0464
     32 C         -10.4249  -19.3132   19.6451 C.2     1  UNL1        0.0507
     33 O          -9.1332  -19.2128   18.8891 O.co2   1  UNL1       -0.5492
     34 O         -11.5415  -18.3553   19.3524 O.co2   1  UNL1       -0.5492
@<TRIPOS>UNITY_ATOM_ATTR
33 1
charge -1
@<TRIPOS>BOND
     1     7     8    1
     2     8     9    1
     3     8    10    1
     4    10    11    1
     5    11    12    2
     6    12    13    1
     7    13    14    2
     8    14    15    1
     9    15    16    1
    10    16    17    2
    11    17    18    1
    12    18    19    2
    13     8     5    1
    14     5     4    1
    15     4     1    1
    16     1     2    1
    17     1    20    1
    18    20    21    1
    19    21    22    1
    20    22    23   ar
    21    23    24   ar
    22    24    25   ar
    23    25    30    1
    24    30    31    1
    25    31    32    1
    26    32    33   ar
    27    32    34   ar
    28    25    26   ar
    29    26    27   ar
    30    27    28    1
    31    28    29    3
    32    19    11    1
    33    27    22   ar
    34    19    14    1
    35     5     6    1
    36     2     3    1
@<TRIPOS>MOLECULE
*****
 34 36 0 0 0
SMALL
GASTEIGER

@<TRIPOS>ATOM
      1 C           8.5112   -4.2621   21.0785 C.3     1  UNL1        0.1697
      2 O           9.5355   -3.8720   20.0546 O.3     1  UNL1       -0.3793
      3 H           9.1338   -3.2707   19.4081 H       1  UNL1        0.2106
      4 C           7.1147   -3.7223   20.9858 C.3     1  UNL1        0.1020
      5 N           6.0249   -4.5606   20.3862 N.3     1  UNL1       -0.2972
      6 H           6.4176   -5.0040   19.5558 H       1  UNL1        0.1233
      7 C           4.8541   -2.9385   21.0918 C.3     1  UNL1        0.0161
      8 C           4.7332   -3.9237   19.9672 C.3     1  UNL1        0.0462
      9 C           4.6121   -4.9089   18.8426 C.3     1  UNL1        0.0161
     10 C           3.4413   -3.2867   19.5483 C.3     1  UNL1        0.0424
     11 C           3.4429   -1.9119   18.9482 C.2     1  UNL1       -0.0006
     12 C           4.4111   -1.3980   17.9244 C.2     1  UNL1        0.0942
     13 N           4.0432    0.0218   17.6101 N.2     1  UNL1       -0.2482
     14 C           2.8475    0.3854   18.4398 C.2     1  UNL1        0.0631
     15 C           2.0487    1.6502   18.5491 C.3     1  UNL1        0.0717
     16 C           0.8789    1.7199   19.4853 C.2     1  UNL1       -0.0198
     17 C           0.5079    0.5247   20.3123 C.2     1  UNL1       -0.0042
     18 C           1.3067   -0.7401   20.2031 C.2     1  UNL1        0.0006
     19 C           2.4765   -0.8098   19.2668 C.2     1  UNL1        0.0114
     20 C           8.8832   -5.1918   22.1953 C.3     1  UNL1        0.2358
     21 O           7.8337   -6.0484   22.8393 O.3     1  UNL1       -0.4721
     22 C           7.9230   -6.3722   24.3012 C.ar    1  UNL1        0.1482
     23 C           8.6064   -7.6296   24.7504 C.ar    1  UNL1        0.0373
     24 C           8.6957   -7.9534   26.2123 C.ar    1  UNL1       -0.0011
     25 C           8.1016   -7.0197   27.2250 C.ar    1  UNL1       -0.0209
     26 C           7.4183   -5.7623   26.7757 C.ar    1  UNL1        0.0091
     27 C           7.3290   -5.4385   25.3138 C.ar    1  UNL1        0.1020
     28 C           6.6457   -4.1811   24.8644 C.1     1  UNL1        0.1035
     29 N           5.9623   -2.9237   24.4151 N.1     1  UNL1       -0.1907
     30 C           8.1910   -7.3435   28.6869 C.3     1  UNL1        0.0323
     31 C           8.4121   -6.2467   29.6859 C.3     1  UNL1        0.0464
     32 C           7.2471   -5.6623   30.4284 C.2     1  UNL1        0.0507
     33 O           6.8709   -6.2007   31.7769 O.co2   1  UNL1       -0.5492
     34 O           6.4583   -4.5396   29.8223 O.co2   1  UNL1       -0.5492
@<TRIPOS>UNITY_ATOM_ATTR
33 1
charge -1
@<TRIPOS>BOND
     1     7     8    1
     2     8     9    1
     3     8    10    1
     4    10    11    1
     5    11    12    2
     6    12    13    1
     7    13    14    2
     8    14    15    1
     9    15    16    1
    10    16    17    2
    11    17    18    1
    12    18    19    2
    13     8     5    1
    14     5     4    1
    15     4     1    1
    16     1     2    1
    17     1    20    1
    18    20    21    1
    19    21    22    1
    20    22    23   ar
    21    23    24   ar
    22    24    25   ar
    23    25    30    1
    24    30    31    1
    25    31    32    1
    26    32    33   ar
    27    32    34   ar
    28    25    26   ar
    29    26    27   ar
    30    27    28    1
    31    28    29    3
    32    19    11    1
    33    27    22   ar
    34    19    14    1
    35     5     6    1
    36     2     3    1
@<TRIPOS>MOLECULE
*****
 34 36 0 0 0
SMALL
GASTEIGER

@<TRIPOS>ATOM
      1 C           4.8514   -0.8333   17.1752 C.3     1  UNL1        0.1697
      2 O           3.7767   -1.2965   16.2369 O.3     1  UNL1       -0.3793
      3 H           3.6926   -2.2612   16.2926 H       1  UNL1        0.2106
      4 C           5.5984   -1.8303   18.0107 C.3     1  UNL1        0.1020
      5 N           5.0429   -3.2095   18.2081 N.3     1  UNL1       -0.2972
      6 H           4.1697   -3.2532   17.6827 H       1  UNL1        0.1233
      7 C           3.3622   -4.0975   19.1498 C.3     1  UNL1        0.0161
      8 C           4.7413   -3.7058   19.5911 C.3     1  UNL1        0.0462
      9 C           6.1204   -3.3143   20.0324 C.3     1  UNL1        0.0161
     10 C           4.4397   -4.2022   20.9741 C.3     1  UNL1        0.0424
     11 C           4.4694   -3.2526   22.1349 C.2     1  UNL1       -0.0006
     12 C           5.2637   -3.4257   23.3955 C.2     1  UNL1        0.0942
     13 N           4.9953   -2.2432   24.2785 N.2     1  UNL1       -0.2482
     14 C           4.0351   -1.3393   23.5636 C.2     1  UNL1        0.0631
     15 C           3.4147   -0.0288   23.9478 C.3     1  UNL1        0.0717
     16 C           2.4694    0.6578   23.0073 C.2     1  UNL1       -0.0198
     17 C           2.1444    0.0340   21.6824 C.2     1  UNL1       -0.0042
     18 C           2.7647   -1.2765   21.2982 C.2     1  UNL1        0.0006
     19 C           3.7101   -1.9632   22.2388 C.2     1  UNL1        0.0114
     20 C           5.1791    0.6268   17.2781 C.3     1  UNL1        0.2358
     21 O           4.6784    1.4277   18.4433 O.3     1  UNL1       -0.4721
     22 C           3.2928    2.0016   18.4190 C.ar    1  UNL1        0.1482
     23 C           2.1040    1.0891   18.3568 C.ar    1  UNL1        0.0373
     24 C           0.7183    1.6630   18.3324 C.ar    1  UNL1       -0.0011
     25 C           0.5215    3.1496   18.3702 C.ar    1  UNL1       -0.0209
     26 C           1.7104    4.0622   18.4323 C.ar    1  UNL1        0.0091
     27 C           3.0960    3.4882   18.4567 C.ar    1  UNL1        0.1020
     28 C           4.2848    4.4007   18.5188 C.1     1  UNL1        0.1035
     29 N           5.4737    5.3132   18.5810 N.1     1  UNL1       -0.1907
     30 C          -0.8641    3.7236   18.3458 C.3     1  UNL1        0.0323
     31 C          -1.5247    4.1433   19.6254 C.3     1  UNL1        0.0464
     32 C          -1.9881    3.1066   20.6054 C.2     1  UNL1        0.0507
     33 O          -3.4524    2.8180   20.7556 O.co2   1  UNL1       -0.5492
     34 O          -0.9873    2.3585   21.4352 O.co2   1  UNL1       -0.5492
@<TRIPOS>UNITY_ATOM_ATTR
33 1
charge -1
@<TRIPOS>BOND
     1     7     8    1
     2     8     9    1
     3     8    10    1
     4    10    11    1
     5    11    12    2
     6    12    13    1
     7    13    14    2
     8    14    15    1
     9    15    16    1
    10    16    17    2
    11    17    18    1
    12    18    19    2
    13     8     5    1
    14     5     4    1
    15     4     1    1
    16     1     2    1
    17     1    20    1
    18    20    21    1
    19    21    22    1
    20    22    23   ar
    21    23    24   ar
    22    24    25   ar
    23    25    30    1
    24    30    31    1
    25    31    32    1
    26    32    33   ar
    27    32    34   ar
    28    25    26   ar
    29    26    27   ar
    30    27    28    1
    31    28    29    3
    32    19    11    1
    33    27    22   ar
    34    19    14    1
    35     5     6    1
    36     2     3    1
@<TRIPOS>MOLECULE
*****
 34 36 0 0 0
SMALL
GASTEIGER

@<TRIPOS>ATOM
      1 C           7.8833   -4.3123   21.1948 C.3     1  UNL1        0.1697
      2 O           8.4071   -5.7085   21.0321 O.3     1  UNL1       -0.3793
      3 H           8.9149   -5.7693   20.2079 H       1  UNL1        0.2106
      4 C           8.1823   -3.2732   20.1552 C.3     1  UNL1        0.1020
      5 N           7.7524   -1.8523   20.3697 N.3     1  UNL1       -0.2972
      6 H           7.3284   -1.8096   21.2965 H       1  UNL1        0.1233
      7 C           7.1589   -2.2068   18.3643 C.3     1  UNL1        0.0161
      8 C           6.7845   -1.2101   19.4208 C.3     1  UNL1        0.0462
      9 C           6.4099   -0.2133   20.4772 C.3     1  UNL1        0.0161
     10 C           5.8164   -0.5679   18.4717 C.3     1  UNL1        0.0424
     11 C           6.1034    0.7956   17.9161 C.2     1  UNL1       -0.0006
     12 C           7.3823    1.2307   17.2642 C.2     1  UNL1        0.0942
     13 N           7.2312    2.6673   16.8601 N.2     1  UNL1       -0.2482
     14 C           5.8588    3.1201   17.2624 C.2     1  UNL1        0.0631
     15 C           5.1539    4.4362   17.1187 C.3     1  UNL1        0.0717
     16 C           3.7519    4.5956   17.6276 C.2     1  UNL1       -0.0198
     17 C           3.0549    3.4388   18.2803 C.2     1  UNL1       -0.0042
     18 C           3.7599    2.1226   18.4240 C.2     1  UNL1        0.0006
     19 C           5.1619    1.9633   17.9150 C.2     1  UNL1        0.0114
     20 C           7.0604   -3.9553   22.3970 C.3     1  UNL1        0.2358
     21 O           5.5909   -4.2557   22.4162 O.3     1  UNL1       -0.4721
     22 C           4.6260   -3.3235   21.7456 C.ar    1  UNL1        0.1482
     23 C           4.2297   -3.5544   20.3174 C.ar    1  UNL1        0.0373
     24 C           3.2647   -2.6222   19.6467 C.ar    1  UNL1       -0.0011
     25 C           2.6960   -1.4591   20.4042 C.ar    1  UNL1       -0.0209
     26 C           3.0923   -1.2282   21.8324 C.ar    1  UNL1        0.0091
     27 C           4.0572   -2.1604   22.5030 C.ar    1  UNL1        0.1020
     28 C           4.4536   -1.9296   23.9312 C.1     1  UNL1        0.1035
     29 N           4.8498   -1.6989   25.3594 N.1     1  UNL1       -0.1907
     30 C           1.7310   -0.5269   19.7336 C.3     1  UNL1        0.0323
     31 C           0.4988   -0.0737   20.4589 C.3     1  UNL1        0.0464
     32 C           0.3689    1.3552   20.8965 C.2     1  UNL1        0.0507
     33 O           1.5718    2.0987   21.3968 O.co2   1  UNL1       -0.5492
     34 O          -0.9638    2.0405   20.8337 O.co2   1  UNL1       -0.5492
@<TRIPOS>UNITY_ATOM_ATTR
33 1
charge -1
@<TRIPOS>BOND
     1     7     8    1
     2     8     9    1
     3     8    10    1
     4    10    11    1
     5    11    12    2
     6    12    13    1
     7    13    14    2
     8    14    15    1
     9    15    16    1
    10    16    17    2
    11    17    18    1
    12    18    19    2
    13     8     5    1
    14     5     4    1
    15     4     1    1
    16     1     2    1
    17     1    20    1
    18    20    21    1
    19    21    22    1
    20    22    23   ar
    21    23    24   ar
    22    24    25   ar
    23    25    30    1
    24    30    31    1
    25    31    32    1
    26    32    33   ar
    27    32    34   ar
    28    25    26   ar
    29    26    27   ar
    30    27    28    1
    31    28    29    3
    32    19    11    1
    33    27    22   ar
    34    19    14    1
    35     5     6    1
    36     2     3    1
