@<TRIPOS>MOLECULE
*****
 13 13 0 0 0
SMALL
GASTEIGER

@<TRIPOS>ATOM
      1 C          -2.2372  -18.9258   19.8069 C.3     1  UNL1        0.0521
      2 C          -3.5587  -19.1493   20.4805 C.ar    1  UNL1        0.0594
      3 C          -4.4616  -20.2523   20.0134 C.ar    1  UNL1        0.0154
      4 C          -5.7830  -20.4758   20.6870 C.ar    1  UNL1        0.0110
      5 C          -6.2016  -19.5964   21.8278 C.ar    1  UNL1        0.0608
      6 C          -5.2987  -18.4935   22.2949 C.ar    1  UNL1        0.1066
      7 N          -3.9773  -18.2699   21.6213 N.ar    1  UNL1       -0.2475
      8 C          -7.5231  -19.8199   22.5014 C.1     1  UNL1       -0.0614
      9 C          -8.8445  -20.0435   23.1750 C.1     1  UNL1       -0.0689
     10 C         -10.1660  -20.2670   23.8486 C.3     1  UNL1        0.1432
     11 N         -10.2486  -20.2989   25.3460 N.3     1  UNL1       -0.3102
     12 H          -9.7387  -21.1093   25.6975 H       1  UNL1        0.1198
     13 H         -11.2259  -20.3622   25.6313 H       1  UNL1        0.1198
@<TRIPOS>BOND
     1     1     2    1
     2     2     3   ar
     3     3     4   ar
     4     4     5   ar
     5     5     8    1
     6     8     9    3
     7     9    10    1
     8    10    11    1
     9     5     6   ar
    10     6     7   ar
    11     7     2   ar
    12    11    12    1
    13    11    13    1
@<TRIPOS>MOLECULE
*****
 13 13 0 0 0
SMALL
GASTEIGER

@<TRIPOS>ATOM
      1 C          -6.6171  -19.2492   20.2240 C.3     1  UNL1        0.0521
      2 C          -7.8991  -19.0704   20.9818 C.ar    1  UNL1        0.0594
      3 C          -9.2097  -19.3839   20.3231 C.ar    1  UNL1        0.0154
      4 C         -10.4918  -19.2050   21.0809 C.ar    1  UNL1        0.0110
      5 C         -10.4633  -18.7126   22.4974 C.ar    1  UNL1        0.0608
      6 C          -9.1527  -18.3991   23.1562 C.ar    1  UNL1        0.1066
      7 N          -7.8707  -18.5780   22.3984 N.ar    1  UNL1       -0.2475
      8 C         -11.7454  -18.5337   23.2552 C.1     1  UNL1       -0.0614
      9 C         -13.0275  -18.3548   24.0130 C.1     1  UNL1       -0.0689
     10 C         -14.3096  -18.1759   24.7708 C.3     1  UNL1        0.1432
     11 N         -14.4207  -18.6678   26.1834 N.3     1  UNL1       -0.3102
     12 H         -14.3562  -19.6857   26.1951 H       1  UNL1        0.1198
     13 H         -15.3177  -18.3795   26.5743 H       1  UNL1        0.1198
@<TRIPOS>BOND
     1     1     2    1
     2     2     3   ar
     3     3     4   ar
     4     4     5   ar
     5     5     8    1
     6     8     9    3
     7     9    10    1
     8    10    11    1
     9     5     6   ar
    10     6     7   ar
    11     7     2   ar
    12    11    12    1
    13    11    13    1
@<TRIPOS>MOLECULE
*****
 13 13 0 0 0
SMALL
GASTEIGER

@<TRIPOS>ATOM
      1 C         -10.4794  -19.4309   19.6436 C.3     1  UNL1        0.0521
      2 C         -10.0836  -18.7493   20.9199 C.ar    1  UNL1        0.0594
      3 C         -10.0086  -19.5331   22.1966 C.ar    1  UNL1        0.0154
      4 C          -9.6128  -18.8515   23.4729 C.ar    1  UNL1        0.0110
      5 C          -9.2921  -17.3863   23.4725 C.ar    1  UNL1        0.0608
      6 C          -9.3672  -16.6025   22.1957 C.ar    1  UNL1        0.1066
      7 N          -9.7630  -17.2840   20.9195 N.ar    1  UNL1       -0.2475
      8 C          -8.8964  -16.7047   24.7487 C.1     1  UNL1       -0.0614
      9 C          -8.5006  -16.0232   26.0250 C.1     1  UNL1       -0.0689
     10 C          -8.1049  -15.3416   27.3013 C.3     1  UNL1        0.1432
     11 N          -6.7638  -14.6791   27.4131 N.3     1  UNL1       -0.3102
     12 H          -6.0301  -15.3859   27.3625 H       1  UNL1        0.1198
     13 H          -6.7009  -14.1870   28.3044 H       1  UNL1        0.1198
@<TRIPOS>BOND
     1     1     2    1
     2     2     3   ar
     3     3     4   ar
     4     4     5   ar
     5     5     8    1
     6     8     9    3
     7     9    10    1
     8    10    11    1
     9     5     6   ar
    10     6     7   ar
    11     7     2   ar
    12    11    12    1
    13    11    13    1
@<TRIPOS>MOLECULE
*****
 13 13 0 0 0
SMALL
GASTEIGER

@<TRIPOS>ATOM
      1 C         -13.8524  -17.9884   24.0804 C.3     1  UNL1        0.0521
      2 C         -12.5109  -18.2544   23.4643 C.ar    1  UNL1        0.0594
      3 C         -11.4214  -18.8828   24.2817 C.ar    1  UNL1        0.0154
      4 C         -10.0799  -19.1488   23.6656 C.ar    1  UNL1        0.0110
      5 C          -9.8279  -18.7864   22.2320 C.ar    1  UNL1        0.0608
      6 C         -10.9173  -18.1580   21.4146 C.ar    1  UNL1        0.1066
      7 N         -12.2588  -17.8920   22.0308 N.ar    1  UNL1       -0.2475
      8 C          -8.4864  -19.0524   21.6159 C.1     1  UNL1       -0.0614
      9 C          -7.1449  -19.3184   20.9998 C.1     1  UNL1       -0.0689
     10 C          -5.8034  -19.5844   20.3836 C.3     1  UNL1        0.1432
     11 N          -5.1277  -18.5209   19.5697 N.3     1  UNL1       -0.3102
     12 H          -5.6711  -18.3426   18.7251 H       1  UNL1        0.1198
     13 H          -4.1915  -18.8334   19.3121 H       1  UNL1        0.1198
@<TRIPOS>BOND
     1     1     2    1
     2     2     3   ar
     3     3     4   ar
     4     4     5   ar
     5     5     8    1
     6     8     9    3
     7     9    10    1
     8    10    11    1
     9     5     6   ar
    10     6     7   ar
    11     7     2   ar
    12    11    12    1
    13    11    13    1
@<TRIPOS>MOLECULE
*****
 13 13 0 0 0
SMALL
GASTEIGER

@<TRIPOS>ATOM
      1 C          -6.2131  -15.3078   26.8609 C.3     1  UNL1        0.0521
      2 C          -7.1065  -15.5365   25.6779 C.ar    1  UNL1        0.0594
      3 C          -8.4059  -16.2661   25.8492 C.ar    1  UNL1        0.0154
      4 C          -9.2992  -16.4948   24.6661 C.ar    1  UNL1        0.0110
      5 C          -8.8932  -15.9941   23.3118 C.ar    1  UNL1        0.0608
      6 C          -7.5939  -15.2645   23.1405 C.ar    1  UNL1        0.1066
      7 N          -6.7005  -15.0358   24.3235 N.ar    1  UNL1       -0.2475
      8 C          -9.7866  -16.2228   22.1287 C.1     1  UNL1       -0.0614
      9 C         -10.6799  -16.4516   20.9457 C.1     1  UNL1       -0.0689
     10 C         -11.5733  -16.6804   19.7627 C.3     1  UNL1        0.1432
     11 N         -12.2255  -15.5154   19.0790 N.3     1  UNL1       -0.3102
     12 H         -12.8927  -15.0781   19.7146 H       1  UNL1        0.1198
     13 H         -12.7138  -15.8407   18.2446 H       1  UNL1        0.1198
@<TRIPOS>BOND
     1     1     2    1
     2     2     3   ar
     3     3     4   ar
     4     4     5   ar
     5     5     8    1
     6     8     9    3
     7     9    10    1
     8    10    11    1
     9     5     6   ar
    10     6     7   ar
    11     7     2   ar
    12    11    12    1
    13    11    13    1
@<TRIPOS>MOLECULE
*****
 13 13 0 0 0
SMALL
GASTEIGER

@<TRIPOS>ATOM
      1 C         -12.3585  -17.7006   21.4073 C.3     1  UNL1        0.0521
      2 C         -10.9517  -18.1688   21.1796 C.ar    1  UNL1        0.0594
      3 C         -10.6386  -19.0669   20.0198 C.ar    1  UNL1        0.0154
      4 C          -9.2318  -19.5351   19.7921 C.ar    1  UNL1        0.0110
      5 C          -8.1382  -19.1052   20.7243 C.ar    1  UNL1        0.0608
      6 C          -8.4513  -18.2071   21.8842 C.ar    1  UNL1        0.1066
      7 N          -9.8581  -17.7389   22.1119 N.ar    1  UNL1       -0.2475
      8 C          -6.7314  -19.5734   20.4966 C.1     1  UNL1       -0.0614
      9 C          -5.3247  -20.0416   20.2690 C.1     1  UNL1       -0.0689
     10 C          -3.9179  -20.5098   20.0413 C.3     1  UNL1        0.1432
     11 N          -2.8449  -20.1707   21.0330 N.3     1  UNL1       -0.3102
     12 H          -2.6908  -19.1624   21.0358 H       1  UNL1        0.1198
     13 H          -1.9803  -20.6460   20.7743 H       1  UNL1        0.1198
@<TRIPOS>BOND
     1     1     2    1
     2     2     3   ar
     3     3     4   ar
     4     4     5   ar
     5     5     8    1
     6     8     9    3
     7     9    10    1
     8    10    11    1
     9     5     6   ar
    10     6     7   ar
    11     7     2   ar
    12    11    12    1
    13    11    13    1
@<TRIPOS>MOLECULE
*****
 13 13 0 0 0
SMALL
GASTEIGER

@<TRIPOS>ATOM
      1 C          -4.9697  -15.4091   24.3240 C.3     1  UNL1        0.0521
      2 C          -6.3986  -15.8345   24.1589 C.ar    1  UNL1        0.0594
      3 C          -7.3995  -15.5347   25.2351 C.ar    1  UNL1        0.0154
      4 C          -8.8284  -15.9601   25.0700 C.ar    1  UNL1        0.0110
      5 C          -9.2564  -16.6853   23.8287 C.ar    1  UNL1        0.0608
      6 C          -8.2555  -16.9851   22.7525 C.ar    1  UNL1        0.1066
      7 N          -6.8266  -16.5597   22.9176 N.ar    1  UNL1       -0.2475
      8 C         -10.6853  -17.1108   23.6637 C.1     1  UNL1       -0.0614
      9 C         -12.1142  -17.5362   23.4986 C.1     1  UNL1       -0.0689
     10 C         -13.5431  -17.9616   23.3335 C.3     1  UNL1        0.1432
     11 N         -14.4044  -18.1818   24.5416 N.3     1  UNL1       -0.3102
     12 H         -14.0495  -18.9777   25.0717 H       1  UNL1        0.1198
     13 H         -15.3625  -18.3698   24.2464 H       1  UNL1        0.1198
@<TRIPOS>BOND
     1     1     2    1
     2     2     3   ar
     3     3     4   ar
     4     4     5   ar
     5     5     8    1
     6     8     9    3
     7     9    10    1
     8    10    11    1
     9     5     6   ar
    10     6     7   ar
    11     7     2   ar
    12    11    12    1
    13    11    13    1
@<TRIPOS>MOLECULE
*****
 13 13 0 0 0
SMALL
GASTEIGER

@<TRIPOS>ATOM
      1 C          -0.0664  -18.2184   19.7393 C.3     1  UNL1        0.0521
      2 C          -1.4557  -18.5034   20.2279 C.ar    1  UNL1        0.0594
      3 C          -2.5904  -18.5937   19.2511 C.ar    1  UNL1        0.0154
      4 C          -3.9797  -18.8787   19.7397 C.ar    1  UNL1        0.0110
      5 C          -4.2342  -19.0735   21.2050 C.ar    1  UNL1        0.0608
      6 C          -3.0994  -18.9833   22.1818 C.ar    1  UNL1        0.1066
      7 N          -1.7101  -18.6982   21.6932 N.ar    1  UNL1       -0.2475
      8 C          -5.6234  -19.3586   21.6936 C.1     1  UNL1       -0.0614
      9 C          -7.0127  -19.6436   22.1822 C.1     1  UNL1       -0.0689
     10 C          -8.4019  -19.9287   22.6708 C.3     1  UNL1        0.1432
     11 N          -9.1596  -18.8805   23.4306 N.3     1  UNL1       -0.3102
     12 H          -8.6971  -18.7066   24.3230 H       1  UNL1        0.1198
     13 H         -10.1121  -19.2043   23.5987 H       1  UNL1        0.1198
@<TRIPOS>BOND
     1     1     2    1
     2     2     3   ar
     3     3     4   ar
     4     4     5   ar
     5     5     8    1
     6     8     9    3
     7     9    10    1
     8    10    11    1
     9     5     6   ar
    10     6     7   ar
    11     7     2   ar
    12    11    12    1
    13    11    13    1
@<TRIPOS>MOLECULE
*****
 13 13 0 0 0
SMALL
GASTEIGER

@<TRIPOS>ATOM
      1 C          -2.5444  -19.6198   21.5296 C.3     1  UNL1        0.0521
      2 C          -4.0357  -19.5024   21.4199 C.ar    1  UNL1        0.0594
      3 C          -4.7857  -20.3596   20.4438 C.ar    1  UNL1        0.0154
      4 C          -6.2770  -20.2423   20.3340 C.ar    1  UNL1        0.0110
      5 C          -7.0185  -19.2677   21.2003 C.ar    1  UNL1        0.0608
      6 C          -6.2685  -18.4106   22.1764 C.ar    1  UNL1        0.1066
      7 N          -4.7772  -18.5279   22.2862 N.ar    1  UNL1       -0.2475
      8 C          -8.5098  -19.1504   21.0905 C.1     1  UNL1       -0.0614
      9 C         -10.0012  -19.0330   20.9807 C.1     1  UNL1       -0.0689
     10 C         -11.4926  -18.9157   20.8709 C.3     1  UNL1        0.1432
     11 N         -12.1206  -17.5856   20.5771 N.3     1  UNL1       -0.3102
     12 H         -11.9567  -16.9519   21.3594 H       1  UNL1        0.1198
     13 H         -13.1244  -17.7061   20.4417 H       1  UNL1        0.1198
@<TRIPOS>BOND
     1     1     2    1
     2     2     3   ar
     3     3     4   ar
     4     4     5   ar
     5     5     8    1
     6     8     9    3
     7     9    10    1
     8    10    11    1
     9     5     6   ar
    10     6     7   ar
    11     7     2   ar
    12    11    12    1
    13    11    13    1
