@<TRIPOS>MOLECULE
*****
 27 30 0 0 0
SMALL
GASTEIGER

@<TRIPOS>ATOM
      1 C          -8.0193  -18.1958   22.5553 C.ar    1  UNL1        0.0456
      2 C          -6.5201  -18.1756   22.6008 C.ar    1  UNL1        0.1327
      3 N          -5.8128  -17.4117   23.6806 N.ar    1  UNL1       -0.2298
      4 C          -6.6046  -16.6679   24.7150 C.ar    1  UNL1        0.0932
      5 C          -5.8972  -15.9040   25.7948 C.ar    1  UNL1        0.0761
      6 CL         -4.3980  -15.8838   25.8403 Cl      1  UNL1       -0.0806
      7 C          -6.6890  -15.1602   26.8291 C.ar    1  UNL1        0.0243
      8 C          -8.1882  -15.1804   26.7836 C.ar    1  UNL1        0.0586
      9 CL         -8.9800  -14.4365   27.8179 Cl      1  UNL1       -0.0822
     10 C          -8.8956  -15.9443   25.7038 C.ar    1  UNL1        0.0129
     11 C          -8.1037  -16.6880   24.6695 C.ar    1  UNL1        0.0195
     12 C          -8.8111  -17.4520   23.5896 C.ar    1  UNL1        0.0053
     13 N          -5.7283  -18.9195   21.5664 N.pl3   1  UNL1       -0.2932
     14 C          -6.0572  -20.3495   21.2555 C.3     1  UNL1        0.0922
     15 C          -5.2654  -21.0933   20.2211 C.3     1  UNL1        0.0215
     16 C          -4.1448  -20.4069   19.4978 C.3     1  UNL1        0.0035
     17 C          -3.8159  -18.9769   19.8088 C.3     1  UNL1        0.0215
     18 C          -4.6077  -18.2332   20.8431 C.3     1  UNL1        0.0922
     19 C         -10.3103  -17.4722   23.5441 C.ar    1  UNL1        0.0002
     20 C         -11.0712  -18.4909   24.3400 C.ar    1  UNL1        0.0000
     21 C         -12.5704  -18.5110   24.2945 C.ar    1  UNL1        0.0000
     22 C         -13.3086  -17.5124   23.4531 C.ar    1  UNL1        0.0000
     23 C         -12.5478  -16.4938   22.6572 C.ar    1  UNL1        0.0000
     24 C         -11.0486  -16.4737   22.7027 C.ar    1  UNL1        0.0000
     25 O          -9.5164  -20.1877   21.8197 O.co2   1  UNL1       -0.5445
     26 C          -8.7267  -18.9597   21.4754 C.2     1  UNL1        0.0756
     27 O          -8.6443  -18.4957   20.0514 O.co2   1  UNL1       -0.5445
@<TRIPOS>UNITY_ATOM_ATTR
25 1
charge -1
@<TRIPOS>BOND
     1    25    26   ar
     2    26    27   ar
     3    26     1    1
     4     1     2   ar
     5     2    13    1
     6    13    14    1
     7    14    15    1
     8    15    16    1
     9    16    17    1
    10    17    18    1
    11     2     3   ar
    12     3     4   ar
    13     4     5   ar
    14     5     6    1
    15     5     7   ar
    16     7     8   ar
    17     8     9    1
    18     8    10   ar
    19    10    11   ar
    20    11    12   ar
    21    12    19    1
    22    19    20   ar
    23    20    21   ar
    24    21    22   ar
    25    22    23   ar
    26    23    24   ar
    27    12     1   ar
    28    24    19   ar
    29    18    13    1
    30    11     4   ar
@<TRIPOS>MOLECULE
*****
 27 30 0 0 0
SMALL
GASTEIGER

@<TRIPOS>ATOM
      1 C         -14.3817   -5.8701   18.1835 C.ar    1  UNL1        0.0456
      2 C         -13.5683   -4.6114   18.2491 C.ar    1  UNL1        0.1327
      3 N         -14.2057   -3.3289   18.6948 N.ar    1  UNL1       -0.2298
      4 C         -15.6566   -3.3049   19.0751 C.ar    1  UNL1        0.0932
      5 C         -16.2940   -2.0224   19.5208 C.ar    1  UNL1        0.0761
      6 CL        -15.4806   -0.7638   19.5864 Cl      1  UNL1       -0.0806
      7 C         -17.7448   -1.9985   19.9010 C.ar    1  UNL1        0.0243
      8 C         -18.5581   -3.2571   19.8355 C.ar    1  UNL1        0.0586
      9 CL        -20.0090   -3.2331   20.2157 Cl      1  UNL1       -0.0822
     10 C         -17.9207   -4.5396   19.3897 C.ar    1  UNL1        0.0129
     11 C         -16.4699   -4.5636   19.0095 C.ar    1  UNL1        0.0195
     12 C         -15.8325   -5.8462   18.5637 C.ar    1  UNL1        0.0053
     13 N         -12.1174   -4.6354   17.8688 N.pl3   1  UNL1       -0.2932
     14 C         -11.0707   -4.8642   18.9185 C.3     1  UNL1        0.0922
     15 C          -9.6199   -4.8881   18.5383 C.3     1  UNL1        0.0215
     16 C          -9.2159   -4.6833   17.1083 C.3     1  UNL1        0.0035
     17 C         -10.2627   -4.4546   16.0586 C.3     1  UNL1        0.0215
     18 C         -11.7134   -4.4306   16.4388 C.3     1  UNL1        0.0922
     19 C         -16.6458   -7.1048   18.4982 C.ar    1  UNL1        0.0002
     20 C         -16.7279   -8.0078   19.6932 C.ar    1  UNL1        0.0000
     21 C         -17.5412   -9.2664   19.6276 C.ar    1  UNL1        0.0000
     22 C         -18.2726   -9.6220   18.3671 C.ar    1  UNL1        0.0000
     23 C         -18.1905   -8.7190   17.1722 C.ar    1  UNL1        0.0000
     24 C         -17.3771   -7.4604   17.2378 C.ar    1  UNL1        0.0000
     25 O         -13.9244   -7.6290   16.3268 O.co2   1  UNL1       -0.5445
     26 C         -13.7442   -7.1527   17.7377 C.2     1  UNL1        0.0756
     27 O         -12.9265   -7.9588   18.7028 O.co2   1  UNL1       -0.5445
@<TRIPOS>UNITY_ATOM_ATTR
25 1
charge -1
@<TRIPOS>BOND
     1    25    26   ar
     2    26    27   ar
     3    26     1    1
     4     1     2   ar
     5     2    13    1
     6    13    14    1
     7    14    15    1
     8    15    16    1
     9    16    17    1
    10    17    18    1
    11     2     3   ar
    12     3     4   ar
    13     4     5   ar
    14     5     6    1
    15     5     7   ar
    16     7     8   ar
    17     8     9    1
    18     8    10   ar
    19    10    11   ar
    20    11    12   ar
    21    12    19    1
    22    19    20   ar
    23    20    21   ar
    24    21    22   ar
    25    22    23   ar
    26    23    24   ar
    27    12     1   ar
    28    24    19   ar
    29    18    13    1
    30    11     4   ar
@<TRIPOS>MOLECULE
*****
 27 30 0 0 0
SMALL
GASTEIGER

@<TRIPOS>ATOM
      1 C          -6.0461  -17.8962   22.2921 C.ar    1  UNL1        0.0456
      2 C          -5.6701  -18.6616   21.0581 C.ar    1  UNL1        0.1327
      3 N          -6.7393  -19.2399   20.1793 N.ar    1  UNL1       -0.2298
      4 C          -8.1847  -19.0527   20.5345 C.ar    1  UNL1        0.0932
      5 C          -9.2539  -19.6310   19.6557 C.ar    1  UNL1        0.0761
      6 CL         -8.8779  -20.3963   18.4216 Cl      1  UNL1       -0.0806
      7 C         -10.6991  -19.4438   20.0109 C.ar    1  UNL1        0.0243
      8 C         -11.0751  -18.6785   21.2449 C.ar    1  UNL1        0.0586
      9 CL        -12.5205  -18.4913   21.6001 Cl      1  UNL1       -0.0822
     10 C         -10.0059  -18.1002   22.1237 C.ar    1  UNL1        0.0129
     11 C          -8.5607  -18.2874   21.7685 C.ar    1  UNL1        0.0195
     12 C          -7.4914  -17.7091   22.6473 C.ar    1  UNL1        0.0053
     13 N          -4.2248  -18.8487   20.7029 N.pl3   1  UNL1       -0.2932
     14 C          -3.3365  -19.6748   21.5852 C.3     1  UNL1        0.0922
     15 C          -1.8913  -19.8619   21.2300 C.3     1  UNL1        0.0215
     16 C          -1.3343  -19.2229   19.9925 C.3     1  UNL1        0.0035
     17 C          -2.2226  -18.3968   19.1102 C.3     1  UNL1        0.0215
     18 C          -3.6678  -18.2097   19.4654 C.3     1  UNL1        0.0922
     19 C          -7.8674  -16.9437   23.8814 C.ar    1  UNL1        0.0002
     20 C          -8.4434  -17.6641   25.0643 C.ar    1  UNL1        0.0000
     21 C          -8.8195  -16.8988   26.2983 C.ar    1  UNL1        0.0000
     22 C          -8.6194  -15.4130   26.3494 C.ar    1  UNL1        0.0000
     23 C          -8.0434  -14.6927   25.1665 C.ar    1  UNL1        0.0000
     24 C          -7.6674  -15.4580   23.9325 C.ar    1  UNL1        0.0000
     25 O          -4.2937  -18.1826   24.1888 O.co2   1  UNL1       -0.5445
     26 C          -4.9768  -17.3180   23.1710 C.2     1  UNL1        0.0756
     27 O          -4.5907  -15.8753   23.0320 O.co2   1  UNL1       -0.5445
@<TRIPOS>UNITY_ATOM_ATTR
25 1
charge -1
@<TRIPOS>BOND
     1    25    26   ar
     2    26    27   ar
     3    26     1    1
     4     1     2   ar
     5     2    13    1
     6    13    14    1
     7    14    15    1
     8    15    16    1
     9    16    17    1
    10    17    18    1
    11     2     3   ar
    12     3     4   ar
    13     4     5   ar
    14     5     6    1
    15     5     7   ar
    16     7     8   ar
    17     8     9    1
    18     8    10   ar
    19    10    11   ar
    20    11    12   ar
    21    12    19    1
    22    19    20   ar
    23    20    21   ar
    24    21    22   ar
    25    22    23   ar
    26    23    24   ar
    27    12     1   ar
    28    24    19   ar
    29    18    13    1
    30    11     4   ar
@<TRIPOS>MOLECULE
*****
 27 30 0 0 0
SMALL
GASTEIGER

@<TRIPOS>ATOM
      1 C         -13.6599   -3.7725   17.9183 C.ar    1  UNL1        0.0456
      2 C         -14.8682   -2.8961   18.0663 C.ar    1  UNL1        0.1327
      3 N         -16.1624   -3.4788   18.5514 N.ar    1  UNL1       -0.2298
      4 C         -16.2484   -4.9380   18.8886 C.ar    1  UNL1        0.0932
      5 C         -17.5426   -5.5207   19.3737 C.ar    1  UNL1        0.0761
      6 CL        -18.7509   -4.6443   19.5217 Cl      1  UNL1       -0.0806
      7 C         -17.6285   -6.9797   19.7108 C.ar    1  UNL1        0.0243
      8 C         -16.4202   -7.8561   19.5628 C.ar    1  UNL1        0.0586
      9 CL        -16.5062   -9.3153   19.8999 Cl      1  UNL1       -0.0822
     10 C         -15.1260   -7.2734   19.0776 C.ar    1  UNL1        0.0129
     11 C         -15.0401   -5.8143   18.7405 C.ar    1  UNL1        0.0195
     12 C         -13.7458   -5.2316   18.2554 C.ar    1  UNL1        0.0053
     13 N         -14.7823   -1.4370   17.7292 N.pl3   1  UNL1       -0.2932
     14 C         -15.0284   -0.9763   16.3231 C.3     1  UNL1        0.0922
     15 C         -14.9424    0.4827   15.9860 C.3     1  UNL1        0.0215
     16 C         -14.6103    1.4812   17.0551 C.3     1  UNL1        0.0035
     17 C         -14.3642    1.0205   18.4612 C.3     1  UNL1        0.0215
     18 C         -14.4502   -0.4385   18.7982 C.3     1  UNL1        0.0922
     19 C         -12.5375   -6.1080   18.1073 C.ar    1  UNL1        0.0002
     20 C         -12.4055   -7.0082   16.9147 C.ar    1  UNL1        0.0000
     21 C         -11.1972   -7.8846   16.7667 C.ar    1  UNL1        0.0000
     22 C         -10.1208   -7.8607   17.8112 C.ar    1  UNL1        0.0000
     23 C         -10.2528   -6.9605   19.0037 C.ar    1  UNL1        0.0000
     24 C         -11.4612   -6.0841   19.1518 C.ar    1  UNL1        0.0000
     25 O         -11.9972   -3.2855   15.9822 O.co2   1  UNL1       -0.5445
     26 C         -12.3656   -3.1897   17.4331 C.2     1  UNL1        0.0756
     27 O         -11.4399   -2.5113   18.3988 O.co2   1  UNL1       -0.5445
@<TRIPOS>UNITY_ATOM_ATTR
25 1
charge -1
@<TRIPOS>BOND
     1    25    26   ar
     2    26    27   ar
     3    26     1    1
     4     1     2   ar
     5     2    13    1
     6    13    14    1
     7    14    15    1
     8    15    16    1
     9    16    17    1
    10    17    18    1
    11     2     3   ar
    12     3     4   ar
    13     4     5   ar
    14     5     6    1
    15     5     7   ar
    16     7     8   ar
    17     8     9    1
    18     8    10   ar
    19    10    11   ar
    20    11    12   ar
    21    12    19    1
    22    19    20   ar
    23    20    21   ar
    24    21    22   ar
    25    22    23   ar
    26    23    24   ar
    27    12     1   ar
    28    24    19   ar
    29    18    13    1
    30    11     4   ar
@<TRIPOS>MOLECULE
*****
 27 30 0 0 0
SMALL
GASTEIGER

@<TRIPOS>ATOM
      1 C         -14.2062   -3.0272   18.4307 C.ar    1  UNL1        0.0456
      2 C         -15.6432   -2.7068   18.7177 C.ar    1  UNL1        0.1327
      3 N         -16.6319   -3.8155   18.9252 N.ar    1  UNL1       -0.2298
      4 C         -16.1837   -5.2448   18.8457 C.ar    1  UNL1        0.0932
      5 C         -17.1724   -6.3535   19.0531 C.ar    1  UNL1        0.0761
      6 CL        -18.6094   -6.0330   19.3402 Cl      1  UNL1       -0.0806
      7 C         -16.7242   -7.7827   18.9736 C.ar    1  UNL1        0.0243
      8 C         -15.2872   -8.1032   18.6865 C.ar    1  UNL1        0.0586
      9 CL        -14.8390   -9.5325   18.6070 Cl      1  UNL1       -0.0822
     10 C         -14.2985   -6.9945   18.4791 C.ar    1  UNL1        0.0129
     11 C         -14.7467   -5.5653   18.5586 C.ar    1  UNL1        0.0195
     12 C         -13.7580   -4.4565   18.3511 C.ar    1  UNL1        0.0053
     13 N         -16.0914   -1.2774   18.7973 N.pl3   1  UNL1       -0.2932
     14 C         -16.5880   -0.5776   17.5670 C.3     1  UNL1        0.0922
     15 C         -17.0362    0.8517   17.6466 C.3     1  UNL1        0.0215
     16 C         -16.9878    1.5810   18.9565 C.3     1  UNL1        0.0035
     17 C         -16.4913    0.8811   20.1868 C.3     1  UNL1        0.0215
     18 C         -16.0431   -0.5481   20.1071 C.3     1  UNL1        0.0922
     19 C         -12.3210   -4.7769   18.0641 C.ar    1  UNL1        0.0002
     20 C         -11.3613   -4.9977   19.1956 C.ar    1  UNL1        0.0000
     21 C          -9.9244   -5.3182   18.9086 C.ar    1  UNL1        0.0000
     22 C          -9.4471   -5.4179   17.4900 C.ar    1  UNL1        0.0000
     23 C         -10.4067   -5.1971   16.3585 C.ar    1  UNL1        0.0000
     24 C         -11.8437   -4.8766   16.6456 C.ar    1  UNL1        0.0000
     25 O         -12.2743   -1.5385   19.3260 O.co2   1  UNL1       -0.5445
     26 C         -13.2175   -1.9184   18.2232 C.2     1  UNL1        0.0756
     27 O         -13.1720   -1.1895   16.9130 O.co2   1  UNL1       -0.5445
@<TRIPOS>UNITY_ATOM_ATTR
25 1
charge -1
@<TRIPOS>BOND
     1    25    26   ar
     2    26    27   ar
     3    26     1    1
     4     1     2   ar
     5     2    13    1
     6    13    14    1
     7    14    15    1
     8    15    16    1
     9    16    17    1
    10    17    18    1
    11     2     3   ar
    12     3     4   ar
    13     4     5   ar
    14     5     6    1
    15     5     7   ar
    16     7     8   ar
    17     8     9    1
    18     8    10   ar
    19    10    11   ar
    20    11    12   ar
    21    12    19    1
    22    19    20   ar
    23    20    21   ar
    24    21    22   ar
    25    22    23   ar
    26    23    24   ar
    27    12     1   ar
    28    24    19   ar
    29    18    13    1
    30    11     4   ar
@<TRIPOS>MOLECULE
*****
 27 30 0 0 0
SMALL
GASTEIGER

@<TRIPOS>ATOM
      1 C          -6.2186  -17.6703   22.7563 C.ar    1  UNL1        0.0456
      2 C          -7.4383  -17.2296   23.5100 C.ar    1  UNL1        0.1327
      3 N          -8.8040  -17.5694   22.9911 N.ar    1  UNL1       -0.2298
      4 C          -8.9501  -18.3501   21.7186 C.ar    1  UNL1        0.0932
      5 C         -10.3158  -18.6900   21.1997 C.ar    1  UNL1        0.0761
      6 CL        -11.5356  -18.2492   21.9534 Cl      1  UNL1       -0.0806
      7 C         -10.4618  -19.4706   19.9273 C.ar    1  UNL1        0.0243
      8 C          -9.2421  -19.9114   19.1736 C.ar    1  UNL1        0.0586
      9 CL         -9.3881  -20.6920   17.9011 Cl      1  UNL1       -0.0822
     10 C          -7.8764  -19.5715   19.6924 C.ar    1  UNL1        0.0129
     11 C          -7.7304  -18.7909   20.9649 C.ar    1  UNL1        0.0195
     12 C          -6.3646  -18.4510   21.4838 C.ar    1  UNL1        0.0053
     13 N          -7.2923  -16.4489   24.7825 N.pl3   1  UNL1       -0.2932
     14 C          -8.3787  -16.4891   25.8159 C.3     1  UNL1        0.0922
     15 C          -8.2326  -15.7085   27.0884 C.3     1  UNL1        0.0215
     16 C          -7.0001  -14.8876   27.3274 C.3     1  UNL1        0.0035
     17 C          -5.9137  -14.8474   26.2940 C.3     1  UNL1        0.0215
     18 C          -6.0598  -15.6280   25.0215 C.3     1  UNL1        0.0922
     19 C          -5.1449  -18.8917   20.7302 C.ar    1  UNL1        0.0002
     20 C          -4.6690  -20.3103   20.8372 C.ar    1  UNL1        0.0000
     21 C          -3.4492  -20.7510   20.0836 C.ar    1  UNL1        0.0000
     22 C          -2.7054  -19.7733   19.2229 C.ar    1  UNL1        0.0000
     23 C          -3.1813  -18.3548   19.1159 C.ar    1  UNL1        0.0000
     24 C          -4.4010  -17.9141   19.8695 C.ar    1  UNL1        0.0000
     25 O          -4.1300  -18.2924   24.1708 O.co2   1  UNL1       -0.5445
     26 C          -4.8528  -17.3304   23.2752 C.2     1  UNL1        0.0756
     27 O          -4.2099  -16.0286   22.8985 O.co2   1  UNL1       -0.5445
@<TRIPOS>UNITY_ATOM_ATTR
25 1
charge -1
@<TRIPOS>BOND
     1    25    26   ar
     2    26    27   ar
     3    26     1    1
     4     1     2   ar
     5     2    13    1
     6    13    14    1
     7    14    15    1
     8    15    16    1
     9    16    17    1
    10    17    18    1
    11     2     3   ar
    12     3     4   ar
    13     4     5   ar
    14     5     6    1
    15     5     7   ar
    16     7     8   ar
    17     8     9    1
    18     8    10   ar
    19    10    11   ar
    20    11    12   ar
    21    12    19    1
    22    19    20   ar
    23    20    21   ar
    24    21    22   ar
    25    22    23   ar
    26    23    24   ar
    27    12     1   ar
    28    24    19   ar
    29    18    13    1
    30    11     4   ar
@<TRIPOS>MOLECULE
*****
 27 30 0 0 0
SMALL
GASTEIGER

@<TRIPOS>ATOM
      1 C           4.0997    1.0056   34.6259 C.ar    1  UNL1        0.0456
      2 C           3.1621    2.1074   35.0221 C.ar    1  UNL1        0.1327
      3 N           2.0950    2.5622   34.0711 N.ar    1  UNL1       -0.2298
      4 C           1.9655    1.9153   32.7240 C.ar    1  UNL1        0.0932
      5 C           0.8984    2.3702   31.7730 C.ar    1  UNL1        0.0761
      6 CL         -0.0392    3.4720   32.1692 Cl      1  UNL1       -0.0806
      7 C           0.7689    1.7232   30.4260 C.ar    1  UNL1        0.0243
      8 C           1.7065    0.6214   30.0298 C.ar    1  UNL1        0.0586
      9 CL          1.5770   -0.0255   28.6827 Cl      1  UNL1       -0.0822
     10 C           2.7736    0.1666   30.9808 C.ar    1  UNL1        0.0129
     11 C           2.9031    0.8135   32.3278 C.ar    1  UNL1        0.0195
     12 C           3.9702    0.3587   33.2789 C.ar    1  UNL1        0.0053
     13 N           3.2917    2.7543   36.3692 N.pl3   1  UNL1       -0.2932
     14 C           2.5610    2.1840   37.5485 C.3     1  UNL1        0.0922
     15 C           2.6905    2.8309   38.8956 C.3     1  UNL1        0.0215
     16 C           3.5508    4.0482   39.0634 C.3     1  UNL1        0.0035
     17 C           4.2814    4.6186   37.8841 C.3     1  UNL1        0.0215
     18 C           4.1519    3.9716   36.5370 C.3     1  UNL1        0.0922
     19 C           4.9079   -0.7431   32.8827 C.ar    1  UNL1        0.0002
     20 C           6.2055   -0.4162   32.2050 C.ar    1  UNL1        0.0000
     21 C           7.1432   -1.5180   31.8089 C.ar    1  UNL1        0.0000
     22 C           6.7831   -2.9467   32.0905 C.ar    1  UNL1        0.0000
     23 C           5.4855   -3.2736   32.7682 C.ar    1  UNL1        0.0000
     24 C           4.5479   -2.1718   33.1643 C.ar    1  UNL1        0.0000
     25 O           4.8717   -0.5303   36.5741 O.co2   1  UNL1       -0.5445
     26 C           5.1669    0.5507   35.5770 C.2     1  UNL1        0.0756
     27 O           6.5291    1.1769   35.5308 O.co2   1  UNL1       -0.5445
@<TRIPOS>UNITY_ATOM_ATTR
25 1
charge -1
@<TRIPOS>BOND
     1    25    26   ar
     2    26    27   ar
     3    26     1    1
     4     1     2   ar
     5     2    13    1
     6    13    14    1
     7    14    15    1
     8    15    16    1
     9    16    17    1
    10    17    18    1
    11     2     3   ar
    12     3     4   ar
    13     4     5   ar
    14     5     6    1
    15     5     7   ar
    16     7     8   ar
    17     8     9    1
    18     8    10   ar
    19    10    11   ar
    20    11    12   ar
    21    12    19    1
    22    19    20   ar
    23    20    21   ar
    24    21    22   ar
    25    22    23   ar
    26    23    24   ar
    27    12     1   ar
    28    24    19   ar
    29    18    13    1
    30    11     4   ar
@<TRIPOS>MOLECULE
*****
 27 30 0 0 0
SMALL
GASTEIGER

@<TRIPOS>ATOM
      1 C         -15.4820   -5.3409   18.1653 C.ar    1  UNL1        0.0456
      2 C         -15.1266   -6.7964   18.0945 C.ar    1  UNL1        0.1327
      3 N         -13.7230   -7.2106   17.7654 N.ar    1  UNL1       -0.2298
      4 C         -12.6747   -6.1692   17.5070 C.ar    1  UNL1        0.0932
      5 C         -11.2712   -6.5834   17.1779 C.ar    1  UNL1        0.0761
      6 CL        -10.9158   -8.0390   17.1071 Cl      1  UNL1       -0.0806
      7 C         -10.2230   -5.5420   16.9196 C.ar    1  UNL1        0.0243
      8 C         -10.5784   -4.0865   16.9904 C.ar    1  UNL1        0.0586
      9 CL         -9.5301   -3.0451   16.7320 Cl      1  UNL1       -0.0822
     10 C         -11.9820   -3.6723   17.3195 C.ar    1  UNL1        0.0129
     11 C         -13.0301   -4.7137   17.5778 C.ar    1  UNL1        0.0195
     12 C         -14.4338   -4.2995   17.9069 C.ar    1  UNL1        0.0053
     13 N         -16.1749   -7.8379   18.3528 N.pl3   1  UNL1       -0.2932
     14 C         -17.0568   -8.3080   17.2343 C.3     1  UNL1        0.0922
     15 C         -18.1050   -9.3493   17.4926 C.3     1  UNL1        0.0215
     16 C         -18.2713   -9.9205   18.8696 C.3     1  UNL1        0.0035
     17 C         -17.3894   -9.4504   19.9882 C.3     1  UNL1        0.0215
     18 C         -16.3412   -8.4091   19.7298 C.3     1  UNL1        0.0922
     19 C         -14.7892   -2.8439   17.9777 C.ar    1  UNL1        0.0002
     20 C         -15.2250   -2.1172   16.7399 C.ar    1  UNL1        0.0000
     21 C         -15.5804   -0.6617   16.8107 C.ar    1  UNL1        0.0000
     22 C         -15.5000    0.0672   18.1193 C.ar    1  UNL1        0.0000
     23 C         -15.0642   -0.6595   19.3570 C.ar    1  UNL1        0.0000
     24 C         -14.7088   -2.1150   19.2862 C.ar    1  UNL1        0.0000
     25 O         -17.9166   -4.8411   17.4082 O.co2   1  UNL1       -0.5445
     26 C         -16.8857   -4.9267   18.4944 C.2     1  UNL1        0.0756
     27 O         -17.2584   -4.5982   19.9097 O.co2   1  UNL1       -0.5445
@<TRIPOS>UNITY_ATOM_ATTR
25 1
charge -1
@<TRIPOS>BOND
     1    25    26   ar
     2    26    27   ar
     3    26     1    1
     4     1     2   ar
     5     2    13    1
     6    13    14    1
     7    14    15    1
     8    15    16    1
     9    16    17    1
    10    17    18    1
    11     2     3   ar
    12     3     4   ar
    13     4     5   ar
    14     5     6    1
    15     5     7   ar
    16     7     8   ar
    17     8     9    1
    18     8    10   ar
    19    10    11   ar
    20    11    12   ar
    21    12    19    1
    22    19    20   ar
    23    20    21   ar
    24    21    22   ar
    25    22    23   ar
    26    23    24   ar
    27    12     1   ar
    28    24    19   ar
    29    18    13    1
    30    11     4   ar
@<TRIPOS>MOLECULE
*****
 27 30 0 0 0
SMALL
GASTEIGER

@<TRIPOS>ATOM
      1 C           5.6467   -2.5381   23.5033 C.ar    1  UNL1        0.0456
      2 C           6.0855   -3.5841   22.5218 C.ar    1  UNL1        0.1327
      3 N           6.8253   -4.7981   23.0002 N.ar    1  UNL1       -0.2298
      4 C           7.1262   -4.9661   24.4601 C.ar    1  UNL1        0.0932
      5 C           7.8660   -6.1801   24.9386 C.ar    1  UNL1        0.0761
      6 CL          8.3049   -7.2261   23.9571 Cl      1  UNL1       -0.0806
      7 C           8.1669   -6.3481   26.3984 C.ar    1  UNL1        0.0243
      8 C           7.7280   -5.3020   27.3798 C.ar    1  UNL1        0.0586
      9 CL          8.0290   -5.4701   28.8398 Cl      1  UNL1       -0.0822
     10 C           6.9883   -4.0880   26.9014 C.ar    1  UNL1        0.0129
     11 C           6.6874   -3.9201   25.4416 C.ar    1  UNL1        0.0195
     12 C           5.9476   -2.7060   24.9631 C.ar    1  UNL1        0.0053
     13 N           5.7846   -3.4161   21.0619 N.pl3   1  UNL1       -0.2932
     14 C           6.7494   -2.6843   20.1766 C.3     1  UNL1        0.0922
     15 C           6.4484   -2.5164   18.7168 C.3     1  UNL1        0.0215
     16 C           5.1827   -3.0801   18.1422 C.3     1  UNL1        0.0035
     17 C           4.2179   -3.8118   19.0275 C.3     1  UNL1        0.0215
     18 C           4.5188   -3.9798   20.4873 C.3     1  UNL1        0.0922
     19 C           5.5087   -1.6600   25.9446 C.ar    1  UNL1        0.0002
     20 C           4.1411   -1.7325   26.5565 C.ar    1  UNL1        0.0000
     21 C           3.7022   -0.6864   27.5380 C.ar    1  UNL1        0.0000
     22 C           4.6310    0.4321   27.9074 C.ar    1  UNL1        0.0000
     23 C           5.9985    0.5045   27.2955 C.ar    1  UNL1        0.0000
     24 C           6.4374   -0.5415   26.3140 C.ar    1  UNL1        0.0000
     25 O           5.6624   -0.0804   22.6607 O.co2   1  UNL1       -0.5445
     26 C           4.9069   -1.3240   23.0248 C.2     1  UNL1        0.0756
     27 O           3.4115   -1.3536   22.9104 O.co2   1  UNL1       -0.5445
@<TRIPOS>UNITY_ATOM_ATTR
25 1
charge -1
@<TRIPOS>BOND
     1    25    26   ar
     2    26    27   ar
     3    26     1    1
     4     1     2   ar
     5     2    13    1
     6    13    14    1
     7    14    15    1
     8    15    16    1
     9    16    17    1
    10    17    18    1
    11     2     3   ar
    12     3     4   ar
    13     4     5   ar
    14     5     6    1
    15     5     7   ar
    16     7     8   ar
    17     8     9    1
    18     8    10   ar
    19    10    11   ar
    20    11    12   ar
    21    12    19    1
    22    19    20   ar
    23    20    21   ar
    24    21    22   ar
    25    22    23   ar
    26    23    24   ar
    27    12     1   ar
    28    24    19   ar
    29    18    13    1
    30    11     4   ar
