@<TRIPOS>MOLECULE
*****
 23 25 0 0 0
SMALL
GASTEIGER

@<TRIPOS>ATOM
      1 C          -6.6149  -16.5601   23.4556 C.ar    1  UNL1        0.1287
      2 N          -5.1165  -16.5443   23.5228 N.ar    1  UNL1       -0.2203
      3 C          -4.3230  -17.6049   22.8188 C.ar    1  UNL1        0.1494
      4 C          -2.8246  -17.5890   22.8859 C.ar    1  UNL1        0.0375
      5 C          -2.0311  -18.6496   22.1819 C.ar    1  UNL1        0.0046
      6 C          -2.7360  -19.7259   21.4108 C.ar    1  UNL1        0.0192
      7 C          -4.2344  -19.7417   21.3437 C.ar    1  UNL1        0.0828
      8 N          -5.0279  -18.6812   22.0477 N.ar    1  UNL1       -0.2746
      9 C          -6.5263  -18.6970   21.9806 C.ar    1  UNL1        0.1605
     10 N          -7.2312  -19.7733   21.2095 N.2     1  UNL1       -0.2814
     11 C          -7.3198  -17.6364   22.6845 C.ar    1  UNL1        0.1673
     12 H          -6.7104  -20.4694   20.7474 H       1  UNL1        0.1884
     13 S          -8.8183  -17.6522   22.6174 S.O2    1  UNL1        0.0322
     14 O          -8.8631  -18.5366   23.8281 O.2     1  UNL1       -0.1641
     15 O          -8.7734  -16.7679   21.4067 O.2     1  UNL1       -0.1641
     16 C         -10.3167  -17.6680   22.5504 C.ar    1  UNL1        0.1105
     17 C         -11.0154  -17.2543   21.2892 C.ar    1  UNL1        0.0187
     18 C         -12.5138  -17.2701   21.2221 C.ar    1  UNL1        0.0013
     19 C         -13.3135  -17.6996   22.4163 C.ar    1  UNL1        0.0001
     20 C         -12.6148  -18.1134   23.6775 C.ar    1  UNL1        0.0013
     21 C         -11.1163  -18.0976   23.7445 C.ar    1  UNL1        0.0187
     22 C          -7.5744  -15.5519   25.6495 C.3     1  UNL1        0.0757
     23 S          -7.4085  -15.4995   24.1596 S.3     1  UNL1       -0.0926
@<TRIPOS>BOND
     1    22    23    1
     2    23     1    1
     3     1     2   ar
     4     2     3   ar
     5     3     4   ar
     6     4     5   ar
     7     5     6   ar
     8     6     7   ar
     9     7     8   ar
    10     8     9   ar
    11     9    10    2
    12     9    11   ar
    13    11    13    1
    14    13    14    2
    15    13    15    2
    16    13    16    1
    17    16    17   ar
    18    17    18   ar
    19    18    19   ar
    20    19    20   ar
    21    20    21   ar
    22    11     1   ar
    23    21    16   ar
    24     8     3   ar
    25    10    12    1
@<TRIPOS>MOLECULE
*****
 23 25 0 0 0
SMALL
GASTEIGER

@<TRIPOS>ATOM
      1 C          -7.6386  -19.4114   20.1311 C.ar    1  UNL1        0.1287
      2 N          -6.2786  -19.8425   19.6678 N.ar    1  UNL1       -0.2203
      3 C          -5.0667  -19.5090   20.4865 C.ar    1  UNL1        0.1494
      4 C          -3.7068  -19.9401   20.0232 C.ar    1  UNL1        0.0375
      5 C          -2.4950  -19.6066   20.8419 C.ar    1  UNL1        0.0046
      6 C          -2.6431  -18.8419   22.1238 C.ar    1  UNL1        0.0192
      7 C          -4.0031  -18.4108   22.5871 C.ar    1  UNL1        0.0828
      8 N          -5.2149  -18.7443   21.7684 N.ar    1  UNL1       -0.2746
      9 C          -6.5749  -18.3132   22.2317 C.ar    1  UNL1        0.1605
     10 N          -6.7230  -17.5486   23.5137 N.2     1  UNL1       -0.2814
     11 C          -7.7867  -18.6468   21.4131 C.ar    1  UNL1        0.1673
     12 H          -5.9276  -17.3297   24.0510 H       1  UNL1        0.1884
     13 S          -9.1467  -18.2156   21.8764 S.O2    1  UNL1        0.0322
     14 O          -8.9699  -16.9025   21.1734 O.2     1  UNL1       -0.1641
     15 O          -9.3236  -19.5288   22.5793 O.2     1  UNL1       -0.1641
     16 C         -10.5067  -17.7845   22.3396 C.ar    1  UNL1        0.1105
     17 C         -11.0415  -16.4394   21.9462 C.ar    1  UNL1        0.0187
     18 C         -12.4014  -16.0083   22.4094 C.ar    1  UNL1        0.0013
     19 C         -13.2266  -16.9223   23.2661 C.ar    1  UNL1        0.0001
     20 C         -12.6918  -18.2673   23.6595 C.ar    1  UNL1        0.0013
     21 C         -11.3318  -18.6985   23.1962 C.ar    1  UNL1        0.0187
     22 C          -8.7828  -20.8318   18.2809 C.3     1  UNL1        0.0757
     23 S          -8.8505  -19.7449   19.3125 S.3     1  UNL1       -0.0926
@<TRIPOS>BOND
     1    22    23    1
     2    23     1    1
     3     1     2   ar
     4     2     3   ar
     5     3     4   ar
     6     4     5   ar
     7     5     6   ar
     8     6     7   ar
     9     7     8   ar
    10     8     9   ar
    11     9    10    2
    12     9    11   ar
    13    11    13    1
    14    13    14    2
    15    13    15    2
    16    13    16    1
    17    16    17   ar
    18    17    18   ar
    19    18    19   ar
    20    19    20   ar
    21    20    21   ar
    22    11     1   ar
    23    21    16   ar
    24     8     3   ar
    25    10    12    1
@<TRIPOS>MOLECULE
*****
 23 25 0 0 0
SMALL
GASTEIGER

@<TRIPOS>ATOM
      1 C          -9.0483  -19.5013   20.2301 C.ar    1  UNL1        0.1287
      2 N         -10.5201  -19.2126   20.2070 N.ar    1  UNL1       -0.2203
      3 C         -11.0984  -18.1896   21.1394 C.ar    1  UNL1        0.1494
      4 C         -12.5701  -17.9009   21.1164 C.ar    1  UNL1        0.0375
      5 C         -13.1483  -16.8780   22.0487 C.ar    1  UNL1        0.0046
      6 C         -12.2548  -16.1438   23.0040 C.ar    1  UNL1        0.0192
      7 C         -10.7831  -16.4326   23.0270 C.ar    1  UNL1        0.0828
      8 N         -10.2049  -17.4555   22.0947 N.ar    1  UNL1       -0.2746
      9 C          -8.7330  -17.7442   22.1177 C.ar    1  UNL1        0.1605
     10 N          -7.8395  -17.0101   23.0730 N.2     1  UNL1       -0.2814
     11 C          -8.1548  -18.7672   21.1854 C.ar    1  UNL1        0.1673
     12 H          -8.2191  -16.3387   23.6849 H       1  UNL1        0.1884
     13 S          -6.6830  -19.0559   21.2083 S.O2    1  UNL1        0.0322
     14 O          -6.8883  -20.0113   22.3464 O.2     1  UNL1       -0.1641
     15 O          -6.4777  -18.1006   20.0703 O.2     1  UNL1       -0.1641
     16 C          -5.2113  -19.3447   21.2313 C.ar    1  UNL1        0.1105
     17 C          -4.5955  -20.1878   20.1543 C.ar    1  UNL1        0.0187
     18 C          -3.1238  -20.4766   20.1773 C.ar    1  UNL1        0.0013
     19 C          -2.2677  -19.9223   21.2774 C.ar    1  UNL1        0.0001
     20 C          -2.8835  -19.0792   22.3544 C.ar    1  UNL1        0.0013
     21 C          -4.3554  -18.7904   22.3314 C.ar    1  UNL1        0.0187
     22 C          -9.1364  -20.8025   17.9830 C.3     1  UNL1        0.0757
     23 S          -8.4700  -20.5243   19.2977 S.3     1  UNL1       -0.0926
@<TRIPOS>BOND
     1    22    23    1
     2    23     1    1
     3     1     2   ar
     4     2     3   ar
     5     3     4   ar
     6     4     5   ar
     7     5     6   ar
     8     6     7   ar
     9     7     8   ar
    10     8     9   ar
    11     9    10    2
    12     9    11   ar
    13    11    13    1
    14    13    14    2
    15    13    15    2
    16    13    16    1
    17    16    17   ar
    18    17    18   ar
    19    18    19   ar
    20    19    20   ar
    21    20    21   ar
    22    11     1   ar
    23    21    16   ar
    24     8     3   ar
    25    10    12    1
@<TRIPOS>MOLECULE
*****
 23 25 0 0 0
SMALL
GASTEIGER

@<TRIPOS>ATOM
      1 C         -10.0505  -17.2985   21.9021 C.ar    1  UNL1        0.1287
      2 N         -10.5546  -17.9961   20.6737 N.ar    1  UNL1       -0.2203
      3 C          -9.6845  -18.9928   19.9668 C.ar    1  UNL1        0.1494
      4 C         -10.1887  -19.6904   18.7383 C.ar    1  UNL1        0.0375
      5 C          -9.3186  -20.6870   18.0315 C.ar    1  UNL1        0.0046
      6 C          -7.9443  -20.9859   18.5530 C.ar    1  UNL1        0.0192
      7 C          -7.4401  -20.2882   19.7814 C.ar    1  UNL1        0.0828
      8 N          -8.3102  -19.2917   20.4883 N.ar    1  UNL1       -0.2746
      9 C          -7.8061  -18.5940   21.7168 C.ar    1  UNL1        0.1605
     10 N          -6.4318  -18.8929   22.2383 N.2     1  UNL1       -0.2814
     11 C          -8.6762  -17.5974   22.4237 C.ar    1  UNL1        0.1673
     12 H          -5.8607  -19.5470   21.7744 H       1  UNL1        0.1884
     13 S          -8.1721  -16.8997   23.6522 S.O2    1  UNL1        0.0322
     14 O          -9.0142  -17.7986   24.5082 O.2     1  UNL1       -0.1641
     15 O          -7.3299  -16.0008   22.7961 O.2     1  UNL1       -0.1641
     16 C          -7.6680  -16.2021   24.8806 C.ar    1  UNL1        0.1105
     17 C          -6.2622  -15.6806   24.9234 C.ar    1  UNL1        0.0187
     18 C          -5.7581  -14.9830   26.1519 C.ar    1  UNL1        0.0013
     19 C          -6.6598  -14.8068   27.3376 C.ar    1  UNL1        0.0001
     20 C          -8.0656  -15.3282   27.2948 C.ar    1  UNL1        0.0013
     21 C          -8.5697  -16.0259   26.0663 C.ar    1  UNL1        0.0187
     22 C         -12.4095  -16.3483   22.4333 C.3     1  UNL1        0.0757
     23 S         -10.9206  -16.3019   22.6091 S.3     1  UNL1       -0.0926
@<TRIPOS>BOND
     1    22    23    1
     2    23     1    1
     3     1     2   ar
     4     2     3   ar
     5     3     4   ar
     6     4     5   ar
     7     5     6   ar
     8     6     7   ar
     9     7     8   ar
    10     8     9   ar
    11     9    10    2
    12     9    11   ar
    13    11    13    1
    14    13    14    2
    15    13    15    2
    16    13    16    1
    17    16    17   ar
    18    17    18   ar
    19    18    19   ar
    20    19    20   ar
    21    20    21   ar
    22    11     1   ar
    23    21    16   ar
    24     8     3   ar
    25    10    12    1
@<TRIPOS>MOLECULE
*****
 23 25 0 0 0
SMALL
GASTEIGER

@<TRIPOS>ATOM
      1 C         -16.0931   -4.9591   19.2163 C.ar    1  UNL1        0.1287
      2 N         -17.5787   -5.0862   19.3798 N.ar    1  UNL1       -0.2203
      3 C         -18.2004   -6.4395   19.5592 C.ar    1  UNL1        0.1494
      4 C         -19.6860   -6.5666   19.7227 C.ar    1  UNL1        0.0375
      5 C         -20.3077   -7.9199   19.9021 C.ar    1  UNL1        0.0046
      6 C         -19.4438   -9.1460   19.9179 C.ar    1  UNL1        0.0192
      7 C         -17.9582   -9.0189   19.7544 C.ar    1  UNL1        0.0828
      8 N         -17.3365   -7.6656   19.5750 N.ar    1  UNL1       -0.2746
      9 C         -15.8508   -7.5384   19.4115 C.ar    1  UNL1        0.1605
     10 N         -14.9869   -8.7646   19.4273 N.2     1  UNL1       -0.2814
     11 C         -15.2292   -6.1852   19.2321 C.ar    1  UNL1        0.1673
     12 H         -15.3949   -9.6528   19.5451 H       1  UNL1        0.1884
     13 S         -13.7435   -6.0580   19.0686 S.O2    1  UNL1        0.0322
     14 O         -13.6228   -5.6271   20.5002 O.2     1  UNL1       -0.1641
     15 O         -13.8641   -6.4890   17.6369 O.2     1  UNL1       -0.1641
     16 C         -12.2579   -5.9308   18.9051 C.ar    1  UNL1        0.1105
     17 C         -11.4273   -7.1480   18.6249 C.ar    1  UNL1        0.0187
     18 C          -9.9417   -7.0208   18.4614 C.ar    1  UNL1        0.0013
     19 C          -9.2866   -5.6764   18.5781 C.ar    1  UNL1        0.0001
     20 C         -10.1173   -4.4592   18.8584 C.ar    1  UNL1        0.0013
     21 C         -11.6029   -4.5865   19.0218 C.ar    1  UNL1        0.0187
     22 C         -15.4846   -2.9470   17.6894 C.3     1  UNL1        0.0757
     23 S         -15.4714   -3.6058   19.0369 S.3     1  UNL1       -0.0926
@<TRIPOS>BOND
     1    22    23    1
     2    23     1    1
     3     1     2   ar
     4     2     3   ar
     5     3     4   ar
     6     4     5   ar
     7     5     6   ar
     8     6     7   ar
     9     7     8   ar
    10     8     9   ar
    11     9    10    2
    12     9    11   ar
    13    11    13    1
    14    13    14    2
    15    13    15    2
    16    13    16    1
    17    16    17   ar
    18    17    18   ar
    19    18    19   ar
    20    19    20   ar
    21    20    21   ar
    22    11     1   ar
    23    21    16   ar
    24     8     3   ar
    25    10    12    1
@<TRIPOS>MOLECULE
*****
 23 25 0 0 0
SMALL
GASTEIGER

@<TRIPOS>ATOM
      1 C         -15.7252   -6.2658   16.8268 C.ar    1  UNL1        0.1287
      2 N         -17.1136   -6.6900   16.4494 N.ar    1  UNL1       -0.2203
      3 C         -17.6524   -8.0053   16.9289 C.ar    1  UNL1        0.1494
      4 C         -19.0407   -8.4295   16.5514 C.ar    1  UNL1        0.0375
      5 C         -19.5794   -9.7447   17.0310 C.ar    1  UNL1        0.0046
      6 C         -18.7298  -10.6357   17.8880 C.ar    1  UNL1        0.0192
      7 C         -17.3415  -10.2114   18.2654 C.ar    1  UNL1        0.0828
      8 N         -16.8028   -8.8962   17.7859 N.ar    1  UNL1       -0.2746
      9 C         -15.4144   -8.4719   18.1634 C.ar    1  UNL1        0.1605
     10 N         -14.5648   -9.3628   19.0204 N.2     1  UNL1       -0.2814
     11 C         -14.8756   -7.1567   17.6838 C.ar    1  UNL1        0.1673
     12 H         -14.9184  -10.2260   19.3351 H       1  UNL1        0.1884
     13 S         -13.4873   -6.7323   18.0613 S.O2    1  UNL1        0.0322
     14 O         -12.9567   -7.3465   16.7999 O.2     1  UNL1       -0.1641
     15 O         -14.0178   -6.1182   19.3227 O.2     1  UNL1       -0.1641
     16 C         -12.0989   -6.3081   18.4387 C.ar    1  UNL1        0.1105
     17 C         -11.0121   -7.3330   18.5740 C.ar    1  UNL1        0.0187
     18 C          -9.6238   -6.9087   18.9514 C.ar    1  UNL1        0.0013
     19 C          -9.3222   -5.4594   19.1935 C.ar    1  UNL1        0.0001
     20 C         -10.4090   -4.4344   19.0582 C.ar    1  UNL1        0.0013
     21 C         -11.7974   -4.8588   18.6808 C.ar    1  UNL1        0.0187
     22 C         -15.5190   -3.6890   17.0876 C.3     1  UNL1        0.0757
     23 S         -15.1864   -4.9505   16.3473 S.3     1  UNL1       -0.0926
@<TRIPOS>BOND
     1    22    23    1
     2    23     1    1
     3     1     2   ar
     4     2     3   ar
     5     3     4   ar
     6     4     5   ar
     7     5     6   ar
     8     6     7   ar
     9     7     8   ar
    10     8     9   ar
    11     9    10    2
    12     9    11   ar
    13    11    13    1
    14    13    14    2
    15    13    15    2
    16    13    16    1
    17    16    17   ar
    18    17    18   ar
    19    18    19   ar
    20    19    20   ar
    21    20    21   ar
    22    11     1   ar
    23    21    16   ar
    24     8     3   ar
    25    10    12    1
@<TRIPOS>MOLECULE
*****
 23 25 0 0 0
SMALL
GASTEIGER

@<TRIPOS>ATOM
      1 C         -15.1938   -4.9781   18.6872 C.ar    1  UNL1        0.1287
      2 N         -13.9571   -4.1328   18.7644 N.ar    1  UNL1       -0.2203
      3 C         -12.6058   -4.7828   18.8070 C.ar    1  UNL1        0.1494
      4 C         -11.3691   -3.9375   18.8843 C.ar    1  UNL1        0.0375
      5 C         -10.0179   -4.5874   18.9268 C.ar    1  UNL1        0.0046
      6 C          -9.9035   -6.0827   18.8921 C.ar    1  UNL1        0.0192
      7 C         -11.1402   -6.9279   18.8148 C.ar    1  UNL1        0.0828
      8 N         -12.4913   -6.2780   18.7723 N.ar    1  UNL1       -0.2746
      9 C         -13.7281   -7.1233   18.6950 C.ar    1  UNL1        0.1605
     10 N         -13.6137   -8.6185   18.6602 N.2     1  UNL1       -0.2814
     11 C         -15.0793   -6.4733   18.6524 C.ar    1  UNL1        0.1673
     12 H         -12.7268   -9.0451   18.6882 H       1  UNL1        0.1884
     13 S         -16.3161   -7.3186   18.5752 S.O2    1  UNL1        0.0322
     14 O         -16.2616   -7.2614   17.0773 O.2     1  UNL1       -0.1641
     15 O         -16.3707   -7.3758   20.0730 O.2     1  UNL1       -0.1641
     16 C         -17.5528   -8.1638   18.4978 C.ar    1  UNL1        0.1105
     17 C         -18.4474   -8.2954   19.6947 C.ar    1  UNL1        0.0187
     18 C         -19.6842   -9.1406   19.6173 C.ar    1  UNL1        0.0013
     19 C         -20.0264   -9.8544   18.3431 C.ar    1  UNL1        0.0001
     20 C         -19.1318   -9.7228   17.1463 C.ar    1  UNL1        0.0013
     21 C         -17.8950   -8.8776   17.2237 C.ar    1  UNL1        0.0187
     22 C         -17.1466   -3.7658   19.8984 C.3     1  UNL1        0.0757
     23 S         -16.5450   -4.3282   18.6446 S.3     1  UNL1       -0.0926
@<TRIPOS>BOND
     1    22    23    1
     2    23     1    1
     3     1     2   ar
     4     2     3   ar
     5     3     4   ar
     6     4     5   ar
     7     5     6   ar
     8     6     7   ar
     9     7     8   ar
    10     8     9   ar
    11     9    10    2
    12     9    11   ar
    13    11    13    1
    14    13    14    2
    15    13    15    2
    16    13    16    1
    17    16    17   ar
    18    17    18   ar
    19    18    19   ar
    20    19    20   ar
    21    20    21   ar
    22    11     1   ar
    23    21    16   ar
    24     8     3   ar
    25    10    12    1
@<TRIPOS>MOLECULE
*****
 23 25 0 0 0
SMALL
GASTEIGER

@<TRIPOS>ATOM
      1 C         -13.3409   -7.5693   17.4655 C.ar    1  UNL1        0.1287
      2 N         -14.1054   -8.8582   17.5311 N.ar    1  UNL1       -0.2203
      3 C         -15.3949   -8.9272   18.2942 C.ar    1  UNL1        0.1494
      4 C         -16.1594  -10.2161   18.3599 C.ar    1  UNL1        0.0375
      5 C         -17.4490  -10.2851   19.1230 C.ar    1  UNL1        0.0046
      6 C         -17.9740   -9.0653   19.8204 C.ar    1  UNL1        0.0192
      7 C         -17.2095   -7.7764   19.7547 C.ar    1  UNL1        0.0828
      8 N         -15.9200   -7.7074   18.9917 N.ar    1  UNL1       -0.2746
      9 C         -15.1554   -6.4185   18.9259 C.ar    1  UNL1        0.1605
     10 N         -15.6804   -5.1987   19.6234 N.2     1  UNL1       -0.2814
     11 C         -13.8659   -6.3495   18.1629 C.ar    1  UNL1        0.1673
     12 H         -16.5268   -5.2440   20.1242 H       1  UNL1        0.1884
     13 S         -13.1013   -5.0606   18.0972 S.O2    1  UNL1        0.0322
     14 O         -12.3549   -5.4400   19.3417 O.2     1  UNL1       -0.1641
     15 O         -13.8477   -4.6812   16.8526 O.2     1  UNL1       -0.1641
     16 C         -12.3367   -3.7718   18.0315 C.ar    1  UNL1        0.1105
     17 C         -11.3876   -3.5197   16.8976 C.ar    1  UNL1        0.0187
     18 C         -10.6231   -2.2309   16.8320 C.ar    1  UNL1        0.0013
     19 C         -10.8076   -1.1941   17.9002 C.ar    1  UNL1        0.0001
     20 C         -11.7567   -1.4462   19.0341 C.ar    1  UNL1        0.0013
     21 C         -12.5212   -2.7351   19.0997 C.ar    1  UNL1        0.0187
     22 C         -10.7718   -7.9393   17.3506 C.3     1  UNL1        0.0757
     23 S         -12.0513   -7.5003   16.7023 S.3     1  UNL1       -0.0926
@<TRIPOS>BOND
     1    22    23    1
     2    23     1    1
     3     1     2   ar
     4     2     3   ar
     5     3     4   ar
     6     4     5   ar
     7     5     6   ar
     8     6     7   ar
     9     7     8   ar
    10     8     9   ar
    11     9    10    2
    12     9    11   ar
    13    11    13    1
    14    13    14    2
    15    13    15    2
    16    13    16    1
    17    16    17   ar
    18    17    18   ar
    19    18    19   ar
    20    19    20   ar
    21    20    21   ar
    22    11     1   ar
    23    21    16   ar
    24     8     3   ar
    25    10    12    1
@<TRIPOS>MOLECULE
*****
 23 25 0 0 0
SMALL
GASTEIGER

@<TRIPOS>ATOM
      1 C         -14.4118   -4.5560   18.6320 C.ar    1  UNL1        0.1287
      2 N         -13.7208   -5.8771   18.4668 N.ar    1  UNL1       -0.2203
      3 C         -12.2327   -5.9709   18.6309 C.ar    1  UNL1        0.1494
      4 C         -11.5418   -7.2920   18.4658 C.ar    1  UNL1        0.0375
      5 C         -10.0537   -7.3857   18.6299 C.ar    1  UNL1        0.0046
      6 C          -9.2567   -6.1584   18.9592 C.ar    1  UNL1        0.0192
      7 C          -9.9476   -4.8373   19.1243 C.ar    1  UNL1        0.0828
      8 N         -11.4356   -4.7436   18.9602 N.ar    1  UNL1       -0.2746
      9 C         -12.1267   -3.4225   19.1253 C.ar    1  UNL1        0.1605
     10 N         -11.3296   -2.1951   19.4546 N.2     1  UNL1       -0.2814
     11 C         -13.6147   -3.3287   18.9612 C.ar    1  UNL1        0.1673
     12 H         -10.3530   -2.2567   19.5623 H       1  UNL1        0.1884
     13 S         -14.3057   -2.0076   19.1263 S.O2    1  UNL1        0.0322
     14 O         -14.4879   -2.2857   20.5890 O.2     1  UNL1       -0.1641
     15 O         -14.1236   -1.7294   17.6637 O.2     1  UNL1       -0.1641
     16 C         -14.9967   -0.6865   19.2915 C.ar    1  UNL1        0.1105
     17 C         -14.4513    0.5352   18.6133 C.ar    1  UNL1        0.0187
     18 C         -15.1423    1.8562   18.7785 C.ar    1  UNL1        0.0013
     19 C         -16.3788    1.9556   19.6219 C.ar    1  UNL1        0.0001
     20 C         -16.9243    0.7339   20.3001 C.ar    1  UNL1        0.0013
     21 C         -16.2332   -0.5872   20.1349 C.ar    1  UNL1        0.0187
     22 C         -16.8054   -4.8624   19.5947 C.3     1  UNL1        0.0757
     23 S         -15.8998   -4.4622   18.4678 S.3     1  UNL1       -0.0926
@<TRIPOS>BOND
     1    22    23    1
     2    23     1    1
     3     1     2   ar
     4     2     3   ar
     5     3     4   ar
     6     4     5   ar
     7     5     6   ar
     8     6     7   ar
     9     7     8   ar
    10     8     9   ar
    11     9    10    2
    12     9    11   ar
    13    11    13    1
    14    13    14    2
    15    13    15    2
    16    13    16    1
    17    16    17   ar
    18    17    18   ar
    19    18    19   ar
    20    19    20   ar
    21    20    21   ar
    22    11     1   ar
    23    21    16   ar
    24     8     3   ar
    25    10    12    1
