@<TRIPOS>MOLECULE
*****
 39 43 0 0 0
SMALL
GASTEIGER

@<TRIPOS>ATOM
      1 N           1.6681    1.8825   21.2674 N.am    1  UNL1       -0.3018
      2 C           0.8477    1.0641   20.3150 C.2     1  UNL1        0.2425
      3 O          -0.1928    0.1202   20.8412 O.2     1  UNL1       -0.2733
      4 H           2.3510    2.5019   20.9221 H       1  UNL1        0.1495
      5 N           1.1370    1.5799   24.8368 N.3     1  UNL1       -0.2711
      6 C           0.8855    2.6477   23.8138 C.3     1  UNL1        0.0933
      7 C           1.4481    1.7571   22.7459 C.3     1  UNL1        0.1035
      8 C           1.6996    0.6894   23.7689 C.3     1  UNL1        0.0933
      9 C           0.4769    1.2039   29.2722 C.3     1  UNL1        0.1140
     10 O          -0.6219    0.9074   30.2493 O.3     1  UNL1       -0.3821
     11 C           1.8402    1.5368   28.7423 C.3     1  UNL1        0.0331
     12 C           2.0602    1.6621   27.2639 C.3     1  UNL1        0.0187
     13 C           0.9170    1.4546   26.3152 C.3     1  UNL1        0.0578
     14 C          -0.4463    1.1218   26.8450 C.3     1  UNL1        0.0187
     15 C          -0.6664    0.9964   28.3235 C.3     1  UNL1        0.0331
     16 H          -0.2691    0.9401   31.1523 H       1  UNL1        0.2107
     17 C           2.0472    2.7670   34.0650 C.3     1  UNL1        0.0594
     18 C           1.9603    2.0269   32.7632 C.ar    1  UNL1        0.0884
     19 N           2.8608    0.9117   32.3212 N.ar    1  UNL1       -0.2414
     20 C           2.4148    0.4676   30.9597 C.ar    1  UNL1        0.1034
     21 C           1.2385    1.3084   30.5602 C.ar    1  UNL1        0.0514
     22 S           0.9577    2.2721   31.6749 S.2     1  UNL1       -0.0728
     23 C           1.0677    1.1894   18.8366 C.3     1  UNL1        0.1747
     24 N           1.9989    0.2463   18.1342 N.pl3   1  UNL1       -0.3106
     25 H           1.6374   -0.4565   17.5472 H       1  UNL1        0.1486
     26 C           3.4812    0.3739   18.3264 C.ar    1  UNL1        0.1320
     27 N           4.1666    1.6748   18.0299 N.ar    1  UNL1       -0.2092
     28 C           5.6487    1.8024   18.2221 C.ar    1  UNL1        0.2000
     29 N           6.4454    0.6291   18.7108 N.ar    1  UNL1       -0.2239
     30 C           5.7600   -0.6717   19.0073 C.ar    1  UNL1        0.0857
     31 C           6.5566   -1.8449   19.4960 C.ar    1  UNL1        0.0192
     32 C           5.8712   -3.1458   19.7925 C.ar    1  UNL1        0.0054
     33 C           4.3890   -3.2734   19.6003 C.ar    1  UNL1        0.0716
     34 C           3.5923   -2.1002   19.1116 C.ar    1  UNL1        0.0081
     35 C           4.2778   -0.7993   18.8151 C.ar    1  UNL1        0.0491
     36 C           3.7036   -4.5742   19.8968 C.3     1  UNL1        0.4186
     37 F           3.0181   -5.8751   20.1933 F       1  UNL1       -0.1659
     38 F           4.2316   -4.5326   21.3002 F       1  UNL1       -0.1659
     39 F           3.1755   -4.6159   18.4935 F       1  UNL1       -0.1659
@<TRIPOS>BOND
     1    17    18    1
     2    18    19   ar
     3    19    20   ar
     4    20    21   ar
     5    21     9    1
     6     9    10    1
     7     9    11    1
     8    11    12    1
     9    12    13    1
    10    13     5    1
    11     5     6    1
    12     6     7    1
    13     7     1    1
    14     1     2   am
    15     2     3    2
    16     2    23    1
    17    23    24    1
    18    24    26    1
    19    26    27   ar
    20    27    28   ar
    21    28    29   ar
    22    29    30   ar
    23    30    31   ar
    24    31    32   ar
    25    32    33   ar
    26    33    36    1
    27    36    37    1
    28    36    38    1
    29    36    39    1
    30    33    34   ar
    31    34    35   ar
    32     7     8    1
    33    13    14    1
    34    14    15    1
    35    21    22   ar
    36    22    18   ar
    37    15     9    1
    38     8     5    1
    39    35    26   ar
    40    35    30   ar
    41    10    16    1
    42     1     4    1
    43    24    25    1
@<TRIPOS>MOLECULE
*****
 39 43 0 0 0
SMALL
GASTEIGER

@<TRIPOS>ATOM
      1 N           6.2924   -3.0806   20.5871 N.am    1  UNL1       -0.3018
      2 C           5.3732   -3.8252   19.6647 C.2     1  UNL1        0.2425
      3 O           4.5959   -5.0040   20.1712 O.2     1  UNL1       -0.2733
      4 H           6.8025   -2.3070   20.2548 H       1  UNL1        0.1495
      5 N           6.6349   -4.1289   24.0365 N.3     1  UNL1       -0.2711
      6 C           7.5201   -4.1589   22.8259 C.3     1  UNL1        0.0933
      7 C           6.4342   -3.5148   22.0159 C.3     1  UNL1        0.1035
      8 C           5.5490   -3.4848   23.2264 C.3     1  UNL1        0.0933
      9 C           7.0605   -5.4315   28.3227 C.3     1  UNL1        0.1140
     10 O           7.4163   -6.6488   29.1238 O.3     1  UNL1       -0.3821
     11 C           6.6567   -4.0225   28.0036 C.3     1  UNL1        0.0331
     12 C           6.5148   -3.5884   26.5749 C.3     1  UNL1        0.0187
     13 C           6.7767   -4.5631   25.4652 C.3     1  UNL1        0.0578
     14 C           7.1805   -5.9720   25.7843 C.3     1  UNL1        0.0187
     15 C           7.3224   -6.4063   27.2131 C.3     1  UNL1        0.0331
     16 H           7.3690   -6.4386   30.0696 H       1  UNL1        0.2107
     17 C           6.4421   -2.0796   32.3554 C.3     1  UNL1        0.0594
     18 C           6.6379   -3.3388   31.5641 C.ar    1  UNL1        0.0884
     19 N           6.7805   -4.7214   32.1283 N.ar    1  UNL1       -0.2414
     20 C           6.9562   -5.6736   30.9827 C.ar    1  UNL1        0.1034
     21 C           6.9221   -4.8795   29.7106 C.ar    1  UNL1        0.0514
     22 S           6.7254   -3.4366   30.0700 S.2     1  UNL1       -0.0728
     23 C           5.2314   -3.3911   18.2360 C.3     1  UNL1        0.1747
     24 N           4.3760   -2.2075   17.8931 N.pl3   1  UNL1       -0.3106
     25 H           3.4019   -2.3148   17.7992 H       1  UNL1        0.1486
     26 C           5.0050   -0.8604   17.6934 C.ar    1  UNL1        0.1320
     27 N           6.3854   -0.7553   17.1162 N.ar    1  UNL1       -0.2092
     28 C           7.0143    0.5918   16.9165 C.ar    1  UNL1        0.2000
     29 N           6.2626    1.8337   17.2940 N.ar    1  UNL1       -0.2239
     30 C           4.8821    1.7287   17.8711 C.ar    1  UNL1        0.0857
     31 C           4.1305    2.9707   18.2486 C.ar    1  UNL1        0.0192
     32 C           2.7500    2.8656   18.8258 C.ar    1  UNL1        0.0054
     33 C           2.1211    1.5185   19.0256 C.ar    1  UNL1        0.0716
     34 C           2.8728    0.2765   18.6481 C.ar    1  UNL1        0.0081
     35 C           4.2533    0.3816   18.0709 C.ar    1  UNL1        0.0491
     36 C           0.7406    1.4134   19.6027 C.3     1  UNL1        0.4186
     37 F          -0.6399    1.3084   20.1800 F       1  UNL1       -0.1659
     38 F           0.7970   -0.0792   19.4658 F       1  UNL1       -0.1659
     39 F           0.6843    2.9061   19.7397 F       1  UNL1       -0.1659
@<TRIPOS>BOND
     1    17    18    1
     2    18    19   ar
     3    19    20   ar
     4    20    21   ar
     5    21     9    1
     6     9    10    1
     7     9    11    1
     8    11    12    1
     9    12    13    1
    10    13     5    1
    11     5     6    1
    12     6     7    1
    13     7     1    1
    14     1     2   am
    15     2     3    2
    16     2    23    1
    17    23    24    1
    18    24    26    1
    19    26    27   ar
    20    27    28   ar
    21    28    29   ar
    22    29    30   ar
    23    30    31   ar
    24    31    32   ar
    25    32    33   ar
    26    33    36    1
    27    36    37    1
    28    36    38    1
    29    36    39    1
    30    33    34   ar
    31    34    35   ar
    32     7     8    1
    33    13    14    1
    34    14    15    1
    35    21    22   ar
    36    22    18   ar
    37    15     9    1
    38     8     5    1
    39    35    26   ar
    40    35    30   ar
    41    10    16    1
    42     1     4    1
    43    24    25    1
@<TRIPOS>MOLECULE
*****
 39 43 0 0 0
SMALL
GASTEIGER

@<TRIPOS>ATOM
      1 N          -1.0035    2.0669   21.0777 N.am    1  UNL1       -0.3018
      2 C          -1.6835    3.0411   20.1621 C.2     1  UNL1        0.2425
      3 O          -1.0999    3.3340   18.8116 O.2     1  UNL1       -0.2733
      4 H          -1.3865    1.8746   21.9640 H       1  UNL1        0.1495
      5 N           2.0473    0.4222   20.0280 N.3     1  UNL1       -0.2711
      6 C           1.7053    1.7802   20.5654 C.3     1  UNL1        0.0933
      7 C           0.2602    1.3856   20.6429 C.3     1  UNL1        0.1035
      8 C           0.6022    0.0277   20.1054 C.3     1  UNL1        0.0933
      9 C           5.8383   -1.6215   18.7235 C.3     1  UNL1        0.1140
     10 O           6.5926   -1.9522   17.4698 O.3     1  UNL1       -0.3821
     11 C           5.4944   -1.5383   20.1812 C.3     1  UNL1        0.0331
     12 C           4.2308   -0.8571   20.6160 C.3     1  UNL1        0.0187
     13 C           3.3110   -0.2590   19.5931 C.3     1  UNL1        0.0578
     14 C           3.6548   -0.3422   18.1355 C.3     1  UNL1        0.0187
     15 C           4.9185   -1.0234   17.7006 C.3     1  UNL1        0.0331
     16 H           7.4057   -2.4294   17.6980 H       1  UNL1        0.2107
     17 C           8.7912   -4.9416   21.5760 C.3     1  UNL1        0.0594
     18 C           8.3773   -3.8606   20.6221 C.ar    1  UNL1        0.0884
     19 N           9.2998   -3.0026   19.8078 N.ar    1  UNL1       -0.2414
     20 C           8.4610   -2.0594   18.9975 C.ar    1  UNL1        0.1034
     21 C           7.0200   -2.3344   19.3109 C.ar    1  UNL1        0.0514
     22 S           6.9684   -3.4476   20.3150 S.2     1  UNL1       -0.0728
     23 C          -2.9472    3.7224   20.5969 C.3     1  UNL1        0.1747
     24 N          -4.0792    2.9150   21.1595 N.pl3   1  UNL1       -0.3106
     25 H          -4.2293    1.9934   20.8475 H       1  UNL1        0.1486
     26 C          -4.9826    3.5118   22.1978 C.ar    1  UNL1        0.1320
     27 N          -6.3548    3.9825   21.8167 N.ar    1  UNL1       -0.2092
     28 C          -7.2582    4.5792   22.8549 C.ar    1  UNL1        0.2000
     29 N          -6.7892    4.7052   24.2741 N.ar    1  UNL1       -0.2239
     30 C          -5.4169    4.2345   24.6552 C.ar    1  UNL1        0.0857
     31 C          -4.9480    4.3604   26.0744 C.ar    1  UNL1        0.0192
     32 C          -3.5757    3.8897   26.4554 C.ar    1  UNL1        0.0054
     33 C          -2.6723    3.2929   25.4172 C.ar    1  UNL1        0.0716
     34 C          -3.1413    3.1669   23.9980 C.ar    1  UNL1        0.0081
     35 C          -4.5136    3.6377   23.6170 C.ar    1  UNL1        0.0491
     36 C          -1.3001    2.8221   25.7983 C.3     1  UNL1        0.4186
     37 F           0.0722    2.3514   26.1794 F       1  UNL1       -0.1659
     38 F          -0.8608    2.9463   24.3695 F       1  UNL1       -0.1659
     39 F          -1.7394    2.6980   27.2271 F       1  UNL1       -0.1659
@<TRIPOS>BOND
     1    17    18    1
     2    18    19   ar
     3    19    20   ar
     4    20    21   ar
     5    21     9    1
     6     9    10    1
     7     9    11    1
     8    11    12    1
     9    12    13    1
    10    13     5    1
    11     5     6    1
    12     6     7    1
    13     7     1    1
    14     1     2   am
    15     2     3    2
    16     2    23    1
    17    23    24    1
    18    24    26    1
    19    26    27   ar
    20    27    28   ar
    21    28    29   ar
    22    29    30   ar
    23    30    31   ar
    24    31    32   ar
    25    32    33   ar
    26    33    36    1
    27    36    37    1
    28    36    38    1
    29    36    39    1
    30    33    34   ar
    31    34    35   ar
    32     7     8    1
    33    13    14    1
    34    14    15    1
    35    21    22   ar
    36    22    18   ar
    37    15     9    1
    38     8     5    1
    39    35    26   ar
    40    35    30   ar
    41    10    16    1
    42     1     4    1
    43    24    25    1
@<TRIPOS>MOLECULE
*****
 39 43 0 0 0
SMALL
GASTEIGER

@<TRIPOS>ATOM
      1 N           1.3090    0.4650   25.1725 N.am    1  UNL1       -0.3018
      2 C           2.5828    0.4189   25.9633 C.2     1  UNL1        0.2425
      3 O           2.7874    1.3624   27.1114 O.2     1  UNL1       -0.2733
      4 H           1.1747   -0.1542   24.4190 H       1  UNL1        0.1495
      5 N          -1.2721    2.8542   26.0351 N.3     1  UNL1       -0.2711
      6 C          -0.6687    1.6561   26.7062 C.3     1  UNL1        0.0933
      7 C           0.2399    1.4547   25.5298 C.3     1  UNL1        0.1035
      8 C          -0.3635    2.6527   24.8587 C.3     1  UNL1        0.0933
      9 C          -4.4795    5.8230   27.1071 C.3     1  UNL1        0.1140
     10 O          -4.6503    7.1071   27.8633 O.3     1  UNL1       -0.3821
     11 C          -4.8182    4.6194   26.2783 C.3     1  UNL1        0.0331
     12 C          -3.7490    3.6299   25.9209 C.3     1  UNL1        0.0187
     13 C          -2.3412    3.8437   26.3924 C.3     1  UNL1        0.0578
     14 C          -2.0025    5.0472   27.2212 C.3     1  UNL1        0.0187
     15 C          -3.0716    6.0369   27.5785 C.3     1  UNL1        0.0331
     16 H          -5.5770    7.3895   27.8158 H       1  UNL1        0.2107
     17 C          -9.2078    6.3220   24.8106 C.3     1  UNL1        0.0594
     18 C          -8.1199    6.2844   25.8426 C.ar    1  UNL1        0.0884
     19 N          -8.2886    6.5398   27.3111 N.ar    1  UNL1       -0.2414
     20 C          -6.9454    6.3981   27.9635 C.ar    1  UNL1        0.1034
     21 C          -5.9466    6.0550   26.8982 C.ar    1  UNL1        0.0514
     22 S          -6.6726    5.9848   25.5875 S.2     1  UNL1       -0.0728
     23 C           3.6519   -0.5707   25.6061 C.3     1  UNL1        0.1747
     24 N           4.3393   -0.4846   24.2756 N.pl3   1  UNL1       -0.3106
     25 H           4.4990    0.3934   23.8600 H       1  UNL1        0.1486
     26 C           4.7834   -1.7364   23.5785 C.ar    1  UNL1        0.1320
     27 N           5.7637   -2.6572   24.2426 N.ar    1  UNL1       -0.2092
     28 C           6.2077   -3.9089   23.5455 C.ar    1  UNL1        0.2000
     29 N           5.6714   -4.2398   22.1843 N.ar    1  UNL1       -0.2239
     30 C           4.6911   -3.3190   21.5202 C.ar    1  UNL1        0.0857
     31 C           4.1548   -3.6499   20.1590 C.ar    1  UNL1        0.0192
     32 C           3.1745   -2.7291   19.4949 C.ar    1  UNL1        0.0054
     33 C           2.7304   -1.4773   20.1920 C.ar    1  UNL1        0.0716
     34 C           3.2667   -1.1464   21.5532 C.ar    1  UNL1        0.0081
     35 C           4.2471   -2.0673   22.2173 C.ar    1  UNL1        0.0491
     36 C           1.7501   -0.5565   19.5280 C.3     1  UNL1        0.4186
     37 F           0.7697    0.3643   18.8639 F       1  UNL1       -0.1659
     38 F           2.7854   -0.1913   18.5059 F       1  UNL1       -0.1659
     39 F           0.7147   -0.9217   20.5500 F       1  UNL1       -0.1659
@<TRIPOS>BOND
     1    17    18    1
     2    18    19   ar
     3    19    20   ar
     4    20    21   ar
     5    21     9    1
     6     9    10    1
     7     9    11    1
     8    11    12    1
     9    12    13    1
    10    13     5    1
    11     5     6    1
    12     6     7    1
    13     7     1    1
    14     1     2   am
    15     2     3    2
    16     2    23    1
    17    23    24    1
    18    24    26    1
    19    26    27   ar
    20    27    28   ar
    21    28    29   ar
    22    29    30   ar
    23    30    31   ar
    24    31    32   ar
    25    32    33   ar
    26    33    36    1
    27    36    37    1
    28    36    38    1
    29    36    39    1
    30    33    34   ar
    31    34    35   ar
    32     7     8    1
    33    13    14    1
    34    14    15    1
    35    21    22   ar
    36    22    18   ar
    37    15     9    1
    38     8     5    1
    39    35    26   ar
    40    35    30   ar
    41    10    16    1
    42     1     4    1
    43    24    25    1
@<TRIPOS>MOLECULE
*****
 39 43 0 0 0
SMALL
GASTEIGER

@<TRIPOS>ATOM
      1 N           0.1749    2.5448   19.7604 N.am    1  UNL1       -0.3018
      2 C           0.6103    1.1094   19.7697 C.2     1  UNL1        0.2425
      3 O          -0.2143    0.0801   20.4843 O.2     1  UNL1       -0.2733
      4 H           0.7161    3.2204   19.2914 H       1  UNL1        0.1495
      5 N          -2.8670    3.5252   21.4634 N.3     1  UNL1       -0.2711
      6 C          -1.4639    3.2144   21.8931 C.3     1  UNL1        0.0933
      7 C          -1.0852    2.9509   20.4658 C.3     1  UNL1        0.1035
      8 C          -2.4882    3.2616   20.0361 C.3     1  UNL1        0.0933
      9 C          -6.6470    4.7433   23.5795 C.3     1  UNL1        0.1140
     10 O          -8.1353    4.6607   23.4120 O.3     1  UNL1       -0.3821
     11 C          -5.3121    5.0707   24.1805 C.3     1  UNL1        0.0331
     12 C          -4.0522    4.6646   23.4751 C.3     1  UNL1        0.0187
     13 C          -4.1270    3.9312   22.1688 C.3     1  UNL1        0.0578
     14 C          -5.4617    3.6039   21.5678 C.3     1  UNL1        0.0187
     15 C          -6.7218    4.0099   22.2732 C.3     1  UNL1        0.0331
     16 H          -8.5698    5.0881   24.1666 H       1  UNL1        0.2107
     17 C          -6.6191    6.9692   28.3675 C.3     1  UNL1        0.0594
     18 C          -7.0762    6.4712   27.0285 C.ar    1  UNL1        0.0884
     19 N          -8.4623    6.5939   26.4683 N.ar    1  UNL1       -0.2414
     20 C          -8.4702    5.9615   25.1082 C.ar    1  UNL1        0.1034
     21 C          -7.0890    5.4481   24.8276 C.ar    1  UNL1        0.0514
     22 S          -6.2275    5.7631   26.0145 S.2     1  UNL1       -0.0728
     23 C           1.8703    0.7033   19.0644 C.3     1  UNL1        0.1747
     24 N           3.1971    0.8689   19.7442 N.pl3   1  UNL1       -0.3106
     25 H           3.9456    1.2937   19.2661 H       1  UNL1        0.1486
     26 C           3.3835    0.3873   21.1526 C.ar    1  UNL1        0.1320
     27 N           3.2024    1.3363   22.2999 N.ar    1  UNL1       -0.2092
     28 C           3.3888    0.8546   23.7082 C.ar    1  UNL1        0.2000
     29 N           3.7563   -0.5761   23.9690 N.ar    1  UNL1       -0.2239
     30 C           3.9375   -1.5251   22.8216 C.ar    1  UNL1        0.0857
     31 C           4.3051   -2.9558   23.0825 C.ar    1  UNL1        0.0192
     32 C           4.4862   -3.9048   21.9351 C.ar    1  UNL1        0.0054
     33 C           4.2998   -3.4231   20.5268 C.ar    1  UNL1        0.0716
     34 C           3.9322   -1.9924   20.2659 C.ar    1  UNL1        0.0081
     35 C           3.7511   -1.0434   21.4134 C.ar    1  UNL1        0.0491
     36 C           4.4810   -4.3721   19.3794 C.3     1  UNL1        0.4186
     37 F           4.6621   -5.3212   18.2319 F       1  UNL1       -0.1659
     38 F           5.9403   -4.4885   19.7061 F       1  UNL1       -0.1659
     39 F           3.0216   -4.2557   19.0527 F       1  UNL1       -0.1659
@<TRIPOS>BOND
     1    17    18    1
     2    18    19   ar
     3    19    20   ar
     4    20    21   ar
     5    21     9    1
     6     9    10    1
     7     9    11    1
     8    11    12    1
     9    12    13    1
    10    13     5    1
    11     5     6    1
    12     6     7    1
    13     7     1    1
    14     1     2   am
    15     2     3    2
    16     2    23    1
    17    23    24    1
    18    24    26    1
    19    26    27   ar
    20    27    28   ar
    21    28    29   ar
    22    29    30   ar
    23    30    31   ar
    24    31    32   ar
    25    32    33   ar
    26    33    36    1
    27    36    37    1
    28    36    38    1
    29    36    39    1
    30    33    34   ar
    31    34    35   ar
    32     7     8    1
    33    13    14    1
    34    14    15    1
    35    21    22   ar
    36    22    18   ar
    37    15     9    1
    38     8     5    1
    39    35    26   ar
    40    35    30   ar
    41    10    16    1
    42     1     4    1
    43    24    25    1
@<TRIPOS>MOLECULE
*****
 39 43 0 0 0
SMALL
GASTEIGER

@<TRIPOS>ATOM
      1 N           5.6859   -2.8515   27.3596 N.am    1  UNL1       -0.3018
      2 C           6.9009   -2.6519   26.5030 C.2     1  UNL1        0.2425
      3 O           8.1221   -1.9948   27.0748 O.2     1  UNL1       -0.2733
      4 H           4.8844   -3.2828   26.9843 H       1  UNL1        0.1495
      5 N           5.7008   -1.7470   30.8084 N.3     1  UNL1       -0.2711
      6 C           5.0895   -1.2414   29.5354 C.3     1  UNL1        0.0933
      7 C           5.6921   -2.3941   28.7882 C.3     1  UNL1        0.1035
      8 C           6.3034   -2.8997   30.0612 C.3     1  UNL1        0.0933
      9 C           5.7192   -0.3746   35.0940 C.3     1  UNL1        0.1140
     10 O           4.8589   -0.4286   36.3215 O.3     1  UNL1       -0.3821
     11 C           6.8816   -0.0583   34.2001 C.3     1  UNL1        0.0331
     12 C           6.8755   -0.5158   32.7716 C.3     1  UNL1        0.0187
     13 C           5.7070   -1.2895   32.2369 C.3     1  UNL1        0.0578
     14 C           4.5446   -1.6058   33.1307 C.3     1  UNL1        0.0187
     15 C           4.5507   -1.1483   34.5593 C.3     1  UNL1        0.0331
     16 H           5.3044    0.0329   37.0492 H       1  UNL1        0.2107
     17 C           9.4851    0.7942   38.6058 C.3     1  UNL1        0.0594
     18 C           8.3200    0.9175   37.6692 C.ar    1  UNL1        0.0884
     19 N           7.5348    2.1667   37.3985 N.ar    1  UNL1       -0.2414
     20 C           6.4650    1.8347   36.4009 C.ar    1  UNL1        0.1034
     21 C           6.5889    0.3804   36.0550 C.ar    1  UNL1        0.0514
     22 S           7.7354   -0.1864   36.8389 S.2     1  UNL1       -0.0728
     23 C           6.8948   -3.1093   25.0745 C.3     1  UNL1        0.1747
     24 N           5.5973   -3.4410   24.3987 N.pl3   1  UNL1       -0.3106
     25 H           5.3480   -4.3811   24.2460 H       1  UNL1        0.1486
     26 C           4.6797   -2.3402   23.9556 C.ar    1  UNL1        0.1320
     27 N           4.2882   -1.2574   24.9170 N.ar    1  UNL1       -0.2092
     28 C           3.3707   -0.1567   24.4739 C.ar    1  UNL1        0.2000
     29 N           2.8445   -0.1388   23.0693 N.ar    1  UNL1       -0.2239
     30 C           3.2359   -1.2215   22.1078 C.ar    1  UNL1        0.0857
     31 C           2.7098   -1.2035   20.7033 C.ar    1  UNL1        0.0192
     32 C           3.1012   -2.2862   19.7418 C.ar    1  UNL1        0.0054
     33 C           4.0189   -3.3870   20.1849 C.ar    1  UNL1        0.0716
     34 C           4.5450   -3.4050   21.5895 C.ar    1  UNL1        0.0081
     35 C           4.1535   -2.3222   22.5510 C.ar    1  UNL1        0.0491
     36 C           4.4103   -4.4698   19.2235 C.3     1  UNL1        0.4186
     37 F           4.8018   -5.5526   18.2620 F       1  UNL1       -0.1659
     38 F           3.0165   -4.4817   18.6694 F       1  UNL1       -0.1659
     39 F           5.8041   -4.4579   19.7776 F       1  UNL1       -0.1659
@<TRIPOS>BOND
     1    17    18    1
     2    18    19   ar
     3    19    20   ar
     4    20    21   ar
     5    21     9    1
     6     9    10    1
     7     9    11    1
     8    11    12    1
     9    12    13    1
    10    13     5    1
    11     5     6    1
    12     6     7    1
    13     7     1    1
    14     1     2   am
    15     2     3    2
    16     2    23    1
    17    23    24    1
    18    24    26    1
    19    26    27   ar
    20    27    28   ar
    21    28    29   ar
    22    29    30   ar
    23    30    31   ar
    24    31    32   ar
    25    32    33   ar
    26    33    36    1
    27    36    37    1
    28    36    38    1
    29    36    39    1
    30    33    34   ar
    31    34    35   ar
    32     7     8    1
    33    13    14    1
    34    14    15    1
    35    21    22   ar
    36    22    18   ar
    37    15     9    1
    38     8     5    1
    39    35    26   ar
    40    35    30   ar
    41    10    16    1
    42     1     4    1
    43    24    25    1
@<TRIPOS>MOLECULE
*****
 39 43 0 0 0
SMALL
GASTEIGER

@<TRIPOS>ATOM
      1 N           2.7576   -0.9345   27.6293 N.am    1  UNL1       -0.3018
      2 C           3.4954   -0.1585   26.5789 C.2     1  UNL1        0.2425
      3 O           4.5518    0.8285   26.9791 O.2     1  UNL1       -0.2733
      4 H           2.0643   -1.5823   27.3666 H       1  UNL1        0.1495
      5 N           3.5265   -0.4254   31.1313 N.3     1  UNL1       -0.2711
      6 C           4.3199   -0.8004   29.9147 C.3     1  UNL1        0.0933
      7 C           3.0761   -0.7236   29.0799 C.3     1  UNL1        0.1035
      8 C           2.2827   -0.3487   30.2963 C.3     1  UNL1        0.0933
      9 C           4.4821    0.2073   35.4829 C.3     1  UNL1        0.1140
     10 O           4.9417   -0.5668   36.6827 O.3     1  UNL1       -0.3821
     11 C           4.0324    1.3623   34.6381 C.3     1  UNL1        0.0331
     12 C           3.7139    1.1514   33.1876 C.3     1  UNL1        0.0187
     13 C           3.8450   -0.2145   32.5818 C.3     1  UNL1        0.0578
     14 C           4.2947   -1.3695   33.4265 C.3     1  UNL1        0.0187
     15 C           4.6133   -1.1587   34.8771 C.3     1  UNL1        0.0331
     16 H           5.0089    0.0288   37.4454 H       1  UNL1        0.2107
     17 C           3.0380    3.5328   39.3216 C.3     1  UNL1        0.0594
     18 C           3.8467    2.8329   38.2698 C.ar    1  UNL1        0.0884
     19 N           5.2617    3.1524   37.8878 N.ar    1  UNL1       -0.2414
     20 C           5.6719    2.2077   36.7973 C.ar    1  UNL1        0.1034
     21 C           4.5105    1.3043   36.5053 C.ar    1  UNL1        0.0514
     22 S           3.3825    1.6908   37.4155 S.2     1  UNL1       -0.0728
     23 C           3.1770   -0.3693   25.1284 C.3     1  UNL1        0.1747
     24 N           4.2784   -0.3630   24.1101 N.pl3   1  UNL1       -0.3106
     25 H           4.7082    0.4852   23.8552 H       1  UNL1        0.1486
     26 C           4.7249   -1.6491   23.4802 C.ar    1  UNL1        0.1320
     27 N           5.6758   -2.5511   24.2098 N.ar    1  UNL1       -0.2092
     28 C           6.1222   -3.8371   23.5799 C.ar    1  UNL1        0.2000
     29 N           5.6178   -4.2211   22.2205 N.ar    1  UNL1       -0.2239
     30 C           4.6670   -3.3192   21.4909 C.ar    1  UNL1        0.0857
     31 C           4.1625   -3.7032   20.1315 C.ar    1  UNL1        0.0192
     32 C           3.2117   -2.8013   19.4019 C.ar    1  UNL1        0.0054
     33 C           2.7652   -1.5152   20.0318 C.ar    1  UNL1        0.0716
     34 C           3.2696   -1.1311   21.3912 C.ar    1  UNL1        0.0081
     35 C           4.2205   -2.0332   22.1208 C.ar    1  UNL1        0.0491
     36 C           1.8143   -0.6132   19.3022 C.3     1  UNL1        0.4186
     37 F           0.8635    0.2888   18.5726 F       1  UNL1       -0.1659
     38 F           0.7517   -0.9121   20.3178 F       1  UNL1       -0.1659
     39 F           2.8770   -0.3144   18.2867 F       1  UNL1       -0.1659
@<TRIPOS>BOND
     1    17    18    1
     2    18    19   ar
     3    19    20   ar
     4    20    21   ar
     5    21     9    1
     6     9    10    1
     7     9    11    1
     8    11    12    1
     9    12    13    1
    10    13     5    1
    11     5     6    1
    12     6     7    1
    13     7     1    1
    14     1     2   am
    15     2     3    2
    16     2    23    1
    17    23    24    1
    18    24    26    1
    19    26    27   ar
    20    27    28   ar
    21    28    29   ar
    22    29    30   ar
    23    30    31   ar
    24    31    32   ar
    25    32    33   ar
    26    33    36    1
    27    36    37    1
    28    36    38    1
    29    36    39    1
    30    33    34   ar
    31    34    35   ar
    32     7     8    1
    33    13    14    1
    34    14    15    1
    35    21    22   ar
    36    22    18   ar
    37    15     9    1
    38     8     5    1
    39    35    26   ar
    40    35    30   ar
    41    10    16    1
    42     1     4    1
    43    24    25    1
@<TRIPOS>MOLECULE
*****
 39 43 0 0 0
SMALL
GASTEIGER

@<TRIPOS>ATOM
      1 N          -1.9405    3.2985   25.3520 N.am    1  UNL1       -0.3018
      2 C          -1.7418    4.6119   26.0487 C.2     1  UNL1        0.2425
      3 O          -0.4725    5.3847   25.8446 O.2     1  UNL1       -0.2733
      4 H          -2.7736    2.7913   25.4859 H       1  UNL1        0.1495
      5 N           0.6443    1.9933   23.1773 N.3     1  UNL1       -0.2711
      6 C           0.2485    1.7703   24.6068 C.3     1  UNL1        0.0933
      7 C          -0.8698    2.7578   24.4511 C.3     1  UNL1        0.1035
      8 C          -0.4740    2.9808   23.0217 C.3     1  UNL1        0.0933
      9 C           3.8563    0.3714   20.4749 C.3     1  UNL1        0.1140
     10 O           5.2080    0.7460   19.9433 O.3     1  UNL1       -0.3821
     11 C           2.6049   -0.4210   20.7120 C.3     1  UNL1        0.0331
     12 C           1.5342    0.1196   21.6128 C.3     1  UNL1        0.0187
     13 C           1.7150    1.4526   22.2765 C.3     1  UNL1        0.0578
     14 C           2.9663    2.2450   22.0394 C.3     1  UNL1        0.0187
     15 C           4.0370    1.7044   21.1386 C.3     1  UNL1        0.0331
     16 H           5.5328    0.0418   19.3606 H       1  UNL1        0.2107
     17 C           4.3309   -4.6295   18.8482 C.3     1  UNL1        0.0594
     18 C           4.3631   -3.1302   18.8789 C.ar    1  UNL1        0.0884
     19 N           4.8153   -2.2350   17.7634 N.ar    1  UNL1       -0.2414
     20 C           4.6805   -0.8143   18.2255 C.ar    1  UNL1        0.1034
     21 C           4.1450   -0.8315   19.6266 C.ar    1  UNL1        0.0514
     22 S           3.9489   -2.2628   20.0303 S.2     1  UNL1       -0.0728
     23 C          -2.8124    5.1525   26.9495 C.3     1  UNL1        0.1747
     24 N          -4.0917    4.3915   27.1347 N.pl3   1  UNL1       -0.3106
     25 H          -4.0670    3.4469   27.4108 H       1  UNL1        0.1486
     26 C          -5.4087    5.0699   26.8992 C.ar    1  UNL1        0.1320
     27 N          -6.0760    5.8198   28.0137 N.ar    1  UNL1       -0.2092
     28 C          -7.3930    6.4981   27.7782 C.ar    1  UNL1        0.2000
     29 N          -8.0426    6.4265   26.4280 N.ar    1  UNL1       -0.2239
     30 C          -7.3753    5.6766   25.3135 C.ar    1  UNL1        0.0857
     31 C          -8.0249    5.6051   23.9633 C.ar    1  UNL1        0.0192
     32 C          -7.3575    4.8552   22.8487 C.ar    1  UNL1        0.0054
     33 C          -6.0405    4.1768   23.0843 C.ar    1  UNL1        0.0716
     34 C          -5.3909    4.2484   24.4344 C.ar    1  UNL1        0.0081
     35 C          -6.0583    4.9983   25.5490 C.ar    1  UNL1        0.0491
     36 C          -5.3732    3.4270   21.9697 C.3     1  UNL1        0.4186
     37 F          -4.7059    2.6771   20.8550 F       1  UNL1       -0.1659
     38 F          -4.3640    2.8854   22.9383 F       1  UNL1       -0.1659
     39 F          -6.3824    3.9685   21.0011 F       1  UNL1       -0.1659
@<TRIPOS>BOND
     1    17    18    1
     2    18    19   ar
     3    19    20   ar
     4    20    21   ar
     5    21     9    1
     6     9    10    1
     7     9    11    1
     8    11    12    1
     9    12    13    1
    10    13     5    1
    11     5     6    1
    12     6     7    1
    13     7     1    1
    14     1     2   am
    15     2     3    2
    16     2    23    1
    17    23    24    1
    18    24    26    1
    19    26    27   ar
    20    27    28   ar
    21    28    29   ar
    22    29    30   ar
    23    30    31   ar
    24    31    32   ar
    25    32    33   ar
    26    33    36    1
    27    36    37    1
    28    36    38    1
    29    36    39    1
    30    33    34   ar
    31    34    35   ar
    32     7     8    1
    33    13    14    1
    34    14    15    1
    35    21    22   ar
    36    22    18   ar
    37    15     9    1
    38     8     5    1
    39    35    26   ar
    40    35    30   ar
    41    10    16    1
    42     1     4    1
    43    24    25    1
@<TRIPOS>MOLECULE
*****
 39 43 0 0 0
SMALL
GASTEIGER

@<TRIPOS>ATOM
      1 N           0.4924    2.1376   22.6194 N.am    1  UNL1       -0.3018
      2 C           1.0900    1.1579   21.6535 C.2     1  UNL1        0.2425
      3 O           1.9031    0.0044   22.1619 O.2     1  UNL1       -0.2733
      4 H          -0.0412    2.8947   22.2857 H       1  UNL1        0.1495
      5 N           1.0122    1.7179   26.1786 N.3     1  UNL1       -0.2711
      6 C           0.2248    0.9915   25.1287 C.3     1  UNL1        0.0933
      7 C           0.7077    1.9638   24.0937 C.3     1  UNL1        0.1035
      8 C           1.4951    2.6903   25.1435 C.3     1  UNL1        0.0933
      9 C           1.6581    1.1964   30.6013 C.3     1  UNL1        0.1140
     10 O           1.0384    1.5949   31.9079 O.3     1  UNL1       -0.3821
     11 C           2.6076    0.5671   29.6253 C.3     1  UNL1        0.0331
     12 C           2.3922    0.7409   28.1511 C.3     1  UNL1        0.0187
     13 C           1.2275    1.5441   27.6528 C.3     1  UNL1        0.0578
     14 C           0.2781    2.1734   28.6287 C.3     1  UNL1        0.0187
     15 C           0.4934    1.9996   30.1031 C.3     1  UNL1        0.0331
     16 H           1.5593    1.2264   32.6386 H       1  UNL1        0.2107
     17 C           4.9753   -2.2942   32.7673 C.3     1  UNL1        0.0594
     18 C           4.1324   -1.0729   32.5489 C.ar    1  UNL1        0.0884
     19 N           4.0052    0.0900   33.4879 N.ar    1  UNL1       -0.2414
     20 C           3.0628    1.0816   32.8726 C.ar    1  UNL1        0.1034
     21 C           2.6076    0.5316   31.5534 C.ar    1  UNL1        0.0514
     22 S           3.2687   -0.7999   31.3534 S.2     1  UNL1       -0.0728
     23 C           0.8747    1.3317   20.1793 C.3     1  UNL1        0.1747
     24 N           1.4679    0.3490   19.2137 N.pl3   1  UNL1       -0.3106
     25 H           0.9131   -0.3768   18.8468 H       1  UNL1        0.1486
     26 C           2.9066    0.4721   18.8071 C.ar    1  UNL1        0.1320
     27 N           3.4448    1.7935   18.3445 N.ar    1  UNL1       -0.2092
     28 C           4.8834    1.9165   17.9380 C.ar    1  UNL1        0.2000
     29 N           5.7838    0.7181   17.9941 N.ar    1  UNL1       -0.2239
     30 C           5.2456   -0.6033   18.4568 C.ar    1  UNL1        0.0857
     31 C           6.1460   -1.8017   18.5130 C.ar    1  UNL1        0.0192
     32 C           5.6078   -3.1231   18.9757 C.ar    1  UNL1        0.0054
     33 C           4.1691   -3.2462   19.3822 C.ar    1  UNL1        0.0716
     34 C           3.2687   -2.0478   19.3261 C.ar    1  UNL1        0.0081
     35 C           3.8070   -0.7263   18.8633 C.ar    1  UNL1        0.0491
     36 C           3.6310   -4.5676   19.8449 C.3     1  UNL1        0.4186
     37 F           3.0927   -5.8891   20.3076 F       1  UNL1       -0.1659
     38 F           4.4415   -4.4575   21.1022 F       1  UNL1       -0.1659
     39 F           2.8204   -4.6777   18.5877 F       1  UNL1       -0.1659
@<TRIPOS>BOND
     1    17    18    1
     2    18    19   ar
     3    19    20   ar
     4    20    21   ar
     5    21     9    1
     6     9    10    1
     7     9    11    1
     8    11    12    1
     9    12    13    1
    10    13     5    1
    11     5     6    1
    12     6     7    1
    13     7     1    1
    14     1     2   am
    15     2     3    2
    16     2    23    1
    17    23    24    1
    18    24    26    1
    19    26    27   ar
    20    27    28   ar
    21    28    29   ar
    22    29    30   ar
    23    30    31   ar
    24    31    32   ar
    25    32    33   ar
    26    33    36    1
    27    36    37    1
    28    36    38    1
    29    36    39    1
    30    33    34   ar
    31    34    35   ar
    32     7     8    1
    33    13    14    1
    34    14    15    1
    35    21    22   ar
    36    22    18   ar
    37    15     9    1
    38     8     5    1
    39    35    26   ar
    40    35    30   ar
    41    10    16    1
    42     1     4    1
    43    24    25    1
