@<TRIPOS>MOLECULE
*****
 36 40 0 0 0
SMALL
GASTEIGER

@<TRIPOS>ATOM
      1 N          -8.9267  -18.2365   21.2586 N.3     1  UNL1       -0.2641
      2 C          -9.5397  -18.9195   22.4451 C.3     1  UNL1        0.0981
      3 C          -8.7945  -20.0155   23.1475 C.3     1  UNL1        0.0224
      4 C          -9.4076  -20.6984   24.3339 C.3     1  UNL1        0.0065
      5 C         -10.7659  -20.2853   24.8180 C.3     1  UNL1        0.0277
      6 C         -11.5111  -19.1893   24.1156 C.ar    1  UNL1       -0.0073
      7 C         -12.8695  -18.7762   24.5997 C.ar    1  UNL1       -0.0015
      8 C         -13.6147  -17.6802   23.8973 C.ar    1  UNL1        0.0203
      9 C         -13.0016  -16.9973   22.7108 C.ar    1  UNL1        0.0985
     10 N         -11.6433  -17.4104   22.2267 N.ar    1  UNL1       -0.2471
     11 C         -10.8980  -18.5064   22.9291 C.ar    1  UNL1        0.0695
     12 C          -8.9174  -18.9185   19.9226 C.3     1  UNL1        0.0989
     13 C          -6.5862  -19.9604   20.4023 C.2     1  UNL1       -0.0122
     14 C          -7.8554  -19.9287   19.6035 C.2     1  UNL1       -0.0120
     15 C          -5.5243  -20.9705   20.0831 C.3     1  UNL1        0.0951
     16 N          -4.1077  -20.5269   19.8674 N.3     1  UNL1       -0.2938
     17 H          -4.1440  -19.7157   19.2501 H       1  UNL1        0.1236
     18 C          -3.2558  -20.1408   21.0401 C.3     1  UNL1        0.0689
     19 C          -2.5684  -18.8077   21.0612 C.3     1  UNL1        0.0207
     20 C          -2.9862  -17.7641   22.0544 C.3     1  UNL1        0.0335
     21 C          -2.2988  -16.4311   22.0754 C.3     1  UNL1        0.1422
     22 O          -1.1937  -16.1416   21.1034 O.3     1  UNL1       -0.3538
     23 C          -0.7759  -17.1852   20.1102 C.3     1  UNL1        0.1422
     24 C          -1.4633  -18.5182   20.0891 C.3     1  UNL1        0.0335
     25 C          -8.3229  -16.8716   21.4080 C.3     1  UNL1        0.0888
     26 C          -7.7111  -16.4611   22.7147 C.3     1  UNL1        0.0748
     27 C          -8.5908  -16.1315   23.8840 C.3     1  UNL1        0.0432
     28 C          -7.9790  -15.7210   25.1906 C.ar    1  UNL1       -0.0234
     29 C          -8.8587  -15.3913   26.3600 C.ar    1  UNL1       -0.0045
     30 C          -8.2469  -14.9808   27.6665 C.ar    1  UNL1       -0.0003
     31 C          -6.7553  -14.9000   27.8038 C.ar    1  UNL1       -0.0003
     32 C          -5.8756  -15.2296   26.6344 C.ar    1  UNL1       -0.0032
     33 C          -6.4874  -15.6401   25.3279 C.ar    1  UNL1       -0.0103
     34 C          -5.6077  -15.9697   24.1584 C.3     1  UNL1        0.0953
     35 N          -6.2195  -16.3802   22.8519 N.3     1  UNL1       -0.2934
     36 H          -5.8531  -17.3067   22.6333 H       1  UNL1        0.1236
@<TRIPOS>BOND
     1    13    14    2
     2    14    12    1
     3    12     1    1
     4     1    25    1
     5    26    25    1
     6    26    27    1
     7    27    28    1
     8    28    29   ar
     9    29    30   ar
    10    30    31   ar
    11    31    32   ar
    12    32    33   ar
    13    33    34    1
    14    34    35    1
    15     2     1    1
    16     2     3    1
    17     3     4    1
    18     4     5    1
    19     5     6    1
    20     6     7   ar
    21     7     8   ar
    22     8     9   ar
    23     9    10   ar
    24    10    11   ar
    25    13    15    1
    26    15    16    1
    27    16    18    1
    28    18    19    1
    29    19    20    1
    30    20    21    1
    31    21    22    1
    32    22    23    1
    33    23    24    1
    34    35    26    1
    35    11     2    1
    36    24    19    1
    37    33    28   ar
    38    11     6   ar
    39    35    36    1
    40    16    17    1
@<TRIPOS>MOLECULE
*****
 36 40 0 0 0
SMALL
GASTEIGER

@<TRIPOS>ATOM
      1 N          -7.6770  -19.6585   21.7610 N.3     1  UNL1       -0.2641
      2 C          -8.4047  -19.1893   22.9858 C.3     1  UNL1        0.0981
      3 C          -9.3131  -20.1273   23.7239 C.3     1  UNL1        0.0224
      4 C         -10.0409  -19.6581   24.9487 C.3     1  UNL1        0.0065
      5 C          -9.8602  -18.2509   25.4355 C.3     1  UNL1        0.0277
      6 C          -8.9518  -17.3129   24.6974 C.ar    1  UNL1       -0.0073
      7 C          -8.7711  -15.9055   25.1842 C.ar    1  UNL1       -0.0015
      8 C          -7.8627  -14.9675   24.4461 C.ar    1  UNL1        0.0203
      9 C          -7.1350  -15.4367   23.2212 C.ar    1  UNL1        0.0985
     10 N          -7.3156  -16.8439   22.7345 N.ar    1  UNL1       -0.2471
     11 C          -8.2241  -17.7821   23.4726 C.ar    1  UNL1        0.0695
     12 C          -8.3089  -19.5072   20.4091 C.3     1  UNL1        0.0989
     13 C         -10.7944  -19.6635   21.1495 C.2     1  UNL1       -0.0122
     14 C          -9.7306  -19.0428   20.2934 C.2     1  UNL1       -0.0120
     15 C         -12.2159  -19.1991   21.0338 C.3     1  UNL1        0.0951
     16 N         -12.8549  -18.4504   22.1658 N.3     1  UNL1       -0.2938
     17 H         -12.5461  -18.9001   23.0276 H       1  UNL1        0.1236
     18 C         -12.6029  -16.9809   22.3299 C.3     1  UNL1        0.0689
     19 C         -11.8230  -16.2328   21.2896 C.3     1  UNL1        0.0207
     20 C         -12.3988  -16.0350   19.9187 C.3     1  UNL1        0.0335
     21 C         -11.6189  -15.2870   18.8785 C.3     1  UNL1        0.1422
     22 O         -10.2632  -14.7367   19.2091 O.3     1  UNL1       -0.3538
     23 C          -9.6875  -14.9345   20.5800 C.3     1  UNL1        0.1422
     24 C         -10.4673  -15.6825   21.6202 C.3     1  UNL1        0.0335
     25 C          -6.3173  -20.2790   21.8880 C.3     1  UNL1        0.0888
     26 C          -5.0893  -19.4261   21.7662 C.3     1  UNL1        0.0748
     27 C          -4.2818  -19.4502   20.5024 C.3     1  UNL1        0.0432
     28 C          -3.0538  -18.5973   20.3806 C.ar    1  UNL1       -0.0234
     29 C          -2.2462  -18.6214   19.1168 C.ar    1  UNL1       -0.0045
     30 C          -1.0183  -17.7686   18.9951 C.ar    1  UNL1       -0.0003
     31 C          -0.5980  -16.8917   20.1371 C.ar    1  UNL1       -0.0003
     32 C          -1.4055  -16.8676   21.4009 C.ar    1  UNL1       -0.0032
     33 C          -2.6334  -17.7204   21.5227 C.ar    1  UNL1       -0.0103
     34 C          -3.4410  -17.6963   22.7865 C.3     1  UNL1        0.0953
     35 N          -4.6689  -18.5492   22.9083 N.3     1  UNL1       -0.2934
     36 H          -5.4479  -17.9185   23.0975 H       1  UNL1        0.1236
@<TRIPOS>BOND
     1    13    14    2
     2    14    12    1
     3    12     1    1
     4     1    25    1
     5    26    25    1
     6    26    27    1
     7    27    28    1
     8    28    29   ar
     9    29    30   ar
    10    30    31   ar
    11    31    32   ar
    12    32    33   ar
    13    33    34    1
    14    34    35    1
    15     2     1    1
    16     2     3    1
    17     3     4    1
    18     4     5    1
    19     5     6    1
    20     6     7   ar
    21     7     8   ar
    22     8     9   ar
    23     9    10   ar
    24    10    11   ar
    25    13    15    1
    26    15    16    1
    27    16    18    1
    28    18    19    1
    29    19    20    1
    30    20    21    1
    31    21    22    1
    32    22    23    1
    33    23    24    1
    34    35    26    1
    35    11     2    1
    36    24    19    1
    37    33    28   ar
    38    11     6   ar
    39    35    36    1
    40    16    17    1
@<TRIPOS>MOLECULE
*****
 36 40 0 0 0
SMALL
GASTEIGER

@<TRIPOS>ATOM
      1 N          -7.4977  -18.4991   21.9032 N.3     1  UNL1       -0.2641
      2 C          -8.8808  -18.8903   22.3323 C.3     1  UNL1        0.0981
      3 C          -9.0756  -20.0318   23.2857 C.3     1  UNL1        0.0224
      4 C         -10.4586  -20.4230   23.7147 C.3     1  UNL1        0.0065
      5 C         -11.6469  -19.6728   23.1903 C.3     1  UNL1        0.0277
      6 C         -11.4522  -18.5314   22.2368 C.ar    1  UNL1       -0.0073
      7 C         -12.6405  -17.7811   21.7124 C.ar    1  UNL1       -0.0015
      8 C         -12.4458  -16.6396   20.7589 C.ar    1  UNL1        0.0203
      9 C         -11.0627  -16.2484   20.3299 C.ar    1  UNL1        0.0985
     10 N          -9.8744  -16.9986   20.8543 N.ar    1  UNL1       -0.2471
     11 C         -10.0691  -18.1401   21.8078 C.ar    1  UNL1        0.0695
     12 C          -6.9477  -17.1553   22.2796 C.3     1  UNL1        0.0989
     13 C          -5.6102  -15.6659   23.9358 C.2     1  UNL1       -0.0122
     14 C          -6.3094  -16.9554   23.6223 C.2     1  UNL1       -0.0120
     15 C          -4.9719  -15.4661   25.2784 C.3     1  UNL1        0.0951
     16 N          -5.5697  -14.4986   26.2566 N.3     1  UNL1       -0.2938
     17 H          -5.8204  -13.6629   25.7283 H       1  UNL1        0.1236
     18 C          -6.7806  -14.8877   27.0517 C.3     1  UNL1        0.0689
     19 C          -7.8793  -15.6790   26.4061 C.3     1  UNL1        0.0207
     20 C          -8.2704  -17.0145   26.9659 C.3     1  UNL1        0.0335
     21 C          -9.3691  -17.8056   26.3203 C.3     1  UNL1        0.1422
     22 O         -10.0767  -17.2614   25.1148 O.3     1  UNL1       -0.3538
     23 C          -9.6855  -15.9259   24.5550 C.3     1  UNL1        0.1422
     24 C          -8.5868  -15.1347   25.2006 C.3     1  UNL1        0.0335
     25 C          -6.6647  -19.4516   21.0979 C.3     1  UNL1        0.0888
     26 C          -5.1789  -19.2629   21.0147 C.3     1  UNL1        0.0748
     27 C          -4.5685  -18.6462   19.7911 C.3     1  UNL1        0.0432
     28 C          -3.0827  -18.4575   19.7079 C.ar    1  UNL1       -0.0234
     29 C          -2.4724  -17.8407   18.4844 C.ar    1  UNL1       -0.0045
     30 C          -0.9866  -17.6521   18.4012 C.ar    1  UNL1       -0.0003
     31 C          -0.1113  -18.0801   19.5416 C.ar    1  UNL1       -0.0003
     32 C          -0.7216  -18.6969   20.7652 C.ar    1  UNL1       -0.0032
     33 C          -2.2073  -18.8855   20.8483 C.ar    1  UNL1       -0.0103
     34 C          -2.8178  -19.5023   22.0719 C.3     1  UNL1        0.0953
     35 N          -4.3035  -19.6910   22.1550 N.3     1  UNL1       -0.2934
     36 H          -4.6199  -19.1778   22.9778 H       1  UNL1        0.1236
@<TRIPOS>BOND
     1    13    14    2
     2    14    12    1
     3    12     1    1
     4     1    25    1
     5    26    25    1
     6    26    27    1
     7    27    28    1
     8    28    29   ar
     9    29    30   ar
    10    30    31   ar
    11    31    32   ar
    12    32    33   ar
    13    33    34    1
    14    34    35    1
    15     2     1    1
    16     2     3    1
    17     3     4    1
    18     4     5    1
    19     5     6    1
    20     6     7   ar
    21     7     8   ar
    22     8     9   ar
    23     9    10   ar
    24    10    11   ar
    25    13    15    1
    26    15    16    1
    27    16    18    1
    28    18    19    1
    29    19    20    1
    30    20    21    1
    31    21    22    1
    32    22    23    1
    33    23    24    1
    34    35    26    1
    35    11     2    1
    36    24    19    1
    37    33    28   ar
    38    11     6   ar
    39    35    36    1
    40    16    17    1
@<TRIPOS>MOLECULE
*****
 36 40 0 0 0
SMALL
GASTEIGER

@<TRIPOS>ATOM
      1 N          -9.5906  -18.8606   23.6657 N.3     1  UNL1       -0.2641
      2 C         -10.4903  -18.1125   22.7272 C.3     1  UNL1        0.0981
      3 C         -11.8904  -18.5939   22.4869 C.3     1  UNL1        0.0224
      4 C         -12.7901  -17.8458   21.5484 C.3     1  UNL1        0.0065
      5 C         -12.2897  -16.6161   20.8502 C.3     1  UNL1        0.0277
      6 C         -10.8896  -16.1347   21.0905 C.ar    1  UNL1       -0.0073
      7 C         -10.3891  -14.9050   20.3923 C.ar    1  UNL1       -0.0015
      8 C          -8.9889  -14.4235   20.6325 C.ar    1  UNL1        0.0203
      9 C          -8.0892  -15.1717   21.5710 C.ar    1  UNL1        0.0985
     10 N          -8.5896  -16.4013   22.2693 N.ar    1  UNL1       -0.2471
     11 C          -9.9899  -16.8828   22.0290 C.ar    1  UNL1        0.0695
     12 C          -9.5228  -18.4687   25.1120 C.3     1  UNL1        0.0989
     13 C          -8.7649  -16.7404   26.8976 C.2     1  UNL1       -0.0122
     14 C          -9.1795  -17.0587   25.4916 C.2     1  UNL1       -0.0120
     15 C          -8.4216  -15.3304   27.2772 C.3     1  UNL1        0.0951
     16 N          -6.9936  -14.8719   27.2463 N.3     1  UNL1       -0.2938
     17 H          -6.8145  -14.4065   28.1361 H       1  UNL1        0.1236
     18 C          -5.8901  -15.8684   27.0489 C.3     1  UNL1        0.0689
     19 C          -5.2562  -16.0280   25.6987 C.3     1  UNL1        0.0207
     20 C          -5.5953  -15.0724   24.5933 C.3     1  UNL1        0.0335
     21 C          -4.9615  -15.2320   23.2433 C.3     1  UNL1        0.1422
     22 O          -3.9885  -16.3471   22.9986 O.3     1  UNL1       -0.3538
     23 C          -3.6493  -17.3026   24.1040 C.3     1  UNL1        0.1422
     24 C          -4.2832  -17.1430   25.4541 C.3     1  UNL1        0.0335
     25 C          -8.7586  -20.0008   23.1579 C.3     1  UNL1        0.0888
     26 C          -7.6393  -19.7412   22.1936 C.3     1  UNL1        0.0748
     27 C          -6.2159  -19.9254   22.6295 C.3     1  UNL1        0.0432
     28 C          -5.0966  -19.6659   21.6652 C.ar    1  UNL1       -0.0234
     29 C          -3.6732  -19.8501   22.1011 C.ar    1  UNL1       -0.0045
     30 C          -2.5540  -19.5906   21.1367 C.ar    1  UNL1       -0.0003
     31 C          -2.8582  -19.1469   19.7365 C.ar    1  UNL1       -0.0003
     32 C          -4.2815  -18.9627   19.3006 C.ar    1  UNL1       -0.0032
     33 C          -5.4008  -19.2222   20.2649 C.ar    1  UNL1       -0.0103
     34 C          -6.8242  -19.0380   19.8290 C.3     1  UNL1        0.0953
     35 N          -7.9434  -19.2976   20.7934 N.3     1  UNL1       -0.2934
     36 H          -8.5298  -20.0204   20.3762 H       1  UNL1        0.1236
@<TRIPOS>BOND
     1    13    14    2
     2    14    12    1
     3    12     1    1
     4     1    25    1
     5    26    25    1
     6    26    27    1
     7    27    28    1
     8    28    29   ar
     9    29    30   ar
    10    30    31   ar
    11    31    32   ar
    12    32    33   ar
    13    33    34    1
    14    34    35    1
    15     2     1    1
    16     2     3    1
    17     3     4    1
    18     4     5    1
    19     5     6    1
    20     6     7   ar
    21     7     8   ar
    22     8     9   ar
    23     9    10   ar
    24    10    11   ar
    25    13    15    1
    26    15    16    1
    27    16    18    1
    28    18    19    1
    29    19    20    1
    30    20    21    1
    31    21    22    1
    32    22    23    1
    33    23    24    1
    34    35    26    1
    35    11     2    1
    36    24    19    1
    37    33    28   ar
    38    11     6   ar
    39    35    36    1
    40    16    17    1
@<TRIPOS>MOLECULE
*****
 36 40 0 0 0
SMALL
GASTEIGER

@<TRIPOS>ATOM
      1 N          -8.8558  -17.5482   21.5075 N.3     1  UNL1       -0.2641
      2 C         -10.3342  -17.3066   21.4303 C.3     1  UNL1        0.0981
      3 C         -10.9168  -16.5938   20.2460 C.3     1  UNL1        0.0224
      4 C         -12.3952  -16.3523   20.1688 C.3     1  UNL1        0.0065
      5 C         -13.2910  -16.8234   21.2758 C.3     1  UNL1        0.0277
      6 C         -12.7083  -17.5361   22.4601 C.ar    1  UNL1       -0.0073
      7 C         -13.6041  -18.0073   23.5672 C.ar    1  UNL1       -0.0015
      8 C         -13.0215  -18.7200   24.7514 C.ar    1  UNL1        0.0203
      9 C         -11.5431  -18.9616   24.8287 C.ar    1  UNL1        0.0985
     10 N         -10.6473  -18.4905   23.7217 N.ar    1  UNL1       -0.2471
     11 C         -11.2299  -17.7777   22.5373 C.ar    1  UNL1        0.0695
     12 C          -7.9449  -16.4693   22.0138 C.3     1  UNL1        0.0989
     13 C          -8.2085  -16.5220   24.5979 C.2     1  UNL1       -0.0122
     14 C          -8.2571  -15.7676   23.3024 C.2     1  UNL1       -0.0120
     15 C          -8.5206  -15.8204   25.8864 C.3     1  UNL1        0.0951
     16 N          -7.5248  -15.8340   27.0082 N.3     1  UNL1       -0.2938
     17 H          -7.4231  -16.8062   27.2999 H       1  UNL1        0.1236
     18 C          -6.1402  -15.3008   26.7885 C.3     1  UNL1        0.0689
     19 C          -5.3613  -15.7136   25.5749 C.3     1  UNL1        0.0207
     20 C          -5.3190  -14.8199   24.3710 C.3     1  UNL1        0.0335
     21 C          -4.5401  -15.2327   23.1574 C.3     1  UNL1        0.1422
     22 O          -3.8035  -16.5393   23.1477 O.3     1  UNL1       -0.3538
     23 C          -3.8457  -17.4331   24.3515 C.3     1  UNL1        0.1422
     24 C          -4.6246  -17.0202   25.5651 C.3     1  UNL1        0.0335
     25 C          -8.2882  -18.8686   21.0785 C.3     1  UNL1        0.0888
     26 C          -6.8071  -19.1009   21.1306 C.3     1  UNL1        0.0748
     27 C          -5.9264  -18.5742   20.0366 C.3     1  UNL1        0.0432
     28 C          -4.4454  -18.8065   20.0886 C.ar    1  UNL1       -0.0234
     29 C          -3.5647  -18.2798   18.9946 C.ar    1  UNL1       -0.0045
     30 C          -2.0837  -18.5121   19.0467 C.ar    1  UNL1       -0.0003
     31 C          -1.4835  -19.2711   20.1928 C.ar    1  UNL1       -0.0003
     32 C          -2.3642  -19.7978   21.2868 C.ar    1  UNL1       -0.0032
     33 C          -3.8451  -19.5655   21.2347 C.ar    1  UNL1       -0.0103
     34 C          -4.7259  -20.0923   22.3288 C.3     1  UNL1        0.0953
     35 N          -6.2069  -19.8600   22.2767 N.3     1  UNL1       -0.2934
     36 H          -6.4557  -19.3547   23.1270 H       1  UNL1        0.1236
@<TRIPOS>BOND
     1    13    14    2
     2    14    12    1
     3    12     1    1
     4     1    25    1
     5    26    25    1
     6    26    27    1
     7    27    28    1
     8    28    29   ar
     9    29    30   ar
    10    30    31   ar
    11    31    32   ar
    12    32    33   ar
    13    33    34    1
    14    34    35    1
    15     2     1    1
    16     2     3    1
    17     3     4    1
    18     4     5    1
    19     5     6    1
    20     6     7   ar
    21     7     8   ar
    22     8     9   ar
    23     9    10   ar
    24    10    11   ar
    25    13    15    1
    26    15    16    1
    27    16    18    1
    28    18    19    1
    29    19    20    1
    30    20    21    1
    31    21    22    1
    32    22    23    1
    33    23    24    1
    34    35    26    1
    35    11     2    1
    36    24    19    1
    37    33    28   ar
    38    11     6   ar
    39    35    36    1
    40    16    17    1
@<TRIPOS>MOLECULE
*****
 36 40 0 0 0
SMALL
GASTEIGER

@<TRIPOS>ATOM
      1 N          -8.7647  -19.2663   23.1311 N.3     1  UNL1       -0.2641
      2 C          -8.5354  -17.7882   23.2438 C.3     1  UNL1        0.0981
      3 C          -8.3474  -16.9619   22.0061 C.3     1  UNL1        0.0224
      4 C          -8.1180  -15.4838   22.1188 C.3     1  UNL1        0.0065
      5 C          -8.0767  -14.8321   23.4692 C.3     1  UNL1        0.0277
      6 C          -8.2647  -15.6584   24.7068 C.ar    1  UNL1       -0.0073
      7 C          -8.2234  -15.0067   26.0572 C.ar    1  UNL1       -0.0015
      8 C          -8.4114  -15.8330   27.2949 C.ar    1  UNL1        0.0203
      9 C          -8.6407  -17.3111   27.1822 C.ar    1  UNL1        0.0985
     10 N          -8.6821  -17.9628   25.8318 N.ar    1  UNL1       -0.2471
     11 C          -8.4941  -17.1365   24.5941 C.ar    1  UNL1        0.0695
     12 C          -9.5937  -19.9772   24.1593 C.3     1  UNL1        0.0989
     13 C         -11.7802  -18.7814   24.8938 C.2     1  UNL1       -0.0122
     14 C         -11.0893  -19.8675   24.1237 C.2     1  UNL1       -0.0120
     15 C         -13.2757  -18.6717   24.8581 C.3     1  UNL1        0.0951
     16 N         -13.9551  -18.0671   23.6652 N.3     1  UNL1       -0.2938
     17 H         -14.8845  -17.7785   23.9705 H       1  UNL1        0.1236
     18 C         -13.3418  -16.8875   22.9706 C.3     1  UNL1        0.0689
     19 C         -12.4574  -17.0963   21.7771 C.3     1  UNL1        0.0207
     20 C         -11.9947  -15.9188   20.9714 C.3     1  UNL1        0.0335
     21 C         -11.1103  -16.1276   19.7780 C.3     1  UNL1        0.1422
     22 O         -10.6887  -17.5140   19.3903 O.3     1  UNL1       -0.3538
     23 C         -11.1515  -18.6915   20.1960 C.3     1  UNL1        0.1422
     24 C         -12.0359  -18.4827   21.3894 C.3     1  UNL1        0.0335
     25 C          -8.1651  -20.0335   21.9901 C.3     1  UNL1        0.0888
     26 C          -6.7074  -19.8839   21.6695 C.3     1  UNL1        0.0748
     27 C          -5.8475  -18.9736   22.4953 C.3     1  UNL1        0.0432
     28 C          -4.3897  -18.8240   22.1748 C.ar    1  UNL1       -0.0234
     29 C          -3.5298  -17.9138   23.0005 C.ar    1  UNL1       -0.0045
     30 C          -2.0721  -17.7642   22.6800 C.ar    1  UNL1       -0.0003
     31 C          -1.4744  -18.5250   21.5337 C.ar    1  UNL1       -0.0003
     32 C          -2.3343  -19.4353   20.7080 C.ar    1  UNL1       -0.0032
     33 C          -3.7919  -19.5848   21.0285 C.ar    1  UNL1       -0.0103
     34 C          -4.6519  -20.4951   20.2027 C.3     1  UNL1        0.0953
     35 N          -6.1096  -20.6447   20.5233 N.3     1  UNL1       -0.2934
     36 H          -6.2697  -21.6343   20.7113 H       1  UNL1        0.1236
@<TRIPOS>BOND
     1    13    14    2
     2    14    12    1
     3    12     1    1
     4     1    25    1
     5    26    25    1
     6    26    27    1
     7    27    28    1
     8    28    29   ar
     9    29    30   ar
    10    30    31   ar
    11    31    32   ar
    12    32    33   ar
    13    33    34    1
    14    34    35    1
    15     2     1    1
    16     2     3    1
    17     3     4    1
    18     4     5    1
    19     5     6    1
    20     6     7   ar
    21     7     8   ar
    22     8     9   ar
    23     9    10   ar
    24    10    11   ar
    25    13    15    1
    26    15    16    1
    27    16    18    1
    28    18    19    1
    29    19    20    1
    30    20    21    1
    31    21    22    1
    32    22    23    1
    33    23    24    1
    34    35    26    1
    35    11     2    1
    36    24    19    1
    37    33    28   ar
    38    11     6   ar
    39    35    36    1
    40    16    17    1
@<TRIPOS>MOLECULE
*****
 36 40 0 0 0
SMALL
GASTEIGER

@<TRIPOS>ATOM
      1 N          -7.4045  -19.2833   21.8472 N.3     1  UNL1       -0.2641
      2 C          -7.6349  -17.8368   22.1707 C.3     1  UNL1        0.0981
      3 C          -8.8254  -17.1220   21.6037 C.3     1  UNL1        0.0224
      4 C          -9.0559  -15.6755   21.9271 C.3     1  UNL1        0.0065
      5 C          -8.0957  -14.9439   22.8175 C.3     1  UNL1        0.0277
      6 C          -6.9052  -15.6588   23.3845 C.ar    1  UNL1       -0.0073
      7 C          -5.9450  -14.9271   24.2749 C.ar    1  UNL1       -0.0015
      8 C          -4.7544  -15.6420   24.8419 C.ar    1  UNL1        0.0203
      9 C          -4.5240  -17.0885   24.5184 C.ar    1  UNL1        0.0985
     10 N          -5.4841  -17.8201   23.6281 N.ar    1  UNL1       -0.2471
     11 C          -6.6747  -17.1052   23.0610 C.ar    1  UNL1        0.0695
     12 C          -8.0268  -20.3504   22.6980 C.3     1  UNL1        0.0989
     13 C          -9.3867  -19.1675   24.5691 C.2     1  UNL1       -0.0122
     14 C          -9.3328  -20.0920   23.3892 C.2     1  UNL1       -0.0120
     15 C         -10.6927  -18.9090   25.2603 C.3     1  UNL1        0.0951
     16 N         -11.9835  -19.2501   24.5765 N.3     1  UNL1       -0.2938
     17 H         -12.6070  -19.6218   25.2931 H       1  UNL1        0.1236
     18 C         -12.7488  -18.1870   23.8457 C.3     1  UNL1        0.0689
     19 C         -12.4085  -17.8631   22.4211 C.3     1  UNL1        0.0207
     20 C         -12.6151  -16.4725   21.8982 C.3     1  UNL1        0.0335
     21 C         -12.2748  -16.1486   20.4737 C.3     1  UNL1        0.1422
     22 O         -11.7279  -17.2154   19.5721 O.3     1  UNL1       -0.3538
     23 C         -11.5214  -18.6060   20.0950 C.3     1  UNL1        0.1422
     24 C         -11.8616  -18.9299   21.5195 C.3     1  UNL1        0.0335
     25 C          -6.5517  -19.6627   20.6730 C.3     1  UNL1        0.0888
     26 C          -5.0740  -19.4063   20.7052 C.3     1  UNL1        0.0748
     27 C          -4.4030  -18.7394   19.5412 C.3     1  UNL1        0.0432
     28 C          -2.9254  -18.4830   19.5734 C.ar    1  UNL1       -0.0234
     29 C          -2.2544  -17.8162   18.4094 C.ar    1  UNL1       -0.0045
     30 C          -0.7768  -17.5598   18.4416 C.ar    1  UNL1       -0.0003
     31 C           0.0297  -17.9703   19.6378 C.ar    1  UNL1       -0.0003
     32 C          -0.6413  -18.6372   20.8019 C.ar    1  UNL1       -0.0032
     33 C          -2.1189  -18.8935   20.7696 C.ar    1  UNL1       -0.0103
     34 C          -2.7900  -19.5604   21.9337 C.3     1  UNL1        0.0953
     35 N          -4.2675  -19.8168   21.9014 N.3     1  UNL1       -0.2934
     36 H          -4.6677  -19.3342   22.7061 H       1  UNL1        0.1236
@<TRIPOS>BOND
     1    13    14    2
     2    14    12    1
     3    12     1    1
     4     1    25    1
     5    26    25    1
     6    26    27    1
     7    27    28    1
     8    28    29   ar
     9    29    30   ar
    10    30    31   ar
    11    31    32   ar
    12    32    33   ar
    13    33    34    1
    14    34    35    1
    15     2     1    1
    16     2     3    1
    17     3     4    1
    18     4     5    1
    19     5     6    1
    20     6     7   ar
    21     7     8   ar
    22     8     9   ar
    23     9    10   ar
    24    10    11   ar
    25    13    15    1
    26    15    16    1
    27    16    18    1
    28    18    19    1
    29    19    20    1
    30    20    21    1
    31    21    22    1
    32    22    23    1
    33    23    24    1
    34    35    26    1
    35    11     2    1
    36    24    19    1
    37    33    28   ar
    38    11     6   ar
    39    35    36    1
    40    16    17    1
@<TRIPOS>MOLECULE
*****
 36 40 0 0 0
SMALL
GASTEIGER

@<TRIPOS>ATOM
      1 N           7.2012   -4.2488   23.2697 N.3     1  UNL1       -0.2641
      2 C           7.6928   -5.3935   24.1052 C.3     1  UNL1        0.0981
      3 C           8.4266   -6.5318   23.4604 C.3     1  UNL1        0.0224
      4 C           8.9182   -7.6765   24.2958 C.3     1  UNL1        0.0065
      5 C           8.6761   -7.6828   25.7761 C.3     1  UNL1        0.0277
      6 C           7.9424   -6.5445   26.4209 C.ar    1  UNL1       -0.0073
      7 C           7.7003   -6.5508   27.9013 C.ar    1  UNL1       -0.0015
      8 C           6.9665   -5.4125   28.5461 C.ar    1  UNL1        0.0203
      9 C           6.4749   -4.2679   27.7106 C.ar    1  UNL1        0.0985
     10 N           6.7170   -4.2615   26.2303 N.ar    1  UNL1       -0.2471
     11 C           7.4507   -5.3998   25.5855 C.ar    1  UNL1        0.0695
     12 C           8.1382   -3.1409   22.8897 C.3     1  UNL1        0.0989
     13 C           7.7706   -2.2450   20.4788 C.2     1  UNL1       -0.0122
     14 C           8.6019   -3.0047   21.4696 C.2     1  UNL1       -0.0120
     15 C           8.2343   -2.1088   19.0588 C.3     1  UNL1        0.0951
     16 N           7.2308   -1.9863   17.9506 N.3     1  UNL1       -0.2938
     17 H           7.4517   -2.7146   17.2715 H       1  UNL1        0.1236
     18 C           5.7655   -2.1027   18.2493 C.3     1  UNL1        0.0689
     19 C           4.9283   -0.8661   18.3905 C.3     1  UNL1        0.0207
     20 C           3.5527   -0.8196   17.7942 C.3     1  UNL1        0.0335
     21 C           2.7155    0.4169   17.9354 C.3     1  UNL1        0.1422
     22 O           3.2539    1.6070   18.6729 O.3     1  UNL1       -0.3538
     23 C           4.6294    1.5605   19.2693 C.3     1  UNL1        0.1422
     24 C           5.4666    0.3239   19.1281 C.3     1  UNL1        0.0335
     25 C           5.7725   -4.2121   22.8142 C.3     1  UNL1        0.0888
     26 C           4.9036   -3.0405   23.1641 C.3     1  UNL1        0.0748
     27 C           4.0766   -2.3767   22.1032 C.3     1  UNL1        0.0432
     28 C           3.2077   -1.2051   22.4531 C.ar    1  UNL1       -0.0234
     29 C           2.3807   -0.5413   21.3922 C.ar    1  UNL1       -0.0045
     30 C           1.5119    0.6302   21.7421 C.ar    1  UNL1       -0.0003
     31 C           1.4701    1.1381   23.1529 C.ar    1  UNL1       -0.0003
     32 C           2.2970    0.4743   24.2138 C.ar    1  UNL1       -0.0032
     33 C           3.1659   -0.6972   23.8639 C.ar    1  UNL1       -0.0103
     34 C           3.9929   -1.3610   24.9248 C.3     1  UNL1        0.0953
     35 N           4.8618   -2.5326   24.5749 N.3     1  UNL1       -0.2934
     36 H           4.5559   -3.3108   25.1590 H       1  UNL1        0.1236
@<TRIPOS>BOND
     1    13    14    2
     2    14    12    1
     3    12     1    1
     4     1    25    1
     5    26    25    1
     6    26    27    1
     7    27    28    1
     8    28    29   ar
     9    29    30   ar
    10    30    31   ar
    11    31    32   ar
    12    32    33   ar
    13    33    34    1
    14    34    35    1
    15     2     1    1
    16     2     3    1
    17     3     4    1
    18     4     5    1
    19     5     6    1
    20     6     7   ar
    21     7     8   ar
    22     8     9   ar
    23     9    10   ar
    24    10    11   ar
    25    13    15    1
    26    15    16    1
    27    16    18    1
    28    18    19    1
    29    19    20    1
    30    20    21    1
    31    21    22    1
    32    22    23    1
    33    23    24    1
    34    35    26    1
    35    11     2    1
    36    24    19    1
    37    33    28   ar
    38    11     6   ar
    39    35    36    1
    40    16    17    1
@<TRIPOS>MOLECULE
*****
 36 40 0 0 0
SMALL
GASTEIGER

@<TRIPOS>ATOM
      1 N          -8.1875  -17.1729   22.8889 N.3     1  UNL1       -0.2641
      2 C          -8.2386  -16.9666   24.3738 C.3     1  UNL1        0.0981
      3 C          -9.3410  -17.5872   25.1797 C.3     1  UNL1        0.0224
      4 C          -9.3921  -17.3809   26.6646 C.3     1  UNL1        0.0065
      5 C          -8.3409  -16.5539   27.3435 C.3     1  UNL1        0.0277
      6 C          -7.2386  -15.9333   26.5376 C.ar    1  UNL1       -0.0073
      7 C          -6.1873  -15.1063   27.2166 C.ar    1  UNL1       -0.0015
      8 C          -5.0849  -14.4856   26.4107 C.ar    1  UNL1        0.0203
      9 C          -5.0338  -14.6919   24.9258 C.ar    1  UNL1        0.0985
     10 N          -6.0850  -15.5189   24.2469 N.ar    1  UNL1       -0.2471
     11 C          -7.1874  -16.1396   25.0528 C.ar    1  UNL1        0.0695
     12 C          -8.5911  -16.0637   21.9633 C.3     1  UNL1        0.0989
     13 C         -10.4120  -16.1153   20.1108 C.2     1  UNL1       -0.0122
     14 C         -10.0248  -15.9190   21.5465 C.2     1  UNL1       -0.0120
     15 C         -11.8456  -15.9705   19.6941 C.3     1  UNL1        0.0951
     16 N         -12.9418  -16.1545   20.7015 N.3     1  UNL1       -0.2938
     17 H         -13.7626  -15.6727   20.3348 H       1  UNL1        0.1236
     18 C         -13.3850  -17.5355   21.0838 C.3     1  UNL1        0.0689
     19 C         -12.6520  -18.2893   22.1537 C.3     1  UNL1        0.0207
     20 C         -13.0129  -18.0864   23.5954 C.3     1  UNL1        0.0335
     21 C         -12.2799  -18.8401   24.6652 C.3     1  UNL1        0.1422
     22 O         -11.1860  -19.7967   24.2933 O.3     1  UNL1       -0.3538
     23 C         -10.8252  -19.9997   22.8516 C.3     1  UNL1        0.1422
     24 C         -11.5581  -19.2459   21.7818 C.3     1  UNL1        0.0335
     25 C          -7.7327  -18.4883   22.3297 C.3     1  UNL1        0.0888
     26 C          -6.4410  -18.5748   21.5719 C.3     1  UNL1        0.0748
     27 C          -5.1347  -18.4978   22.3051 C.3     1  UNL1        0.0432
     28 C          -3.8431  -18.5844   21.5473 C.ar    1  UNL1       -0.0234
     29 C          -2.5368  -18.5074   22.2805 C.ar    1  UNL1       -0.0045
     30 C          -1.2452  -18.5939   21.5227 C.ar    1  UNL1       -0.0003
     31 C          -1.2599  -18.7574   20.0317 C.ar    1  UNL1       -0.0003
     32 C          -2.5662  -18.8344   19.2985 C.ar    1  UNL1       -0.0032
     33 C          -3.8578  -18.7479   20.0563 C.ar    1  UNL1       -0.0103
     34 C          -5.1642  -18.8249   19.3231 C.3     1  UNL1        0.0953
     35 N          -6.4557  -18.7383   20.0809 N.3     1  UNL1       -0.2934
     36 H          -6.9708  -19.5964   19.8839 H       1  UNL1        0.1236
@<TRIPOS>BOND
     1    13    14    2
     2    14    12    1
     3    12     1    1
     4     1    25    1
     5    26    25    1
     6    26    27    1
     7    27    28    1
     8    28    29   ar
     9    29    30   ar
    10    30    31   ar
    11    31    32   ar
    12    32    33   ar
    13    33    34    1
    14    34    35    1
    15     2     1    1
    16     2     3    1
    17     3     4    1
    18     4     5    1
    19     5     6    1
    20     6     7   ar
    21     7     8   ar
    22     8     9   ar
    23     9    10   ar
    24    10    11   ar
    25    13    15    1
    26    15    16    1
    27    16    18    1
    28    18    19    1
    29    19    20    1
    30    20    21    1
    31    21    22    1
    32    22    23    1
    33    23    24    1
    34    35    26    1
    35    11     2    1
    36    24    19    1
    37    33    28   ar
    38    11     6   ar
    39    35    36    1
    40    16    17    1
