@<TRIPOS>MOLECULE
*****
 33 36 0 0 0
SMALL
GASTEIGER

@<TRIPOS>ATOM
      1 C          -6.0570  -18.5888   21.5528 C.ar    1  UNL1        0.0186
      2 C          -7.1402  -19.4513   20.9759 C.ar    1  UNL1        0.0671
      3 N          -8.4314  -19.0829   21.6445 N.ar    1  UNL1       -0.3243
      4 C          -8.1463  -17.9927   22.6346 C.ar    1  UNL1        0.0602
      5 C          -9.0332  -17.2387   23.5804 C.ar    1  UNL1        0.0203
      6 C          -8.4527  -16.1793   24.4696 C.ar    1  UNL1        0.0387
      7 C          -6.9852  -15.8739   24.4129 C.ar    1  UNL1        0.1469
      8 C          -6.0983  -16.6279   23.4670 C.ar    1  UNL1        0.0387
      9 C          -6.6788  -17.6874   22.5779 C.ar    1  UNL1        0.0201
     10 C          -1.7060  -18.6881   20.4087 C.ar    1  UNL1        0.1901
     11 N          -2.1030  -18.7457   21.8541 N.ar    1  UNL1       -0.2196
     12 C          -3.5533  -18.7126   22.2354 C.ar    1  UNL1        0.1026
     13 C          -4.6067  -18.6219   21.1715 C.ar    1  UNL1        0.0396
     14 C          -4.2097  -18.5642   19.7260 C.ar    1  UNL1        0.1026
     15 N          -2.7593  -18.5973   19.3447 N.ar    1  UNL1       -0.2196
     16 C           0.5589  -17.4622   20.0659 C.3     1  UNL1        0.0772
     17 S          -0.2556  -18.7212   20.0274 S.3     1  UNL1       -0.0748
     18 C          -6.9633  -20.4983   19.9164 C.3     1  UNL1        0.1809
     19 O          -5.9964  -21.6250   20.1296 O.3     1  UNL1       -0.3760
     20 H          -5.0928  -21.2737   20.1631 H       1  UNL1        0.2110
     21 C          -9.7724  -19.6969   21.3711 C.3     1  UNL1        0.1333
     22 C         -11.0108  -19.0851   21.9560 C.ar    1  UNL1        0.0110
     23 C         -11.4168  -19.4128   23.3624 C.ar    1  UNL1       -0.0016
     24 C         -12.6552  -18.8011   23.9474 C.ar    1  UNL1       -0.0002
     25 C         -13.4875  -17.8616   23.1260 C.ar    1  UNL1        0.0008
     26 C         -13.0815  -17.5340   21.7197 C.ar    1  UNL1        0.0111
     27 C         -11.8432  -18.1457   21.1347 C.ar    1  UNL1        0.0555
     28 CL        -11.4372  -17.8180   19.7284 Cl      1  UNL1       -0.0825
     29 O          -6.4047  -14.8144   25.3021 O.3     1  UNL1       -0.4045
     30 C          -6.3025  -15.0490   26.7800 C.3     1  UNL1        0.5753
     31 F          -6.2002  -15.2836   28.2581 F       1  UNL1       -0.1328
     32 F          -7.7335  -14.6312   26.9454 F       1  UNL1       -0.1328
     33 F          -4.8714  -15.4669   26.6147 F       1  UNL1       -0.1328
@<TRIPOS>BOND
     1    16    17    1
     2    17    10    1
     3    10    11   ar
     4    11    12   ar
     5    12    13   ar
     6    13     1    1
     7     1     2   ar
     8     2    18    1
     9    18    19    1
    10     2     3   ar
    11     3    21    1
    12    21    22    1
    13    22    23   ar
    14    23    24   ar
    15    24    25   ar
    16    25    26   ar
    17    26    27   ar
    18    27    28    1
    19     3     4   ar
    20     4     5   ar
    21     5     6   ar
    22     6     7   ar
    23     7    29    1
    24    29    30    1
    25    30    31    1
    26    30    32    1
    27    30    33    1
    28     7     8   ar
    29     8     9   ar
    30    13    14   ar
    31    14    15   ar
    32    15    10   ar
    33     9     1   ar
    34    27    22   ar
    35     9     4   ar
    36    19    20    1
@<TRIPOS>MOLECULE
*****
 33 36 0 0 0
SMALL
GASTEIGER

@<TRIPOS>ATOM
      1 C          -7.7276  -18.3949   22.0546 C.ar    1  UNL1        0.0186
      2 C          -7.1160  -19.1950   20.9430 C.ar    1  UNL1        0.0671
      3 N          -5.6250  -19.0668   21.0455 N.ar    1  UNL1       -0.3243
      4 C          -5.3151  -18.1875   22.2206 C.ar    1  UNL1        0.0602
      5 C          -4.0175  -17.7113   22.8032 C.ar    1  UNL1        0.0203
      6 C          -4.0194  -16.8198   24.0095 C.ar    1  UNL1        0.0387
      7 C          -5.3189  -16.4046   24.6332 C.ar    1  UNL1        0.1469
      8 C          -6.6164  -16.8808   24.0506 C.ar    1  UNL1        0.0387
      9 C          -6.6145  -17.7723   22.8442 C.ar    1  UNL1        0.0201
     10 C         -12.1287  -17.9421   22.8766 C.ar    1  UNL1        0.1901
     11 N         -11.3861  -19.1342   23.4032 N.ar    1  UNL1       -0.2196
     12 C          -9.9191  -19.2852   23.1292 C.ar    1  UNL1        0.1026
     13 C          -9.1946  -18.2440   22.3286 C.ar    1  UNL1        0.0396
     14 C          -9.9372  -17.0517   21.8020 C.ar    1  UNL1        0.1026
     15 N         -11.4042  -16.9008   22.0760 N.ar    1  UNL1       -0.2196
     16 C         -14.1568  -18.2031   24.4793 C.3     1  UNL1        0.0772
     17 S         -13.5957  -17.7911   23.1506 S.3     1  UNL1       -0.0748
     18 C          -7.8641  -19.9847   19.9101 C.3     1  UNL1        0.1809
     19 O          -8.7432  -19.2807   18.9194 O.3     1  UNL1       -0.3760
     20 H          -9.4904  -18.8717   19.3835 H       1  UNL1        0.2110
     21 C          -4.6203  -19.7058   20.1332 C.3     1  UNL1        0.1333
     22 C          -3.3530  -18.9814   19.7884 C.ar    1  UNL1        0.0110
     23 C          -3.3415  -17.9797   18.6719 C.ar    1  UNL1       -0.0016
     24 C          -2.0741  -17.2553   18.3270 C.ar    1  UNL1       -0.0002
     25 C          -0.8181  -17.5326   19.0988 C.ar    1  UNL1        0.0008
     26 C          -0.8295  -18.5342   20.2152 C.ar    1  UNL1        0.0111
     27 C          -2.0969  -19.2586   20.5601 C.ar    1  UNL1        0.0555
     28 CL         -2.1082  -20.2602   21.6766 Cl      1  UNL1       -0.0825
     29 O          -5.3207  -15.5131   25.8396 O.3     1  UNL1       -0.4045
     30 C          -6.5749  -15.3429   26.6445 C.3     1  UNL1        0.5753
     31 F          -7.8292  -15.1728   27.4495 F       1  UNL1       -0.1328
     32 F          -6.0655  -16.3345   27.6480 F       1  UNL1       -0.1328
     33 F          -7.0844  -14.3512   25.6410 F       1  UNL1       -0.1328
@<TRIPOS>BOND
     1    16    17    1
     2    17    10    1
     3    10    11   ar
     4    11    12   ar
     5    12    13   ar
     6    13     1    1
     7     1     2   ar
     8     2    18    1
     9    18    19    1
    10     2     3   ar
    11     3    21    1
    12    21    22    1
    13    22    23   ar
    14    23    24   ar
    15    24    25   ar
    16    25    26   ar
    17    26    27   ar
    18    27    28    1
    19     3     4   ar
    20     4     5   ar
    21     5     6   ar
    22     6     7   ar
    23     7    29    1
    24    29    30    1
    25    30    31    1
    26    30    32    1
    27    30    33    1
    28     7     8   ar
    29     8     9   ar
    30    13    14   ar
    31    14    15   ar
    32    15    10   ar
    33     9     1   ar
    34    27    22   ar
    35     9     4   ar
    36    19    20    1
@<TRIPOS>MOLECULE
*****
 33 36 0 0 0
SMALL
GASTEIGER

@<TRIPOS>ATOM
      1 C          -7.1053  -17.9407   22.5672 C.ar    1  UNL1        0.0186
      2 C          -5.7532  -18.4612   22.1786 C.ar    1  UNL1        0.0671
      3 N          -5.8904  -19.1726   20.8651 N.ar    1  UNL1       -0.3243
      4 C          -7.3272  -19.0916   20.4420 C.ar    1  UNL1        0.0602
      5 C          -8.0488  -19.6129   19.2347 C.ar    1  UNL1        0.0203
      6 C          -9.5213  -19.3727   19.0793 C.ar    1  UNL1        0.0387
      7 C         -10.2721  -18.6113   20.1313 C.ar    1  UNL1        0.1469
      8 C          -9.5505  -18.0901   21.3385 C.ar    1  UNL1        0.0387
      9 C          -8.0781  -18.3303   21.4939 C.ar    1  UNL1        0.0201
     10 C          -8.0732  -15.6178   26.2978 C.ar    1  UNL1        0.1901
     11 N          -8.9151  -16.7967   25.9087 N.ar    1  UNL1       -0.2196
     12 C          -8.5925  -17.5709   24.6651 C.ar    1  UNL1        0.1026
     13 C          -7.4279  -17.1664   23.8107 C.ar    1  UNL1        0.0396
     14 C          -6.5859  -15.9875   24.1999 C.ar    1  UNL1        0.1026
     15 N          -6.9086  -15.2132   25.4434 N.ar    1  UNL1       -0.2196
     16 C          -7.3101  -14.1088   28.2703 C.3     1  UNL1        0.0772
     17 S          -8.3959  -14.8436   27.5414 S.3     1  UNL1       -0.0748
     18 C          -4.4865  -18.2990   22.9653 C.3     1  UNL1        0.1809
     19 O          -3.6059  -17.1073   22.7317 O.3     1  UNL1       -0.3760
     20 H          -3.2364  -17.1491   21.8358 H       1  UNL1        0.2110
     21 C          -4.7849  -19.8465   20.1078 C.3     1  UNL1        0.1333
     22 C          -3.5474  -19.0799   19.7464 C.ar    1  UNL1        0.0110
     23 C          -3.5903  -18.0622   18.6452 C.ar    1  UNL1       -0.0016
     24 C          -2.3528  -17.2955   18.2837 C.ar    1  UNL1       -0.0002
     25 C          -1.0723  -17.5464   19.0236 C.ar    1  UNL1        0.0008
     26 C          -1.0293  -18.5640   20.1248 C.ar    1  UNL1        0.0111
     27 C          -2.2668  -19.3307   20.4862 C.ar    1  UNL1        0.0555
     28 CL         -2.2238  -20.3483   21.5874 Cl      1  UNL1       -0.0825
     29 O         -11.7446  -18.3712   19.9759 O.3     1  UNL1       -0.4045
     30 C         -12.3894  -17.2000   20.6559 C.3     1  UNL1        0.5753
     31 F         -13.0342  -16.0287   21.3360 F       1  UNL1       -0.1328
     32 F         -12.9476  -18.1160   21.7043 F       1  UNL1       -0.1328
     33 F         -11.8312  -16.2839   19.6074 F       1  UNL1       -0.1328
@<TRIPOS>BOND
     1    16    17    1
     2    17    10    1
     3    10    11   ar
     4    11    12   ar
     5    12    13   ar
     6    13     1    1
     7     1     2   ar
     8     2    18    1
     9    18    19    1
    10     2     3   ar
    11     3    21    1
    12    21    22    1
    13    22    23   ar
    14    23    24   ar
    15    24    25   ar
    16    25    26   ar
    17    26    27   ar
    18    27    28    1
    19     3     4   ar
    20     4     5   ar
    21     5     6   ar
    22     6     7   ar
    23     7    29    1
    24    29    30    1
    25    30    31    1
    26    30    32    1
    27    30    33    1
    28     7     8   ar
    29     8     9   ar
    30    13    14   ar
    31    14    15   ar
    32    15    10   ar
    33     9     1   ar
    34    27    22   ar
    35     9     4   ar
    36    19    20    1
@<TRIPOS>MOLECULE
*****
 33 36 0 0 0
SMALL
GASTEIGER

@<TRIPOS>ATOM
      1 C           4.8054   -0.0957   33.9792 C.ar    1  UNL1        0.0186
      2 C           4.9987    0.4317   35.3700 C.ar    1  UNL1        0.0671
      3 N           3.9961    1.5245   35.5947 N.ar    1  UNL1       -0.3243
      4 C           3.1831    1.6725   34.3428 C.ar    1  UNL1        0.0602
      5 C           2.0521    2.5896   33.9830 C.ar    1  UNL1        0.0203
      6 C           1.4212    2.5053   32.6248 C.ar    1  UNL1        0.0387
      7 C           1.9215    1.5039   31.6263 C.ar    1  UNL1        0.1469
      8 C           3.0525    0.5868   31.9861 C.ar    1  UNL1        0.0387
      9 C           3.6834    0.6710   33.3443 C.ar    1  UNL1        0.0201
     10 C           7.1756   -3.3988   32.0498 C.ar    1  UNL1        0.1901
     11 N           7.7972   -2.0486   32.2512 N.ar    1  UNL1       -0.2196
     12 C           7.0071   -0.9476   32.8943 C.ar    1  UNL1        0.1026
     13 C           5.5955   -1.1967   33.3361 C.ar    1  UNL1        0.0396
     14 C           4.9739   -2.5470   33.1347 C.ar    1  UNL1        0.1026
     15 N           5.7640   -3.6480   32.4916 N.ar    1  UNL1       -0.2196
     16 C           7.2953   -5.7925   31.0469 C.3     1  UNL1        0.0772
     17 S           7.9657   -4.4998   31.4067 S.3     1  UNL1       -0.0748
     18 C           6.0160   -0.0491   36.3619 C.3     1  UNL1        0.1809
     19 O           7.4316    0.4402   36.2815 O.3     1  UNL1       -0.3760
     20 H           7.8389    0.1182   35.4622 H       1  UNL1        0.2110
     21 C           3.8346    2.3284   36.8508 C.3     1  UNL1        0.1333
     22 C           2.6990    2.0377   37.7866 C.ar    1  UNL1        0.0110
     23 C           2.6497    0.7320   38.5234 C.ar    1  UNL1       -0.0016
     24 C           1.5141    0.4412   39.4592 C.ar    1  UNL1       -0.0002
     25 C           0.4276    1.4562   39.6582 C.ar    1  UNL1        0.0008
     26 C           0.4769    2.7618   38.9214 C.ar    1  UNL1        0.0111
     27 C           1.6125    3.0525   37.9856 C.ar    1  UNL1        0.0555
     28 CL          1.6617    4.3582   37.2489 Cl      1  UNL1       -0.0825
     29 O           1.2905    1.4197   30.2680 O.3     1  UNL1       -0.4045
     30 C           1.7683    0.3960   29.2813 C.3     1  UNL1        0.5753
     31 F           2.2461   -0.6279   28.2945 F       1  UNL1       -0.1328
     32 F           0.7175   -0.5595   29.7637 F       1  UNL1       -0.1328
     33 F           2.8192    1.3514   28.7989 F       1  UNL1       -0.1328
@<TRIPOS>BOND
     1    16    17    1
     2    17    10    1
     3    10    11   ar
     4    11    12   ar
     5    12    13   ar
     6    13     1    1
     7     1     2   ar
     8     2    18    1
     9    18    19    1
    10     2     3   ar
    11     3    21    1
    12    21    22    1
    13    22    23   ar
    14    23    24   ar
    15    24    25   ar
    16    25    26   ar
    17    26    27   ar
    18    27    28    1
    19     3     4   ar
    20     4     5   ar
    21     5     6   ar
    22     6     7   ar
    23     7    29    1
    24    29    30    1
    25    30    31    1
    26    30    32    1
    27    30    33    1
    28     7     8   ar
    29     8     9   ar
    30    13    14   ar
    31    14    15   ar
    32    15    10   ar
    33     9     1   ar
    34    27    22   ar
    35     9     4   ar
    36    19    20    1
@<TRIPOS>MOLECULE
*****
 33 36 0 0 0
SMALL
GASTEIGER

@<TRIPOS>ATOM
      1 C         -15.5082   -6.0407   18.6759 C.ar    1  UNL1        0.0186
      2 C         -14.0406   -6.3311   18.7847 C.ar    1  UNL1        0.0671
      3 N         -13.3536   -5.0804   19.2471 N.ar    1  UNL1       -0.3243
      4 C         -14.3966   -4.0170   19.4241 C.ar    1  UNL1        0.0602
      5 C         -14.3059   -2.5850   19.8611 C.ar    1  UNL1        0.0203
      6 C         -15.5467   -1.7465   19.9451 C.ar    1  UNL1        0.0387
      7 C         -16.8783   -2.3399   19.5921 C.ar    1  UNL1        0.1469
      8 C         -16.9691   -3.7720   19.1550 C.ar    1  UNL1        0.0387
      9 C         -15.7282   -4.6105   19.0711 C.ar    1  UNL1        0.0201
     10 C         -18.6920   -8.9493   17.3898 C.ar    1  UNL1        0.1901
     11 N         -17.8703   -8.2327   16.3596 N.ar    1  UNL1       -0.2196
     12 C         -16.8091   -7.2632   16.7883 C.ar    1  UNL1        0.1026
     13 C         -16.5694   -7.0102   18.2472 C.ar    1  UNL1        0.0396
     14 C         -17.3911   -7.7268   19.2775 C.ar    1  UNL1        0.1026
     15 N         -18.4524   -8.6963   18.8488 N.ar    1  UNL1       -0.2196
     16 C         -20.4610  -10.7568   17.9842 C.3     1  UNL1        0.0772
     17 S         -19.7532   -9.9188   16.9611 S.3     1  UNL1       -0.0748
     18 C         -13.3766   -7.6421   18.4839 C.3     1  UNL1        0.1809
     19 O         -13.9379   -8.9138   19.0472 O.3     1  UNL1       -0.3760
     20 H         -13.8508   -8.9057   20.0133 H       1  UNL1        0.2110
     21 C         -11.8820   -4.9211   19.4899 C.3     1  UNL1        0.1333
     22 C         -10.9979   -4.3766   18.4075 C.ar    1  UNL1        0.0110
     23 C         -11.2031   -2.9786   17.9038 C.ar    1  UNL1       -0.0016
     24 C         -10.3190   -2.4340   16.8213 C.ar    1  UNL1       -0.0002
     25 C          -9.2295   -3.2874   16.2426 C.ar    1  UNL1        0.0008
     26 C          -9.0243   -4.6853   16.7463 C.ar    1  UNL1        0.0111
     27 C          -9.9084   -5.2299   17.8287 C.ar    1  UNL1        0.0555
     28 CL         -9.7031   -6.6278   18.3324 Cl      1  UNL1       -0.0825
     29 O         -18.1192   -1.5013   19.6761 O.3     1  UNL1       -0.4045
     30 C         -18.0377   -0.0182   19.4668 C.3     1  UNL1        0.5753
     31 F         -17.9562    1.4649   19.2575 F       1  UNL1       -0.1328
     32 F         -18.0607    0.1926   20.9517 F       1  UNL1       -0.1328
     33 F         -18.0147   -0.2291   17.9819 F       1  UNL1       -0.1328
@<TRIPOS>BOND
     1    16    17    1
     2    17    10    1
     3    10    11   ar
     4    11    12   ar
     5    12    13   ar
     6    13     1    1
     7     1     2   ar
     8     2    18    1
     9    18    19    1
    10     2     3   ar
    11     3    21    1
    12    21    22    1
    13    22    23   ar
    14    23    24   ar
    15    24    25   ar
    16    25    26   ar
    17    26    27   ar
    18    27    28    1
    19     3     4   ar
    20     4     5   ar
    21     5     6   ar
    22     6     7   ar
    23     7    29    1
    24    29    30    1
    25    30    31    1
    26    30    32    1
    27    30    33    1
    28     7     8   ar
    29     8     9   ar
    30    13    14   ar
    31    14    15   ar
    32    15    10   ar
    33     9     1   ar
    34    27    22   ar
    35     9     4   ar
    36    19    20    1
@<TRIPOS>MOLECULE
*****
 33 36 0 0 0
SMALL
GASTEIGER

@<TRIPOS>ATOM
      1 C           0.0887    2.0264   22.4274 C.ar    1  UNL1        0.0186
      2 C          -0.6800    3.1112   21.7330 C.ar    1  UNL1        0.0671
      3 N          -1.5099    3.8219   22.7608 N.ar    1  UNL1       -0.3243
      4 C          -1.2540    3.1763   24.0903 C.ar    1  UNL1        0.0602
      5 C          -1.7931    3.4555   25.4620 C.ar    1  UNL1        0.0203
      6 C          -1.3441    2.6250   26.6276 C.ar    1  UNL1        0.0387
      7 C          -0.3562    1.5153   26.4215 C.ar    1  UNL1        0.1469
      8 C           0.1828    1.2361   25.0499 C.ar    1  UNL1        0.0387
      9 C          -0.2661    2.0666   23.8843 C.ar    1  UNL1        0.0201
     10 C           2.9558   -0.8448   20.4816 C.ar    1  UNL1        0.1901
     11 N           1.4898   -0.9254   20.1748 N.ar    1  UNL1       -0.2196
     12 C           0.5341    0.0317   20.8234 C.ar    1  UNL1        0.1026
     13 C           1.0444    1.0693   21.7788 C.ar    1  UNL1        0.0396
     14 C           2.5105    1.1499   22.0857 C.ar    1  UNL1        0.1026
     15 N           3.4662    0.1928   21.4371 N.ar    1  UNL1       -0.2196
     16 C           3.4425   -3.1653   19.4193 C.3     1  UNL1        0.0772
     17 S           3.9115   -1.8019   19.8330 S.3     1  UNL1       -0.0748
     18 C          -0.6280    3.4295   20.2681 C.3     1  UNL1        0.1809
     19 O           0.6623    3.8675   19.6411 O.3     1  UNL1       -0.3760
     20 H           0.9220    4.7289   20.0037 H       1  UNL1        0.2110
     21 C          -2.4334    4.9757   22.5040 C.3     1  UNL1        0.1333
     22 C          -3.8668    4.9003   22.9394 C.ar    1  UNL1        0.0110
     23 C          -4.3523    5.7545   24.0728 C.ar    1  UNL1       -0.0016
     24 C          -5.7857    5.6792   24.5083 C.ar    1  UNL1       -0.0002
     25 C          -6.7337    4.7496   23.8102 C.ar    1  UNL1        0.0008
     26 C          -6.2482    3.8954   22.6768 C.ar    1  UNL1        0.0111
     27 C          -4.8148    3.9708   22.2414 C.ar    1  UNL1        0.0555
     28 CL         -4.3294    3.1165   21.1080 Cl      1  UNL1       -0.0825
     29 O           0.0927    0.6848   27.5873 O.3     1  UNL1       -0.4045
     30 C          -0.8373    0.4445   28.7393 C.3     1  UNL1        0.5753
     31 F          -1.7673    0.2042   29.8915 F       1  UNL1       -0.1328
     32 F          -0.2595    1.6305   29.4531 F       1  UNL1       -0.1328
     33 F          -1.4150   -0.7415   28.0255 F       1  UNL1       -0.1328
@<TRIPOS>BOND
     1    16    17    1
     2    17    10    1
     3    10    11   ar
     4    11    12   ar
     5    12    13   ar
     6    13     1    1
     7     1     2   ar
     8     2    18    1
     9    18    19    1
    10     2     3   ar
    11     3    21    1
    12    21    22    1
    13    22    23   ar
    14    23    24   ar
    15    24    25   ar
    16    25    26   ar
    17    26    27   ar
    18    27    28    1
    19     3     4   ar
    20     4     5   ar
    21     5     6   ar
    22     6     7   ar
    23     7    29    1
    24    29    30    1
    25    30    31    1
    26    30    32    1
    27    30    33    1
    28     7     8   ar
    29     8     9   ar
    30    13    14   ar
    31    14    15   ar
    32    15    10   ar
    33     9     1   ar
    34    27    22   ar
    35     9     4   ar
    36    19    20    1
@<TRIPOS>MOLECULE
*****
 33 36 0 0 0
SMALL
GASTEIGER

@<TRIPOS>ATOM
      1 C          -1.9897    3.6574   23.8828 C.ar    1  UNL1        0.0186
      2 C          -1.3519    3.7394   22.5277 C.ar    1  UNL1        0.0671
      3 N          -0.0273    3.0388   22.5957 N.ar    1  UNL1       -0.3243
      4 C           0.1535    2.5238   23.9929 C.ar    1  UNL1        0.0602
      5 C           1.2659    1.7562   24.6435 C.ar    1  UNL1        0.0203
      6 C           1.1654    1.3708   26.0896 C.ar    1  UNL1        0.0387
      7 C          -0.0474    1.7531   26.8851 C.ar    1  UNL1        0.1469
      8 C          -1.1598    2.5208   26.2345 C.ar    1  UNL1        0.0387
      9 C          -1.0593    2.9061   24.7884 C.ar    1  UNL1        0.0201
     10 C          -5.9918    5.3652   25.0304 C.ar    1  UNL1        0.1901
     11 N          -4.7443    6.1709   25.2409 N.ar    1  UNL1       -0.2196
     12 C          -3.4102    5.6017   24.8584 C.ar    1  UNL1        0.1026
     13 C          -3.3237    4.2267   24.2654 C.ar    1  UNL1        0.0396
     14 C          -4.5713    3.4209   24.0548 C.ar    1  UNL1        0.1026
     15 N          -5.9053    3.9901   24.4373 N.ar    1  UNL1       -0.2196
     16 C          -8.5254    5.6801   24.5491 C.3     1  UNL1        0.0772
     17 S          -7.3258    5.9345   25.4129 S.3     1  UNL1       -0.0748
     18 C          -1.9361    4.4051   21.3171 C.3     1  UNL1        0.1809
     19 O          -2.3615    3.5797   20.1392 O.3     1  UNL1       -0.3760
     20 H          -1.5824    3.1653   19.7364 H       1  UNL1        0.2110
     21 C           0.9457    2.8810   21.4650 C.3     1  UNL1        0.1333
     22 C           1.4718    1.5213   21.1126 C.ar    1  UNL1        0.0110
     23 C           0.5670    0.5089   20.4750 C.ar    1  UNL1       -0.0016
     24 C           1.0931   -0.8508   20.1226 C.ar    1  UNL1       -0.0002
     25 C           2.5242   -1.1983   20.4078 C.ar    1  UNL1        0.0008
     26 C           3.4290   -0.1860   21.0453 C.ar    1  UNL1        0.0111
     27 C           2.9029    1.1737   21.3978 C.ar    1  UNL1        0.0555
     28 CL          3.8078    2.1859   22.0353 Cl      1  UNL1       -0.0825
     29 O          -0.1479    1.3677   28.3313 O.3     1  UNL1       -0.4045
     30 C          -0.7823    0.0646   28.7179 C.3     1  UNL1        0.5753
     31 F          -1.4167   -1.2385   29.1045 F       1  UNL1       -0.1328
     32 F           0.5609   -0.6016   28.6764 F       1  UNL1       -0.1328
     33 F          -2.1255    0.7309   28.7594 F       1  UNL1       -0.1328
@<TRIPOS>BOND
     1    16    17    1
     2    17    10    1
     3    10    11   ar
     4    11    12   ar
     5    12    13   ar
     6    13     1    1
     7     1     2   ar
     8     2    18    1
     9    18    19    1
    10     2     3   ar
    11     3    21    1
    12    21    22    1
    13    22    23   ar
    14    23    24   ar
    15    24    25   ar
    16    25    26   ar
    17    26    27   ar
    18    27    28    1
    19     3     4   ar
    20     4     5   ar
    21     5     6   ar
    22     6     7   ar
    23     7    29    1
    24    29    30    1
    25    30    31    1
    26    30    32    1
    27    30    33    1
    28     7     8   ar
    29     8     9   ar
    30    13    14   ar
    31    14    15   ar
    32    15    10   ar
    33     9     1   ar
    34    27    22   ar
    35     9     4   ar
    36    19    20    1
@<TRIPOS>MOLECULE
*****
 33 36 0 0 0
SMALL
GASTEIGER

@<TRIPOS>ATOM
      1 C           5.0181   -0.3646   32.1141 C.ar    1  UNL1        0.0186
      2 C           6.3196   -0.8293   31.5308 C.ar    1  UNL1        0.0671
      3 N           6.0961   -1.1276   30.0779 N.ar    1  UNL1       -0.3243
      4 C           4.6565   -0.8473   29.7632 C.ar    1  UNL1        0.0602
      5 C           3.8662   -0.9605   28.4934 C.ar    1  UNL1        0.0203
      6 C           2.4097   -0.6022   28.4820 C.ar    1  UNL1        0.0387
      7 C           1.7435   -0.1307   29.7405 C.ar    1  UNL1        0.1469
      8 C           2.5338   -0.0175   31.0103 C.ar    1  UNL1        0.0387
      9 C           3.9903   -0.3758   31.0217 C.ar    1  UNL1        0.0201
     10 C           4.3198    0.8495   36.3907 C.ar    1  UNL1        0.1901
     11 N           4.1940    1.8639   35.2929 N.ar    1  UNL1       -0.2196
     12 C           4.4268    1.4592   33.8674 C.ar    1  UNL1        0.1026
     13 C           4.7854    0.0401   33.5396 C.ar    1  UNL1        0.0396
     14 C           4.9112   -0.9744   34.6374 C.ar    1  UNL1        0.1026
     15 N           4.6784   -0.5696   36.0629 N.ar    1  UNL1       -0.2196
     16 C           2.7189    1.1276   38.4179 C.3     1  UNL1        0.0772
     17 S           4.0870    1.2543   37.8161 S.3     1  UNL1       -0.0748
     18 C           7.6168   -0.9708   32.2706 C.3     1  UNL1        0.1809
     19 O           8.1131   -2.3314   32.6609 O.3     1  UNL1       -0.3760
     20 H           7.5105   -2.7202   33.3141 H       1  UNL1        0.2110
     21 C           7.1305   -1.6198   29.1096 C.3     1  UNL1        0.1333
     22 C           6.9736   -2.9642   28.4634 C.ar    1  UNL1        0.0110
     23 C           6.8585   -4.1956   29.3123 C.ar    1  UNL1       -0.0016
     24 C           6.7015   -5.5401   28.6661 C.ar    1  UNL1       -0.0002
     25 C           6.6596   -5.6533   27.1709 C.ar    1  UNL1        0.0008
     26 C           6.7746   -4.4221   26.3221 C.ar    1  UNL1        0.0111
     27 C           6.9316   -3.0775   26.9682 C.ar    1  UNL1        0.0555
     28 CL          7.0467   -1.8463   26.1193 Cl      1  UNL1       -0.0825
     29 O           0.2869    0.2276   29.7291 O.3     1  UNL1       -0.4045
     30 C          -0.3720    0.6482   28.4489 C.3     1  UNL1        0.5753
     31 F          -1.0309    1.0689   27.1686 F       1  UNL1       -0.1328
     32 F          -0.9996   -0.7086   28.3261 F       1  UNL1       -0.1328
     33 F           0.2557    2.0050   28.5717 F       1  UNL1       -0.1328
@<TRIPOS>BOND
     1    16    17    1
     2    17    10    1
     3    10    11   ar
     4    11    12   ar
     5    12    13   ar
     6    13     1    1
     7     1     2   ar
     8     2    18    1
     9    18    19    1
    10     2     3   ar
    11     3    21    1
    12    21    22    1
    13    22    23   ar
    14    23    24   ar
    15    24    25   ar
    16    25    26   ar
    17    26    27   ar
    18    27    28    1
    19     3     4   ar
    20     4     5   ar
    21     5     6   ar
    22     6     7   ar
    23     7    29    1
    24    29    30    1
    25    30    31    1
    26    30    32    1
    27    30    33    1
    28     7     8   ar
    29     8     9   ar
    30    13    14   ar
    31    14    15   ar
    32    15    10   ar
    33     9     1   ar
    34    27    22   ar
    35     9     4   ar
    36    19    20    1
@<TRIPOS>MOLECULE
*****
 33 36 0 0 0
SMALL
GASTEIGER

@<TRIPOS>ATOM
      1 C           1.8322    0.5978   23.3372 C.ar    1  UNL1        0.0186
      2 C           1.5463    0.3784   21.8811 C.ar    1  UNL1        0.0671
      3 N           2.4230   -0.7397   21.4001 N.ar    1  UNL1       -0.3243
      4 C           3.2506   -1.2113   22.5588 C.ar    1  UNL1        0.0602
      5 C           4.2895   -2.2865   22.6784 C.ar    1  UNL1        0.0203
      6 C           4.9633   -2.5352   23.9952 C.ar    1  UNL1        0.0387
      7 C           4.5982   -1.7086   25.1925 C.ar    1  UNL1        0.1469
      8 C           3.5593   -0.6333   25.0729 C.ar    1  UNL1        0.0387
      9 C           2.8855   -0.3846   23.7560 C.ar    1  UNL1        0.0201
     10 C          -0.1263    3.6649   25.9844 C.ar    1  UNL1        0.1901
     11 N           0.9789    4.0719   25.0555 N.ar    1  UNL1       -0.2196
     12 C           1.6317    3.0495   24.1732 C.ar    1  UNL1        0.1026
     13 C           1.1794    1.6202   24.2196 C.ar    1  UNL1        0.0396
     14 C           0.0741    1.2131   25.1485 C.ar    1  UNL1        0.1026
     15 N          -0.5788    2.2355   26.0308 N.ar    1  UNL1       -0.2196
     16 C          -0.1566    5.0497   28.1824 C.3     1  UNL1        0.0772
     17 S          -0.7791    4.6873   26.8668 S.3     1  UNL1       -0.0748
     18 C           0.5574    1.1428   21.0518 C.3     1  UNL1        0.1809
     19 O          -0.5836    0.4248   20.3941 O.3     1  UNL1       -0.3760
     20 H          -0.2388   -0.1802   19.7189 H       1  UNL1        0.2110
     21 C           2.4646   -1.2897   20.0052 C.3     1  UNL1        0.1333
     22 C           3.7838   -1.5360   19.3352 C.ar    1  UNL1        0.0110
     23 C           4.7157   -0.3909   19.0698 C.ar    1  UNL1       -0.0016
     24 C           6.0349   -0.6371   18.3998 C.ar    1  UNL1       -0.0002
     25 C           6.4223   -2.0286   17.9951 C.ar    1  UNL1        0.0008
     26 C           5.4906   -3.1737   18.2605 C.ar    1  UNL1        0.0111
     27 C           4.1713   -2.9274   18.9305 C.ar    1  UNL1        0.0555
     28 CL          3.2396   -4.0726   19.1958 Cl      1  UNL1       -0.0825
     29 O           5.2721   -1.9573   26.5094 O.3     1  UNL1       -0.4045
     30 C           5.1934   -0.9286   27.5982 C.3     1  UNL1        0.5753
     31 F           5.1148    0.1001   28.6871 F       1  UNL1       -0.1328
     32 F           3.9941   -1.6251   28.1696 F       1  UNL1       -0.1328
     33 F           6.3927   -0.2321   27.0268 F       1  UNL1       -0.1328
@<TRIPOS>BOND
     1    16    17    1
     2    17    10    1
     3    10    11   ar
     4    11    12   ar
     5    12    13   ar
     6    13     1    1
     7     1     2   ar
     8     2    18    1
     9    18    19    1
    10     2     3   ar
    11     3    21    1
    12    21    22    1
    13    22    23   ar
    14    23    24   ar
    15    24    25   ar
    16    25    26   ar
    17    26    27   ar
    18    27    28    1
    19     3     4   ar
    20     4     5   ar
    21     5     6   ar
    22     6     7   ar
    23     7    29    1
    24    29    30    1
    25    30    31    1
    26    30    32    1
    27    30    33    1
    28     7     8   ar
    29     8     9   ar
    30    13    14   ar
    31    14    15   ar
    32    15    10   ar
    33     9     1   ar
    34    27    22   ar
    35     9     4   ar
    36    19    20    1
