@<TRIPOS>MOLECULE
*****
 32 36 0 0 0
SMALL
GASTEIGER

@<TRIPOS>ATOM
      1 C           0.5488    1.1795   21.1018 C.ar    1  UNL1        0.1646
      2 N           1.0320    0.5851   22.3914 N.ar    1  UNL1       -0.2224
      3 C           0.6860    1.5361   23.4986 C.ar    1  UNL1        0.1074
      4 C          -0.0111    2.7183   22.8932 C.ar    1  UNL1        0.0588
      5 S          -0.0959    2.4980   21.4119 S.2     1  UNL1       -0.0508
      6 C           0.9846    1.3394   24.9554 C.ar    1  UNL1        0.1026
      7 C           2.4068    1.2555   25.4248 C.ar    1  UNL1        0.0224
      8 C           2.7053    1.0589   26.8815 C.ar    1  UNL1        0.0239
      9 C           1.5817    0.9462   27.8689 C.ar    1  UNL1        0.1189
     10 C           0.1596    1.0301   27.3995 C.ar    1  UNL1        0.2416
     11 N          -0.1390    1.2268   25.9427 N.ar    1  UNL1       -0.2089
     12 N           1.8804    0.7495   29.3257 N.ar    1  UNL1       -0.2826
     13 C           2.2983   -0.5369   29.9742 C.ar    1  UNL1        0.1826
     14 N           2.4897   -0.2768   31.4390 N.ar    1  UNL1       -0.2280
     15 C           2.1901    1.1704   31.6958 C.ar    1  UNL1        0.0786
     16 C           2.2555    1.8620   33.0253 C.3     1  UNL1        0.0538
     17 C           1.8135    1.8047   30.3897 C.ar    1  UNL1        0.0963
     18 O          -0.9640    0.9174   28.3868 O.3     1  UNL1       -0.4551
     19 C          -1.4063   -0.4324   28.8689 C.3     1  UNL1        0.2543
     20 N           0.6861    0.5637   19.7409 N.pl3   1  UNL1       -0.2784
     21 H          -0.0721    0.5825   19.1133 H       1  UNL1        0.1555
     22 N           3.1725    0.6223   18.7614 N.ar    1  UNL1       -0.2380
     23 N           4.2362   -0.4040   18.5054 N.ar    1  UNL1       -0.1726
     24 C           3.6997   -1.7413   18.9222 C.ar    1  UNL1        0.0807
     25 C           2.3046   -1.5416   19.4357 C.ar    1  UNL1        0.0505
     26 C           1.9788   -0.0808   19.3364 C.ar    1  UNL1        0.1317
     27 C           4.4302   -3.0488   18.8399 C.3     1  UNL1        0.0372
     28 C           5.7891   -2.5627   18.4308 C.3     1  UNL1        0.0060
     29 C           4.6888   -4.5251   18.8996 C.3     1  UNL1        0.0060
     30 C           3.3251   -3.9890   19.2203 C.3     1  UNL1        0.0060
     31 C           3.4707    3.0538   19.6269 C.3     1  UNL1        0.0285
     32 C           3.2831    2.0934   18.4900 C.3     1  UNL1        0.1289
@<TRIPOS>BOND
     1    31    32    1
     2    32    22    1
     3    22    23   ar
     4    23    24   ar
     5    24    27    1
     6    27    28    1
     7    27    29    1
     8    29    30    1
     9    24    25   ar
    10    25    26   ar
    11    26    20    1
    12    20     1    1
    13     1     2   ar
    14     2     3   ar
    15     3     6    1
    16     6     7   ar
    17     7     8   ar
    18     8     9   ar
    19     9    12    1
    20    12    13   ar
    21    13    14   ar
    22    14    15   ar
    23    15    16    1
    24    15    17   ar
    25     9    10   ar
    26    10    18    1
    27    18    19    1
    28    10    11   ar
    29     3     4   ar
    30     4     5   ar
    31    26    22   ar
    32     5     1   ar
    33    30    27    1
    34    11     6   ar
    35    17    12   ar
    36    20    21    1
@<TRIPOS>MOLECULE
*****
 32 36 0 0 0
SMALL
GASTEIGER

@<TRIPOS>ATOM
      1 C          -1.5781    4.0661   19.2878 C.ar    1  UNL1        0.1646
      2 N          -0.9372    2.8360   19.8587 N.ar    1  UNL1       -0.2224
      3 C           0.1717    2.4210   18.9378 C.ar    1  UNL1        0.1074
      4 C           0.2162    3.3947   17.7977 C.ar    1  UNL1        0.0588
      5 S          -0.8652    4.4115   18.0139 S.2     1  UNL1       -0.0508
      6 C           1.0772    1.2397   19.1243 C.ar    1  UNL1        0.1026
      7 C           0.8534    0.2965   20.2689 C.ar    1  UNL1        0.0224
      8 C           1.7588   -0.8847   20.4554 C.ar    1  UNL1        0.0239
      9 C           2.8880   -1.1228   19.4971 C.ar    1  UNL1        0.1189
     10 C           3.1118   -0.1796   18.3525 C.ar    1  UNL1        0.2416
     11 N           2.2064    1.0016   18.1661 N.ar    1  UNL1       -0.2089
     12 N           3.7935   -2.3041   19.6836 N.ar    1  UNL1       -0.2826
     13 C           3.4540   -3.7324   19.3759 C.ar    1  UNL1        0.1826
     14 N           4.6481   -4.5756   19.7126 N.ar    1  UNL1       -0.2280
     15 C           5.7255   -3.6683   20.2284 C.ar    1  UNL1        0.0786
     16 C           7.0914   -4.0907   20.6824 C.3     1  UNL1        0.0538
     17 C           5.1974   -2.2645   20.2104 C.ar    1  UNL1        0.0963
     18 O           4.2410   -0.4176   17.3942 O.3     1  UNL1       -0.4551
     19 C           5.4415    0.4816   17.4114 C.3     1  UNL1        0.2543
     20 N          -2.7296    4.8188   19.8856 N.pl3   1  UNL1       -0.2784
     21 H          -3.0568    5.6414   19.4548 H       1  UNL1        0.1555
     22 N          -4.6764    3.5634   21.2193 N.ar    1  UNL1       -0.2380
     23 N          -4.9499    3.2633   22.6633 N.ar    1  UNL1       -0.1726
     24 C          -3.8251    3.8327   23.4762 C.ar    1  UNL1        0.0807
     25 C          -2.8566    4.4846   22.5346 C.ar    1  UNL1        0.0505
     26 C          -3.3826    4.3183   21.1398 C.ar    1  UNL1        0.1317
     27 C          -3.6924    3.7623   24.9686 C.3     1  UNL1        0.0372
     28 C          -2.2495    3.3684   25.0835 C.3     1  UNL1        0.0060
     29 C          -4.0606    3.8288   26.4211 C.3     1  UNL1        0.0060
     30 C          -5.0890    4.1319   25.3721 C.3     1  UNL1        0.0060
     31 C          -6.5579    4.1448   19.5246 C.3     1  UNL1        0.0285
     32 C          -5.5443    3.1766   20.0586 C.3     1  UNL1        0.1289
@<TRIPOS>BOND
     1    31    32    1
     2    32    22    1
     3    22    23   ar
     4    23    24   ar
     5    24    27    1
     6    27    28    1
     7    27    29    1
     8    29    30    1
     9    24    25   ar
    10    25    26   ar
    11    26    20    1
    12    20     1    1
    13     1     2   ar
    14     2     3   ar
    15     3     6    1
    16     6     7   ar
    17     7     8   ar
    18     8     9   ar
    19     9    12    1
    20    12    13   ar
    21    13    14   ar
    22    14    15   ar
    23    15    16    1
    24    15    17   ar
    25     9    10   ar
    26    10    18    1
    27    18    19    1
    28    10    11   ar
    29     3     4   ar
    30     4     5   ar
    31    26    22   ar
    32     5     1   ar
    33    30    27    1
    34    11     6   ar
    35    17    12   ar
    36    20    21    1
@<TRIPOS>MOLECULE
*****
 32 36 0 0 0
SMALL
GASTEIGER

@<TRIPOS>ATOM
      1 C           0.5674    1.4208   19.1637 C.ar    1  UNL1        0.1646
      2 N          -0.2378    1.4287   20.4292 N.ar    1  UNL1       -0.2224
      3 C          -0.7174    2.8303   20.6648 C.ar    1  UNL1        0.1074
      4 C          -0.2085    3.6887   19.5448 C.ar    1  UNL1        0.0588
      5 S           0.5856    2.8176   18.6171 S.2     1  UNL1       -0.0508
      6 C          -1.5582    3.2925   21.8178 C.ar    1  UNL1        0.1026
      7 C          -0.9141    3.9648   22.9938 C.ar    1  UNL1        0.0224
      8 C          -1.7549    4.4269   24.1468 C.ar    1  UNL1        0.0239
      9 C          -3.2399    4.2167   24.1237 C.ar    1  UNL1        0.1189
     10 C          -3.8841    3.5444   22.9477 C.ar    1  UNL1        0.2416
     11 N          -3.0433    3.0823   21.7948 N.ar    1  UNL1       -0.2089
     12 N          -4.0808    4.6789   25.2768 N.ar    1  UNL1       -0.2826
     13 C          -4.0874    4.0884   26.6557 C.ar    1  UNL1        0.1826
     14 N          -5.0733    4.8571   27.4845 N.ar    1  UNL1       -0.2280
     15 C          -5.6760    5.9228   26.6178 C.ar    1  UNL1        0.0786
     16 C          -6.7105    6.9231   27.0412 C.3     1  UNL1        0.0538
     17 C          -5.0626    5.8126   25.2534 C.ar    1  UNL1        0.0963
     18 O          -5.3691    3.3343   22.9247 O.3     1  UNL1       -0.4551
     19 C          -6.2382    4.2147   22.0765 C.3     1  UNL1        0.2543
     20 N           1.2370    0.2260   18.5522 N.pl3   1  UNL1       -0.2784
     21 H           0.9487   -0.1019   17.6698 H       1  UNL1        0.1555
     22 N           3.6663   -0.8788   18.7032 N.ar    1  UNL1       -0.2380
     23 N           4.4655   -1.5397   19.7870 N.ar    1  UNL1       -0.1726
     24 C           3.6388   -1.5387   21.0386 C.ar    1  UNL1        0.0807
     25 C           2.3289   -0.8771   20.7284 C.ar    1  UNL1        0.0505
     26 C           2.3458   -0.4693   19.2851 C.ar    1  UNL1        0.1317
     27 C           4.0500   -2.1005   22.3672 C.3     1  UNL1        0.0372
     28 C           4.5630   -3.4422   21.9352 C.3     1  UNL1        0.0060
     29 C           4.2830   -2.1964   23.8459 C.3     1  UNL1        0.0060
     30 C           3.6798   -0.9540   23.2608 C.3     1  UNL1        0.0060
     31 C           5.3851    0.0722   17.0027 C.3     1  UNL1        0.0285
     32 C           4.1098   -0.6649   17.2863 C.3     1  UNL1        0.1289
@<TRIPOS>BOND
     1    31    32    1
     2    32    22    1
     3    22    23   ar
     4    23    24   ar
     5    24    27    1
     6    27    28    1
     7    27    29    1
     8    29    30    1
     9    24    25   ar
    10    25    26   ar
    11    26    20    1
    12    20     1    1
    13     1     2   ar
    14     2     3   ar
    15     3     6    1
    16     6     7   ar
    17     7     8   ar
    18     8     9   ar
    19     9    12    1
    20    12    13   ar
    21    13    14   ar
    22    14    15   ar
    23    15    16    1
    24    15    17   ar
    25     9    10   ar
    26    10    18    1
    27    18    19    1
    28    10    11   ar
    29     3     4   ar
    30     4     5   ar
    31    26    22   ar
    32     5     1   ar
    33    30    27    1
    34    11     6   ar
    35    17    12   ar
    36    20    21    1
@<TRIPOS>MOLECULE
*****
 32 36 0 0 0
SMALL
GASTEIGER

@<TRIPOS>ATOM
      1 C           4.6146   -3.1472   20.1985 C.ar    1  UNL1        0.1646
      2 N           4.5604   -3.4229   21.6720 N.ar    1  UNL1       -0.2224
      3 C           5.9656   -3.6179   22.1591 C.ar    1  UNL1        0.1074
      4 C           6.8883   -3.4628   20.9867 C.ar    1  UNL1        0.0588
      5 S           6.0534   -3.1718   19.7750 S.2     1  UNL1       -0.0508
      6 C           6.3760   -3.9158   23.5708 C.ar    1  UNL1        0.1026
      7 C           6.0930   -2.9235   24.6594 C.ar    1  UNL1        0.0224
      8 C           6.5035   -3.2214   26.0710 C.ar    1  UNL1        0.0239
      9 C           7.1970   -4.5117   26.3940 C.ar    1  UNL1        0.1189
     10 C           7.4800   -5.5040   25.3054 C.ar    1  UNL1        0.2416
     11 N           7.0695   -5.2061   23.8938 N.ar    1  UNL1       -0.2089
     12 N           7.6074   -4.8096   27.8057 N.ar    1  UNL1       -0.2826
     13 C           9.0058   -4.7606   28.3463 C.ar    1  UNL1        0.1826
     14 N           8.9543   -5.1295   29.7993 N.ar    1  UNL1       -0.2280
     15 C           7.5240   -5.4065   30.1567 C.ar    1  UNL1        0.0786
     16 C           7.0154   -5.8103   31.5089 C.3     1  UNL1        0.0538
     17 C           6.6916   -5.2088   28.9246 C.ar    1  UNL1        0.0963
     18 O           8.1735   -6.7943   25.6284 O.3     1  UNL1       -0.4551
     19 C           7.3883   -7.9535   26.1664 C.3     1  UNL1        0.2543
     20 N           3.4369   -2.8917   19.3054 N.pl3   1  UNL1       -0.2784
     21 H           3.0322   -3.6334   18.8000 H       1  UNL1        0.1555
     22 N           3.2448   -0.4950   18.1376 N.ar    1  UNL1       -0.2380
     23 N           2.4440    0.7477   18.3918 N.ar    1  UNL1       -0.1726
     24 C           1.5800    0.5045   19.5936 C.ar    1  UNL1        0.0807
     25 C           1.8467   -0.8884   20.0821 C.ar    1  UNL1        0.0505
     26 C           2.8756   -1.5061   19.1822 C.ar    1  UNL1        0.1317
     27 C           0.6181    1.4825   20.2003 C.3     1  UNL1        0.0372
     28 C           0.3742    2.3749   19.0195 C.3     1  UNL1        0.0060
     29 C          -0.2592    2.1507   21.2172 C.3     1  UNL1        0.0060
     30 C           0.5277    0.9299   21.5919 C.3     1  UNL1        0.0060
     31 C           5.6346   -0.1584   17.1755 C.3     1  UNL1        0.0285
     32 C           4.2400   -0.6919   17.0326 C.3     1  UNL1        0.1289
@<TRIPOS>BOND
     1    31    32    1
     2    32    22    1
     3    22    23   ar
     4    23    24   ar
     5    24    27    1
     6    27    28    1
     7    27    29    1
     8    29    30    1
     9    24    25   ar
    10    25    26   ar
    11    26    20    1
    12    20     1    1
    13     1     2   ar
    14     2     3   ar
    15     3     6    1
    16     6     7   ar
    17     7     8   ar
    18     8     9   ar
    19     9    12    1
    20    12    13   ar
    21    13    14   ar
    22    14    15   ar
    23    15    16    1
    24    15    17   ar
    25     9    10   ar
    26    10    18    1
    27    18    19    1
    28    10    11   ar
    29     3     4   ar
    30     4     5   ar
    31    26    22   ar
    32     5     1   ar
    33    30    27    1
    34    11     6   ar
    35    17    12   ar
    36    20    21    1
@<TRIPOS>MOLECULE
*****
 32 36 0 0 0
SMALL
GASTEIGER

@<TRIPOS>ATOM
      1 C           4.6953    0.7633   33.1882 C.ar    1  UNL1        0.1646
      2 N           5.7479   -0.0631   32.5107 N.ar    1  UNL1       -0.2224
      3 C           5.0756   -0.9061   31.4680 C.ar    1  UNL1        0.1074
      4 C           3.6074   -0.6007   31.5010 C.ar    1  UNL1        0.0588
      5 S           3.3723    0.4311   32.5641 S.2     1  UNL1       -0.0508
      6 C           5.7526   -1.8830   30.5529 C.ar    1  UNL1        0.1026
      7 C           6.1063   -1.4779   29.1527 C.ar    1  UNL1        0.0224
      8 C           6.7833   -2.4548   28.2377 C.ar    1  UNL1        0.0239
      9 C           7.1065   -3.8368   28.7229 C.ar    1  UNL1        0.1189
     10 C           6.7528   -4.2420   30.1231 C.ar    1  UNL1        0.2416
     11 N           6.0759   -3.2651   31.0381 N.ar    1  UNL1       -0.2089
     12 N           7.7835   -4.8138   27.8078 N.ar    1  UNL1       -0.2826
     13 C           9.2643   -4.9818   27.6375 C.ar    1  UNL1        0.1826
     14 N           9.4946   -6.0660   26.6268 N.ar    1  UNL1       -0.2280
     15 C           8.1561   -6.5681   26.1725 C.ar    1  UNL1        0.0786
     16 C           7.9170   -7.6535   25.1651 C.3     1  UNL1        0.0538
     17 C           7.0986   -5.7941   26.9024 C.ar    1  UNL1        0.0963
     18 O           7.0761   -5.6240   30.6083 O.3     1  UNL1       -0.4551
     19 C           8.4344   -5.9232   31.1700 C.3     1  UNL1        0.2543
     20 N           4.9252    1.7490   34.2953 N.pl3   1  UNL1       -0.2784
     21 H           5.4617    2.5578   34.1307 H       1  UNL1        0.1555
     22 N           4.8896    0.5784   36.6980 N.ar    1  UNL1       -0.2380
     23 N           3.9880    0.6411   37.8953 N.ar    1  UNL1       -0.1726
     24 C           2.8788    1.6038   37.5902 C.ar    1  UNL1        0.0807
     25 C           3.0949    2.1359   36.2046 C.ar    1  UNL1        0.0505
     26 C           4.3376    1.5022   35.6532 C.ar    1  UNL1        0.1317
     27 C           1.7515    1.9699   38.5094 C.3     1  UNL1        0.0372
     28 C           1.5905    3.4197   38.1596 C.3     1  UNL1        0.0060
     29 C           0.6801    1.8326   39.5502 C.3     1  UNL1        0.0060
     30 C           1.5210    0.6474   39.1786 C.3     1  UNL1        0.0060
     31 C           7.4762    0.3922   36.5400 C.3     1  UNL1        0.0285
     32 C           6.1261   -0.2609   36.5685 C.3     1  UNL1        0.1289
@<TRIPOS>BOND
     1    31    32    1
     2    32    22    1
     3    22    23   ar
     4    23    24   ar
     5    24    27    1
     6    27    28    1
     7    27    29    1
     8    29    30    1
     9    24    25   ar
    10    25    26   ar
    11    26    20    1
    12    20     1    1
    13     1     2   ar
    14     2     3   ar
    15     3     6    1
    16     6     7   ar
    17     7     8   ar
    18     8     9   ar
    19     9    12    1
    20    12    13   ar
    21    13    14   ar
    22    14    15   ar
    23    15    16    1
    24    15    17   ar
    25     9    10   ar
    26    10    18    1
    27    18    19    1
    28    10    11   ar
    29     3     4   ar
    30     4     5   ar
    31    26    22   ar
    32     5     1   ar
    33    30    27    1
    34    11     6   ar
    35    17    12   ar
    36    20    21    1
@<TRIPOS>MOLECULE
*****
 32 36 0 0 0
SMALL
GASTEIGER

@<TRIPOS>ATOM
      1 C           3.7948   -0.8030   28.8826 C.ar    1  UNL1        0.1646
      2 N           3.3041   -1.2124   27.5256 N.ar    1  UNL1       -0.2224
      3 C           4.3823   -0.9026   26.5299 C.ar    1  UNL1        0.1074
      4 C           5.5394   -0.3017   27.2715 C.ar    1  UNL1        0.0588
      5 S           5.1764   -0.2401   28.7256 S.2     1  UNL1       -0.0508
      6 C           4.3152   -1.1502   25.0519 C.ar    1  UNL1        0.1026
      7 C           3.1269   -0.6811   24.2660 C.ar    1  UNL1        0.0224
      8 C           3.0598   -0.9287   22.7882 C.ar    1  UNL1        0.0239
      9 C           4.1811   -1.6454   22.0962 C.ar    1  UNL1        0.1189
     10 C           5.3695   -2.1146   22.8820 C.ar    1  UNL1        0.2416
     11 N           5.4366   -1.8670   24.3599 N.ar    1  UNL1       -0.2089
     12 N           4.1141   -1.8930   20.6182 N.ar    1  UNL1       -0.2826
     13 C           4.1193   -3.2349   19.9479 C.ar    1  UNL1        0.1826
     14 N           4.0385   -3.0135   18.4666 N.ar    1  UNL1       -0.2280
     15 C           3.9832   -1.5347   18.2213 C.ar    1  UNL1        0.0786
     16 C           3.8964   -0.8658   16.8815 C.3     1  UNL1        0.0538
     17 C           4.0299   -0.8422   19.5511 C.ar    1  UNL1        0.0963
     18 O           6.4908   -2.8313   22.1900 O.3     1  UNL1       -0.4551
     19 C           6.9664   -4.1565   22.7074 C.3     1  UNL1        0.2543
     20 N           3.0371   -0.9335   30.1706 N.pl3   1  UNL1       -0.2784
     21 H           3.1178   -1.7543   30.7081 H       1  UNL1        0.1555
     22 N           0.8306    0.5706   30.0524 N.ar    1  UNL1       -0.2380
     23 N           0.3017    1.7407   30.8278 N.ar    1  UNL1       -0.1726
     24 C           1.3008    2.0797   31.8941 C.ar    1  UNL1        0.0807
     25 C           2.4470    1.1193   31.7777 C.ar    1  UNL1        0.0505
     26 C           2.1565    0.1866   30.6395 C.ar    1  UNL1        0.1317
     27 C           1.1756    3.1852   32.9002 C.3     1  UNL1        0.0372
     28 C           2.0805    2.6621   33.9761 C.3     1  UNL1        0.0060
     29 C           0.7360    4.4723   33.5326 C.3     1  UNL1        0.0060
     30 C           0.2272    4.0922   32.1738 C.3     1  UNL1        0.0060
     31 C          -1.3261   -0.3466   28.9312 C.3     1  UNL1        0.0285
     32 C           0.1526   -0.0981   28.8934 C.3     1  UNL1        0.1289
@<TRIPOS>BOND
     1    31    32    1
     2    32    22    1
     3    22    23   ar
     4    23    24   ar
     5    24    27    1
     6    27    28    1
     7    27    29    1
     8    29    30    1
     9    24    25   ar
    10    25    26   ar
    11    26    20    1
    12    20     1    1
    13     1     2   ar
    14     2     3   ar
    15     3     6    1
    16     6     7   ar
    17     7     8   ar
    18     8     9   ar
    19     9    12    1
    20    12    13   ar
    21    13    14   ar
    22    14    15   ar
    23    15    16    1
    24    15    17   ar
    25     9    10   ar
    26    10    18    1
    27    18    19    1
    28    10    11   ar
    29     3     4   ar
    30     4     5   ar
    31    26    22   ar
    32     5     1   ar
    33    30    27    1
    34    11     6   ar
    35    17    12   ar
    36    20    21    1
@<TRIPOS>MOLECULE
*****
 32 36 0 0 0
SMALL
GASTEIGER

@<TRIPOS>ATOM
      1 C          -1.2411    3.9700   19.7225 C.ar    1  UNL1        0.1646
      2 N          -0.4340    2.8679   20.3421 N.ar    1  UNL1       -0.2224
      3 C           0.3998    2.2415   19.2640 C.ar    1  UNL1        0.1074
      4 C           0.1079    2.9564   17.9780 C.ar    1  UNL1        0.0588
      5 S          -0.9062    4.0247   18.2613 S.2     1  UNL1       -0.0508
      6 C           1.3573    1.1004   19.4408 C.ar    1  UNL1        0.1026
      7 C           2.0851    0.5414   18.2544 C.ar    1  UNL1        0.0224
      8 C           3.0426   -0.5996   18.4312 C.ar    1  UNL1        0.0239
      9 C           3.2722   -1.1816   19.7945 C.ar    1  UNL1        0.1189
     10 C           2.5444   -0.6226   20.9809 C.ar    1  UNL1        0.2416
     11 N           1.5869    0.5184   20.8041 N.ar    1  UNL1       -0.2089
     12 N           4.2298   -2.3227   19.9713 N.ar    1  UNL1       -0.2826
     13 C           3.9337   -3.7703   19.7126 C.ar    1  UNL1        0.1826
     14 N           5.1723   -4.5587   20.0192 N.ar    1  UNL1       -0.2280
     15 C           6.2340   -3.5984   20.4674 C.ar    1  UNL1        0.0786
     16 C           7.6326   -3.9571   20.8738 C.3     1  UNL1        0.0538
     17 C           5.6514   -2.2165   20.4378 C.ar    1  UNL1        0.0963
     18 O           2.7741   -1.2046   22.3442 O.3     1  UNL1       -0.4551
     19 C           2.9121   -0.2996   23.5325 C.3     1  UNL1        0.2543
     20 N          -2.2126    4.8610   20.4382 N.pl3   1  UNL1       -0.2784
     21 H          -2.3643    5.7801   20.1198 H       1  UNL1        0.1555
     22 N          -4.2223    3.5527   21.6190 N.ar    1  UNL1       -0.2380
     23 N          -4.6079    3.2590   23.0386 N.ar    1  UNL1       -0.1726
     24 C          -3.5767    3.8764   23.9361 C.ar    1  UNL1        0.0807
     25 C          -2.5540    4.5517   23.0713 C.ar    1  UNL1        0.0505
     26 C          -2.9530    4.3516   21.6392 C.ar    1  UNL1        0.1317
     27 C          -3.5696    3.8272   25.4352 C.3     1  UNL1        0.0372
     28 C          -2.1593    3.3755   25.6744 C.3     1  UNL1        0.0060
     29 C          -4.0522    3.9348   26.8514 C.3     1  UNL1        0.0060
     30 C          -4.9773    4.2618   25.7168 C.3     1  UNL1        0.0060
     31 C          -5.7631    4.1273   19.6075 C.3     1  UNL1        0.0285
     32 C          -4.9742    3.1229   20.3943 C.3     1  UNL1        0.1289
@<TRIPOS>BOND
     1    31    32    1
     2    32    22    1
     3    22    23   ar
     4    23    24   ar
     5    24    27    1
     6    27    28    1
     7    27    29    1
     8    29    30    1
     9    24    25   ar
    10    25    26   ar
    11    26    20    1
    12    20     1    1
    13     1     2   ar
    14     2     3   ar
    15     3     6    1
    16     6     7   ar
    17     7     8   ar
    18     8     9   ar
    19     9    12    1
    20    12    13   ar
    21    13    14   ar
    22    14    15   ar
    23    15    16    1
    24    15    17   ar
    25     9    10   ar
    26    10    18    1
    27    18    19    1
    28    10    11   ar
    29     3     4   ar
    30     4     5   ar
    31    26    22   ar
    32     5     1   ar
    33    30    27    1
    34    11     6   ar
    35    17    12   ar
    36    20    21    1
@<TRIPOS>MOLECULE
*****
 32 36 0 0 0
SMALL
GASTEIGER

@<TRIPOS>ATOM
      1 C           0.1300    1.7211   20.7049 C.ar    1  UNL1        0.1646
      2 N           0.5458    1.3887   22.1073 N.ar    1  UNL1       -0.2224
      3 C          -0.1669    2.3259   23.0365 C.ar    1  UNL1        0.1074
      4 C          -1.0233    3.2376   22.2085 C.ar    1  UNL1        0.0588
      5 S          -0.8398    2.8637   20.7675 S.2     1  UNL1       -0.0508
      6 C          -0.0448    2.3478   24.5314 C.ar    1  UNL1        0.1026
      7 C          -1.1567    2.9098   25.3667 C.ar    1  UNL1        0.0224
      8 C          -1.0345    2.9316   26.8615 C.ar    1  UNL1        0.0239
      9 C           0.1996    2.3914   27.5211 C.ar    1  UNL1        0.1189
     10 C           1.3115    1.8294   26.6859 C.ar    1  UNL1        0.2416
     11 N           1.1894    1.8075   25.1910 N.ar    1  UNL1       -0.2089
     12 N           0.3217    2.4132   29.0160 N.ar    1  UNL1       -0.2826
     13 C           0.1269    1.2428   29.9337 C.ar    1  UNL1        0.1826
     14 N           0.3449    1.7154   31.3405 N.ar    1  UNL1       -0.2280
     15 C           0.6744    3.1780   31.2922 C.ar    1  UNL1        0.0786
     16 C           0.9669    4.0554   32.4732 C.3     1  UNL1        0.0538
     17 C           0.6601    3.6093   29.8556 C.ar    1  UNL1        0.0963
     18 O           2.5457    1.2891   27.3455 O.3     1  UNL1       -0.4551
     19 C           3.3417    0.2081   26.6763 C.3     1  UNL1        0.2543
     20 N           0.6012    1.0318   19.4587 N.pl3   1  UNL1       -0.2784
     21 H           0.0968    1.1332   18.6194 H       1  UNL1        0.1555
     22 N           3.1887    0.5804   18.9629 N.ar    1  UNL1       -0.2380
     23 N           4.1313   -0.5614   19.2032 N.ar    1  UNL1       -0.1726
     24 C           3.3660   -1.6595   19.8803 C.ar    1  UNL1        0.0807
     25 C           1.9505   -1.1964   20.0584 C.ar    1  UNL1        0.0505
     26 C           1.8409    0.1880   19.4914 C.ar    1  UNL1        0.1317
     27 C           3.9192   -2.9876   20.3047 C.3     1  UNL1        0.0372
     28 C           3.6098   -3.8011   19.0830 C.3     1  UNL1        0.0060
     29 C           4.5798   -4.0332   21.1534 C.3     1  UNL1        0.0060
     30 C           4.4206   -2.6354   21.6738 C.3     1  UNL1        0.0060
     31 C           4.9262    2.4325   18.4141 C.3     1  UNL1        0.0285
     32 C           3.5334    1.8856   18.3088 C.3     1  UNL1        0.1289
@<TRIPOS>BOND
     1    31    32    1
     2    32    22    1
     3    22    23   ar
     4    23    24   ar
     5    24    27    1
     6    27    28    1
     7    27    29    1
     8    29    30    1
     9    24    25   ar
    10    25    26   ar
    11    26    20    1
    12    20     1    1
    13     1     2   ar
    14     2     3   ar
    15     3     6    1
    16     6     7   ar
    17     7     8   ar
    18     8     9   ar
    19     9    12    1
    20    12    13   ar
    21    13    14   ar
    22    14    15   ar
    23    15    16    1
    24    15    17   ar
    25     9    10   ar
    26    10    18    1
    27    18    19    1
    28    10    11   ar
    29     3     4   ar
    30     4     5   ar
    31    26    22   ar
    32     5     1   ar
    33    30    27    1
    34    11     6   ar
    35    17    12   ar
    36    20    21    1
@<TRIPOS>MOLECULE
*****
 32 36 0 0 0
SMALL
GASTEIGER

@<TRIPOS>ATOM
      1 C           2.2218    0.0145   20.0526 C.ar    1  UNL1        0.1646
      2 N           0.8220    0.2603   20.5324 N.ar    1  UNL1       -0.2224
      3 C           0.6761    1.7283   20.8038 C.ar    1  UNL1        0.1074
      4 C           1.9857    2.3898   20.4917 C.ar    1  UNL1        0.0588
      5 S           2.9410    1.3306   20.0274 S.2     1  UNL1       -0.0508
      6 C          -0.5620    2.4145   21.3002 C.ar    1  UNL1        0.1026
      7 C          -0.5883    3.0114   22.6760 C.ar    1  UNL1        0.0224
      8 C          -1.8264    3.6975   23.1723 C.ar    1  UNL1        0.0239
      9 C          -3.0382    3.7866   22.2928 C.ar    1  UNL1        0.1189
     10 C          -3.0119    3.1897   20.9169 C.ar    1  UNL1        0.2416
     11 N          -1.7738    2.5036   20.4207 N.ar    1  UNL1       -0.2089
     12 N          -4.2763    4.4728   22.7891 N.ar    1  UNL1       -0.2826
     13 C          -4.3952    5.9235   23.1517 C.ar    1  UNL1        0.1826
     14 N          -5.8053    6.1760   23.5967 N.ar    1  UNL1       -0.2280
     15 C          -6.5578    4.8813   23.5092 C.ar    1  UNL1        0.0786
     16 C          -8.0018    4.6755   23.8593 C.3     1  UNL1        0.0538
     17 C          -5.6129    3.8287   23.0101 C.ar    1  UNL1        0.0963
     18 O          -4.2237    3.2789   20.0374 O.3     1  UNL1       -0.4551
     19 C          -4.1647    4.0561   18.7558 C.3     1  UNL1        0.2543
     20 N           2.8007   -1.3142   19.6658 N.pl3   1  UNL1       -0.2784
     21 H           2.7050   -1.6429   18.7428 H       1  UNL1        0.1555
     22 N           3.8893   -3.5906   20.5477 N.ar    1  UNL1       -0.2380
     23 N           4.6022   -4.0104   21.7990 N.ar    1  UNL1       -0.1726
     24 C           4.6789   -2.8211   22.7099 C.ar    1  UNL1        0.0807
     25 C           4.0134   -1.6664   22.0217 C.ar    1  UNL1        0.0505
     26 C           3.5254   -2.1419   20.6854 C.ar    1  UNL1        0.1317
     27 C           5.3103   -2.7918   24.0702 C.3     1  UNL1        0.0372
     28 C           6.3233   -3.8866   23.9108 C.3     1  UNL1        0.0060
     29 C           5.5899   -2.3823   25.4858 C.3     1  UNL1        0.0060
     30 C           4.5167   -1.6869   24.7020 C.3     1  UNL1        0.0060
     31 C           4.6992   -5.2293   18.7015 C.3     1  UNL1        0.0285
     32 C           3.5923   -4.4658   19.3663 C.3     1  UNL1        0.1289
@<TRIPOS>BOND
     1    31    32    1
     2    32    22    1
     3    22    23   ar
     4    23    24   ar
     5    24    27    1
     6    27    28    1
     7    27    29    1
     8    29    30    1
     9    24    25   ar
    10    25    26   ar
    11    26    20    1
    12    20     1    1
    13     1     2   ar
    14     2     3   ar
    15     3     6    1
    16     6     7   ar
    17     7     8   ar
    18     8     9   ar
    19     9    12    1
    20    12    13   ar
    21    13    14   ar
    22    14    15   ar
    23    15    16    1
    24    15    17   ar
    25     9    10   ar
    26    10    18    1
    27    18    19    1
    28    10    11   ar
    29     3     4   ar
    30     4     5   ar
    31    26    22   ar
    32     5     1   ar
    33    30    27    1
    34    11     6   ar
    35    17    12   ar
    36    20    21    1
