@<TRIPOS>MOLECULE
*****
 24 26 0 0 0
SMALL
GASTEIGER

@<TRIPOS>ATOM
      1 C          -8.5756  -16.6459   23.4906 C.3     1  UNL1        0.0847
      2 N          -7.9192  -16.0853   24.7175 N.3     1  UNL1       -0.2676
      3 C          -6.4702  -15.6989   24.6827 C.3     1  UNL1        0.0896
      4 C          -5.8138  -15.1384   25.9094 C.3     1  UNL1        0.0862
      5 N          -6.6064  -14.9643   27.1709 N.3     1  UNL1       -0.2951
      6 C          -8.0553  -15.3507   27.2057 C.3     1  UNL1        0.0862
      7 C          -8.7117  -15.9112   25.9790 C.3     1  UNL1        0.0896
      8 H          -6.5596  -13.9747   27.4138 H       1  UNL1        0.1233
      9 C          -9.9916  -17.1363   23.5553 C.ar    1  UNL1       -0.0075
     10 C         -10.3333  -18.3331   24.3926 C.ar    1  UNL1       -0.0030
     11 C         -11.7495  -18.8235   24.4572 C.ar    1  UNL1       -0.0003
     12 C         -12.8238  -18.1172   23.6847 C.ar    1  UNL1       -0.0000
     13 C         -12.4821  -16.9204   22.8474 C.ar    1  UNL1       -0.0003
     14 C         -11.0660  -16.4300   22.7827 C.ar    1  UNL1       -0.0030
     15 C          -7.8158  -16.7160   22.1992 C.3     1  UNL1        0.0499
     16 C          -7.9270  -18.8150   20.6721 C.ar    1  UNL1        0.1346
     17 C          -7.3467  -20.1198   20.2132 C.ar    1  UNL1        0.0366
     18 C          -6.0748  -20.6305   20.8226 C.ar    1  UNL1        0.0031
     19 C          -5.3832  -19.8364   21.8908 C.ar    1  UNL1       -0.0001
     20 C          -5.9635  -18.5315   22.3496 C.ar    1  UNL1       -0.0012
     21 C          -7.2354  -18.0208   21.7403 C.ar    1  UNL1        0.0135
     22 O          -9.1990  -18.3042   20.0628 O.3     1  UNL1       -0.4758
     23 C         -11.0468  -19.8848   20.9778 C.3     1  UNL1        0.0512
     24 C         -10.3435  -19.2427   19.8189 C.3     1  UNL1        0.2055
@<TRIPOS>BOND
     1    23    24    1
     2    24    22    1
     3    22    16    1
     4    16    17   ar
     5    17    18   ar
     6    18    19   ar
     7    19    20   ar
     8    20    21   ar
     9    21    15    1
    10     1    15    1
    11     1     9    1
    12     9    10   ar
    13    10    11   ar
    14    11    12   ar
    15    12    13   ar
    16    13    14   ar
    17     1     2    1
    18     2     3    1
    19     3     4    1
    20     4     5    1
    21     5     6    1
    22     6     7    1
    23    21    16   ar
    24    14     9   ar
    25     7     2    1
    26     5     8    1
@<TRIPOS>MOLECULE
*****
 24 26 0 0 0
SMALL
GASTEIGER

@<TRIPOS>ATOM
      1 C          -8.7212  -17.1113   22.4892 C.3     1  UNL1        0.0847
      2 N          -7.9969  -18.1923   21.7428 N.3     1  UNL1       -0.2676
      3 C          -8.5921  -18.7683   20.4922 C.3     1  UNL1        0.0896
      4 C          -7.8679  -19.8492   19.7459 C.3     1  UNL1        0.0862
      5 N          -6.5485  -20.3541   20.2501 N.3     1  UNL1       -0.2951
      6 C          -5.9533  -19.7781   21.5007 C.3     1  UNL1        0.0862
      7 C          -6.6775  -18.6972   22.2471 C.3     1  UNL1        0.0896
      8 H          -5.8701  -20.2015   19.5038 H       1  UNL1        0.1233
      9 C         -10.1770  -17.2701   22.8139 C.ar    1  UNL1       -0.0075
     10 C         -11.1885  -16.3538   22.1917 C.ar    1  UNL1       -0.0030
     11 C         -12.6443  -16.5126   22.5164 C.ar    1  UNL1       -0.0003
     12 C         -13.0886  -17.5878   23.4632 C.ar    1  UNL1       -0.0000
     13 C         -12.0771  -18.5042   24.0854 C.ar    1  UNL1       -0.0003
     14 C         -10.6213  -18.3454   23.7607 C.ar    1  UNL1       -0.0030
     15 C          -7.9896  -15.8716   22.9109 C.3     1  UNL1        0.0499
     16 C          -6.0774  -15.6786   24.6592 C.ar    1  UNL1        0.1346
     17 C          -5.6290  -15.5196   26.0817 C.ar    1  UNL1        0.0366
     18 C          -6.6444  -15.3948   27.1786 C.ar    1  UNL1        0.0031
     19 C          -8.1082  -15.4288   26.8530 C.ar    1  UNL1       -0.0001
     20 C          -8.5567  -15.5877   25.4304 C.ar    1  UNL1       -0.0012
     21 C          -7.5412  -15.7126   24.3335 C.ar    1  UNL1        0.0135
     22 O          -5.0619  -15.8035   23.5621 O.3     1  UNL1       -0.4758
     23 C          -3.0095  -17.0138   22.5266 C.3     1  UNL1        0.0512
     24 C          -4.0781  -16.9357   23.5762 C.3     1  UNL1        0.2055
@<TRIPOS>BOND
     1    23    24    1
     2    24    22    1
     3    22    16    1
     4    16    17   ar
     5    17    18   ar
     6    18    19   ar
     7    19    20   ar
     8    20    21   ar
     9    21    15    1
    10     1    15    1
    11     1     9    1
    12     9    10   ar
    13    10    11   ar
    14    11    12   ar
    15    12    13   ar
    16    13    14   ar
    17     1     2    1
    18     2     3    1
    19     3     4    1
    20     4     5    1
    21     5     6    1
    22     6     7    1
    23    21    16   ar
    24    14     9   ar
    25     7     2    1
    26     5     8    1
@<TRIPOS>MOLECULE
*****
 24 26 0 0 0
SMALL
GASTEIGER

@<TRIPOS>ATOM
      1 C          -8.6234  -16.7014   23.5039 C.3     1  UNL1        0.0847
      2 N         -10.0493  -17.1644   23.5540 N.3     1  UNL1       -0.2676
      3 C         -10.4261  -18.3418   24.4036 C.3     1  UNL1        0.0896
      4 C         -11.8519  -18.8048   24.4538 C.3     1  UNL1        0.0862
      5 N         -12.9010  -18.0904   23.6545 N.3     1  UNL1       -0.2951
      6 C         -12.5242  -16.9130   22.8049 C.3     1  UNL1        0.0862
      7 C         -11.0984  -16.4500   22.7546 C.3     1  UNL1        0.0896
      8 H         -13.6036  -17.7625   24.3171 H       1  UNL1        0.1233
      9 C          -7.9535  -16.1996   24.7486 C.ar    1  UNL1       -0.0075
     10 C          -6.5262  -15.7409   24.6994 C.ar    1  UNL1       -0.0030
     11 C          -5.8564  -15.2391   25.9442 C.ar    1  UNL1       -0.0003
     12 C          -6.6138  -15.1960   27.2382 C.ar    1  UNL1       -0.0000
     13 C          -8.0411  -15.6547   27.2874 C.ar    1  UNL1       -0.0003
     14 C          -8.7110  -16.1565   26.0427 C.ar    1  UNL1       -0.0030
     15 C          -7.8674  -16.7403   22.2089 C.3     1  UNL1        0.0499
     16 C          -7.9272  -18.8080   20.6369 C.ar    1  UNL1        0.1346
     17 C          -7.3224  -20.0951   20.1599 C.ar    1  UNL1        0.0366
     18 C          -6.0530  -20.6016   20.7778 C.ar    1  UNL1        0.0031
     19 C          -5.3883  -19.8211   21.8728 C.ar    1  UNL1       -0.0001
     20 C          -5.9931  -18.5340   22.3498 C.ar    1  UNL1       -0.0012
     21 C          -7.2625  -18.0275   21.7319 C.ar    1  UNL1        0.0135
     22 O          -9.1967  -18.3015   20.0190 O.3     1  UNL1       -0.4758
     23 C         -10.9945  -19.8819   21.0290 C.3     1  UNL1        0.0512
     24 C         -10.3632  -19.2267   19.8365 C.3     1  UNL1        0.2055
@<TRIPOS>BOND
     1    23    24    1
     2    24    22    1
     3    22    16    1
     4    16    17   ar
     5    17    18   ar
     6    18    19   ar
     7    19    20   ar
     8    20    21   ar
     9    21    15    1
    10     1    15    1
    11     1     9    1
    12     9    10   ar
    13    10    11   ar
    14    11    12   ar
    15    12    13   ar
    16    13    14   ar
    17     1     2    1
    18     2     3    1
    19     3     4    1
    20     4     5    1
    21     5     6    1
    22     6     7    1
    23    21    16   ar
    24    14     9   ar
    25     7     2    1
    26     5     8    1
@<TRIPOS>MOLECULE
*****
 24 26 0 0 0
SMALL
GASTEIGER

@<TRIPOS>ATOM
      1 C          -8.5976  -17.1338   22.3895 C.3     1  UNL1        0.0847
      2 N         -10.0686  -17.2531   22.6581 N.3     1  UNL1       -0.2676
      3 C         -10.5814  -18.3406   23.5551 C.3     1  UNL1        0.0896
      4 C         -12.0522  -18.4599   23.8238 C.3     1  UNL1        0.0862
      5 N         -13.0103  -17.4919   23.1954 N.3     1  UNL1       -0.2951
      6 C         -12.4976  -16.4044   22.2985 C.3     1  UNL1        0.0862
      7 C         -11.0267  -16.2851   22.0298 C.3     1  UNL1        0.0896
      8 H         -13.5087  -17.0337   23.9584 H       1  UNL1        0.1233
      9 C          -7.8682  -18.2487   21.7004 C.ar    1  UNL1       -0.0075
     10 C          -8.4334  -18.8547   20.4500 C.ar    1  UNL1       -0.0030
     11 C          -7.7039  -19.9696   19.7609 C.ar    1  UNL1       -0.0003
     12 C          -6.4093  -20.4785   20.3221 C.ar    1  UNL1       -0.0000
     13 C          -5.8441  -19.8725   21.5725 C.ar    1  UNL1       -0.0003
     14 C          -6.5735  -18.7576   22.2616 C.ar    1  UNL1       -0.0030
     15 C          -7.8561  -15.8995   22.8100 C.3     1  UNL1        0.0499
     16 C          -5.9752  -15.6906   24.5900 C.ar    1  UNL1        0.1346
     17 C          -5.5520  -15.5202   26.0190 C.ar    1  UNL1        0.0366
     18 C          -6.5867  -15.3883   27.0969 C.ar    1  UNL1        0.0031
     19 C          -8.0446  -15.4269   26.7459 C.ar    1  UNL1       -0.0001
     20 C          -8.4677  -15.5973   25.3170 C.ar    1  UNL1       -0.0012
     21 C          -7.4330  -15.7291   24.2390 C.ar    1  UNL1        0.0135
     22 O          -4.9405  -15.8224   23.5120 O.3     1  UNL1       -0.4758
     23 C          -2.9033  -17.0701   22.4907 C.3     1  UNL1        0.0512
     24 C          -3.9735  -16.9689   23.5368 C.3     1  UNL1        0.2055
@<TRIPOS>BOND
     1    23    24    1
     2    24    22    1
     3    22    16    1
     4    16    17   ar
     5    17    18   ar
     6    18    19   ar
     7    19    20   ar
     8    20    21   ar
     9    21    15    1
    10     1    15    1
    11     1     9    1
    12     9    10   ar
    13    10    11   ar
    14    11    12   ar
    15    12    13   ar
    16    13    14   ar
    17     1     2    1
    18     2     3    1
    19     3     4    1
    20     4     5    1
    21     5     6    1
    22     6     7    1
    23    21    16   ar
    24    14     9   ar
    25     7     2    1
    26     5     8    1
@<TRIPOS>MOLECULE
*****
 24 26 0 0 0
SMALL
GASTEIGER

@<TRIPOS>ATOM
      1 C          -9.0871  -17.9191   23.6120 C.3     1  UNL1        0.0847
      2 N          -8.2473  -16.8447   24.2369 N.3     1  UNL1       -0.2676
      3 C          -8.5896  -16.3236   25.6012 C.3     1  UNL1        0.0896
      4 C          -7.7499  -15.2492   26.2261 C.3     1  UNL1        0.0862
      5 N          -6.5680  -14.6958   25.4867 N.3     1  UNL1       -0.2951
      6 C          -6.2257  -15.2169   24.1224 C.3     1  UNL1        0.0862
      7 C          -7.0654  -16.2913   23.4975 C.3     1  UNL1        0.0896
      8 H          -5.7509  -14.8551   26.0762 H       1  UNL1        0.1233
      9 C         -10.5831  -17.8156   23.6441 C.ar    1  UNL1       -0.0075
     10 C         -11.2807  -16.7735   22.8212 C.ar    1  UNL1       -0.0030
     11 C         -12.7768  -16.6700   22.8533 C.ar    1  UNL1       -0.0003
     12 C         -13.5753  -17.6087   23.7084 C.ar    1  UNL1       -0.0000
     13 C         -12.8777  -18.6509   24.5314 C.ar    1  UNL1       -0.0003
     14 C         -11.3817  -18.7544   24.4993 C.ar    1  UNL1       -0.0030
     15 C          -8.4307  -19.0971   22.9550 C.3     1  UNL1        0.0499
     16 C          -7.4886  -19.4133   20.5544 C.ar    1  UNL1        0.1346
     17 C          -7.7131  -19.6797   19.0955 C.ar    1  UNL1        0.0366
     18 C          -9.1043  -19.8963   18.5781 C.ar    1  UNL1        0.0031
     19 C         -10.2709  -19.8465   19.5196 C.ar    1  UNL1       -0.0001
     20 C         -10.0464  -19.5801   20.9786 C.ar    1  UNL1       -0.0012
     21 C          -8.6552  -19.3635   21.4960 C.ar    1  UNL1        0.0135
     22 O          -6.0974  -19.1967   21.0719 O.3     1  UNL1       -0.4758
     23 C          -4.1134  -20.5124   20.0316 C.3     1  UNL1        0.0512
     24 C          -4.9297  -19.2581   20.1324 C.3     1  UNL1        0.2055
@<TRIPOS>BOND
     1    23    24    1
     2    24    22    1
     3    22    16    1
     4    16    17   ar
     5    17    18   ar
     6    18    19   ar
     7    19    20   ar
     8    20    21   ar
     9    21    15    1
    10     1    15    1
    11     1     9    1
    12     9    10   ar
    13    10    11   ar
    14    11    12   ar
    15    12    13   ar
    16    13    14   ar
    17     1     2    1
    18     2     3    1
    19     3     4    1
    20     4     5    1
    21     5     6    1
    22     6     7    1
    23    21    16   ar
    24    14     9   ar
    25     7     2    1
    26     5     8    1
@<TRIPOS>MOLECULE
*****
 24 26 0 0 0
SMALL
GASTEIGER

@<TRIPOS>ATOM
      1 C          -7.8030  -16.7737   23.1239 C.3     1  UNL1        0.0847
      2 N          -6.9860  -17.7723   22.3587 N.3     1  UNL1       -0.2676
      3 C          -7.5696  -18.4562   21.1580 C.3     1  UNL1        0.0896
      4 C          -6.7527  -19.4547   20.3928 C.3     1  UNL1        0.0862
      5 N          -5.3523  -19.7693   20.8282 N.3     1  UNL1       -0.2951
      6 C          -4.7687  -19.0854   22.0289 C.3     1  UNL1        0.0862
      7 C          -5.5855  -18.0869   22.7941 C.3     1  UNL1        0.0896
      8 H          -4.7428  -19.5512   20.0399 H       1  UNL1        0.1233
      9 C          -7.2740  -16.1938   24.4021 C.ar    1  UNL1       -0.0075
     10 C          -5.8867  -15.6254   24.4502 C.ar    1  UNL1       -0.0030
     11 C          -5.3577  -15.0454   25.7285 C.ar    1  UNL1       -0.0003
     12 C          -6.2160  -15.0340   26.9586 C.ar    1  UNL1       -0.0000
     13 C          -7.6033  -15.6024   26.9105 C.ar    1  UNL1       -0.0003
     14 C          -8.1323  -16.1823   25.6323 C.ar    1  UNL1       -0.0030
     15 C          -9.1489  -16.3551   22.6109 C.3     1  UNL1        0.0499
     16 C         -11.7089  -16.7654   22.4433 C.ar    1  UNL1        0.1346
     17 C         -12.9444  -17.4744   22.9132 C.ar    1  UNL1        0.0366
     18 C         -12.8554  -18.4820   24.0208 C.ar    1  UNL1        0.0031
     19 C         -11.5309  -18.7807   24.6584 C.ar    1  UNL1       -0.0001
     20 C         -10.2954  -18.0717   24.1884 C.ar    1  UNL1       -0.0012
     21 C         -10.3844  -17.0641   23.0809 C.ar    1  UNL1        0.0135
     22 O         -11.7979  -15.7577   21.3357 O.3     1  UNL1       -0.4758
     23 C         -11.1896  -17.6004   19.6082 C.3     1  UNL1        0.0512
     24 C         -11.5721  -16.1829   19.9150 C.3     1  UNL1        0.2055
@<TRIPOS>BOND
     1    23    24    1
     2    24    22    1
     3    22    16    1
     4    16    17   ar
     5    17    18   ar
     6    18    19   ar
     7    19    20   ar
     8    20    21   ar
     9    21    15    1
    10     1    15    1
    11     1     9    1
    12     9    10   ar
    13    10    11   ar
    14    11    12   ar
    15    12    13   ar
    16    13    14   ar
    17     1     2    1
    18     2     3    1
    19     3     4    1
    20     4     5    1
    21     5     6    1
    22     6     7    1
    23    21    16   ar
    24    14     9   ar
    25     7     2    1
    26     5     8    1
@<TRIPOS>MOLECULE
*****
 24 26 0 0 0
SMALL
GASTEIGER

@<TRIPOS>ATOM
      1 C          -9.3706  -16.6948   22.4705 C.3     1  UNL1        0.0847
      2 N         -10.3873  -16.3303   21.4295 N.3     1  UNL1       -0.2676
      3 C          -9.9824  -15.5105   20.2404 C.3     1  UNL1        0.0896
      4 C         -10.9990  -15.1459   19.1995 C.3     1  UNL1        0.0862
      5 N         -12.4205  -15.6012   19.3476 N.3     1  UNL1       -0.2951
      6 C         -12.8254  -16.4210   20.5367 C.3     1  UNL1        0.0862
      7 C         -11.8088  -16.7855   21.5777 C.3     1  UNL1        0.0896
      8 H         -12.6402  -16.1549   18.5197 H       1  UNL1        0.1233
      9 C          -9.4461  -18.0252   23.1591 C.ar    1  UNL1       -0.0075
     10 C          -8.5848  -19.1612   22.6925 C.ar    1  UNL1       -0.0030
     11 C          -8.6604  -20.4917   23.3812 C.ar    1  UNL1       -0.0003
     12 C          -9.5972  -20.6861   24.5364 C.ar    1  UNL1       -0.0000
     13 C         -10.4585  -19.5501   25.0030 C.ar    1  UNL1       -0.0003
     14 C         -10.3830  -18.2197   24.3144 C.ar    1  UNL1       -0.0030
     15 C          -8.2784  -15.7289   22.8227 C.3     1  UNL1        0.0499
     16 C          -6.3117  -15.7376   24.5204 C.ar    1  UNL1        0.1346
     17 C          -5.8145  -15.6503   25.9329 C.ar    1  UNL1        0.0366
     18 C          -6.7868  -15.4669   27.0602 C.ar    1  UNL1        0.0031
     19 C          -8.2563  -15.3708   26.7751 C.ar    1  UNL1       -0.0001
     20 C          -8.7535  -15.4581   25.3626 C.ar    1  UNL1       -0.0012
     21 C          -7.7812  -15.6415   24.2353 C.ar    1  UNL1        0.0135
     22 O          -5.3394  -15.9210   23.3930 O.3     1  UNL1       -0.4758
     23 C          -4.6958  -18.3510   22.7365 C.3     1  UNL1        0.0512
     24 C          -4.3629  -17.0592   23.4224 C.3     1  UNL1        0.2055
@<TRIPOS>BOND
     1    23    24    1
     2    24    22    1
     3    22    16    1
     4    16    17   ar
     5    17    18   ar
     6    18    19   ar
     7    19    20   ar
     8    20    21   ar
     9    21    15    1
    10     1    15    1
    11     1     9    1
    12     9    10   ar
    13    10    11   ar
    14    11    12   ar
    15    12    13   ar
    16    13    14   ar
    17     1     2    1
    18     2     3    1
    19     3     4    1
    20     4     5    1
    21     5     6    1
    22     6     7    1
    23    21    16   ar
    24    14     9   ar
    25     7     2    1
    26     5     8    1
@<TRIPOS>MOLECULE
*****
 24 26 0 0 0
SMALL
GASTEIGER

@<TRIPOS>ATOM
      1 C          -8.0192  -17.0233   22.0614 C.3     1  UNL1        0.0847
      2 N          -9.4121  -17.3136   21.5864 N.3     1  UNL1       -0.2676
      3 C          -9.8349  -18.7284   21.3225 C.3     1  UNL1        0.0896
      4 C         -11.2277  -19.0188   20.8476 C.3     1  UNL1        0.0862
      5 N         -12.1978  -17.8944   20.6366 N.3     1  UNL1       -0.2951
      6 C         -11.7751  -16.4796   20.9005 C.3     1  UNL1        0.0862
      7 C         -10.3822  -16.1892   21.3754 C.3     1  UNL1        0.0896
      8 H         -12.9991  -18.0797   21.2399 H       1  UNL1        0.1233
      9 C          -6.9164  -18.0048   21.7960 C.ar    1  UNL1       -0.0075
     10 C          -6.9568  -18.8641   20.5672 C.ar    1  UNL1       -0.0030
     11 C          -5.8540  -19.8457   20.3019 C.ar    1  UNL1       -0.0003
     12 C          -4.7109  -19.9680   21.2654 C.ar    1  UNL1       -0.0000
     13 C          -4.6705  -19.1087   22.4942 C.ar    1  UNL1       -0.0003
     14 C          -5.7732  -18.1271   22.7595 C.ar    1  UNL1       -0.0030
     15 C          -7.7291  -15.7513   22.8017 C.3     1  UNL1        0.0499
     16 C          -8.4877  -16.3505   25.2132 C.ar    1  UNL1        0.1346
     17 C          -8.2189  -16.3861   26.6885 C.ar    1  UNL1        0.0366
     18 C          -6.9226  -15.8579   27.2275 C.ar    1  UNL1        0.0031
     19 C          -5.8951  -15.2942   26.2913 C.ar    1  UNL1       -0.0001
     20 C          -6.1639  -15.2587   24.8160 C.ar    1  UNL1       -0.0012
     21 C          -7.4602  -15.7868   24.2770 C.ar    1  UNL1        0.0135
     22 O          -9.7841  -16.8787   24.6741 O.3     1  UNL1       -0.4758
     23 C         -11.5421  -18.7868   24.5385 C.3     1  UNL1        0.0512
     24 C         -10.1755  -18.3047   24.9257 C.3     1  UNL1        0.2055
@<TRIPOS>BOND
     1    23    24    1
     2    24    22    1
     3    22    16    1
     4    16    17   ar
     5    17    18   ar
     6    18    19   ar
     7    19    20   ar
     8    20    21   ar
     9    21    15    1
    10     1    15    1
    11     1     9    1
    12     9    10   ar
    13    10    11   ar
    14    11    12   ar
    15    12    13   ar
    16    13    14   ar
    17     1     2    1
    18     2     3    1
    19     3     4    1
    20     4     5    1
    21     5     6    1
    22     6     7    1
    23    21    16   ar
    24    14     9   ar
    25     7     2    1
    26     5     8    1
@<TRIPOS>MOLECULE
*****
 24 26 0 0 0
SMALL
GASTEIGER

@<TRIPOS>ATOM
      1 C          -8.8348  -17.9429   23.1366 C.3     1  UNL1        0.0847
      2 N          -8.0697  -16.9167   23.9187 N.3     1  UNL1       -0.2676
      3 C          -8.5728  -16.4661   25.2581 C.3     1  UNL1        0.0896
      4 C          -7.8078  -15.4400   26.0402 C.3     1  UNL1        0.0862
      5 N          -6.5397  -14.8644   25.4830 N.3     1  UNL1       -0.2951
      6 C          -6.0366  -15.3149   24.1436 C.3     1  UNL1        0.0862
      7 C          -6.8016  -16.3411   23.3615 C.3     1  UNL1        0.0896
      8 H          -5.8025  -15.0677   26.1580 H       1  UNL1        0.1233
      9 C         -10.2286  -17.6442   22.6698 C.ar    1  UNL1       -0.0075
     10 C         -11.3884  -18.4119   23.2315 C.ar    1  UNL1       -0.0030
     11 C         -12.7823  -18.1132   22.7646 C.ar    1  UNL1       -0.0003
     12 C         -13.0163  -17.0468   21.7360 C.ar    1  UNL1       -0.0000
     13 C         -11.8565  -16.2791   21.1743 C.ar    1  UNL1       -0.0003
     14 C         -10.4627  -16.5778   21.6411 C.ar    1  UNL1       -0.0030
     15 C          -8.2060  -19.2677   22.8214 C.3     1  UNL1        0.0499
     16 C          -7.2026  -19.0475   20.4350 C.ar    1  UNL1        0.1346
     17 C          -6.0239  -19.1170   19.5098 C.ar    1  UNL1        0.0366
     18 C          -4.6699  -19.4763   20.0460 C.ar    1  UNL1        0.0031
     19 C          -4.4945  -19.7661   21.5072 C.ar    1  UNL1       -0.0001
     20 C          -5.6732  -19.6965   22.4324 C.ar    1  UNL1       -0.0012
     21 C          -7.0272  -19.3372   21.8962 C.ar    1  UNL1        0.0135
     22 O          -8.5567  -18.6881   19.8989 O.3     1  UNL1       -0.4758
     23 C          -8.9377  -20.7266   18.3338 C.3     1  UNL1        0.0512
     24 C          -9.4563  -19.7583   19.3553 C.3     1  UNL1        0.2055
@<TRIPOS>BOND
     1    23    24    1
     2    24    22    1
     3    22    16    1
     4    16    17   ar
     5    17    18   ar
     6    18    19   ar
     7    19    20   ar
     8    20    21   ar
     9    21    15    1
    10     1    15    1
    11     1     9    1
    12     9    10   ar
    13    10    11   ar
    14    11    12   ar
    15    12    13   ar
    16    13    14   ar
    17     1     2    1
    18     2     3    1
    19     3     4    1
    20     4     5    1
    21     5     6    1
    22     6     7    1
    23    21    16   ar
    24    14     9   ar
    25     7     2    1
    26     5     8    1
