@<TRIPOS>MOLECULE
*****
 35 39 0 0 0
SMALL
GASTEIGER

@<TRIPOS>ATOM
      1 C           8.9419   -5.4124   22.8706 C.ar    1  UNL1        0.0644
      2 C           9.1563   -6.8955   22.8036 C.ar    1  UNL1        0.0155
      3 C           9.1397   -7.7132   24.0610 C.ar    1  UNL1       -0.0032
      4 C           8.9087   -7.0478   25.3854 C.ar    1  UNL1       -0.0246
      5 C           8.6943   -5.5648   25.4523 C.ar    1  UNL1       -0.0234
      6 C           8.7109   -4.7470   24.1950 C.ar    1  UNL1        0.0113
      7 C           8.4489   -4.7088   26.6595 C.3     1  UNL1        0.0434
      8 C           8.3573   -5.1246   28.0978 C.3     1  UNL1        0.0771
      9 N           8.4884   -6.4989   28.6842 N.3     1  UNL1       -0.2671
     10 C           8.7435   -7.7970   27.9771 C.3     1  UNL1        0.0771
     11 C           8.9306   -8.0413   26.5090 C.3     1  UNL1        0.0434
     12 N           8.9585   -4.5947   21.6131 N.pl3   1  UNL1       -0.2150
     13 H           9.7498   -4.6083   21.0275 H       1  UNL1        0.1737
     14 O           8.4909   -2.5283   21.7185 O.2     1  UNL1       -0.1499
     15 S           7.7695   -3.7563   21.2480 S.O2    1  UNL1        0.0736
     16 O           7.0480   -4.9844   20.7775 O.2     1  UNL1       -0.1499
     17 C           6.5804   -2.9180   20.8828 C.ar    1  UNL1        0.1252
     18 C           6.6927   -1.8903   19.7960 C.ar    1  UNL1        0.0202
     19 C           5.5036   -1.0519   19.4309 C.ar    1  UNL1        0.0014
     20 C           4.2024   -1.2412   20.1525 C.ar    1  UNL1        0.0001
     21 C           4.0901   -2.2689   21.2394 C.ar    1  UNL1        0.0014
     22 C           5.2791   -3.1073   21.6045 C.ar    1  UNL1        0.0202
     23 C           3.0133   -0.4029   19.7874 C.ar    1  UNL1        0.0000
     24 C           1.6894   -0.6513   20.4476 C.ar    1  UNL1        0.0000
     25 C           0.5003    0.1870   20.0826 C.ar    1  UNL1        0.0000
     26 C           0.6350    1.2737   19.0574 C.ar    1  UNL1        0.0000
     27 C           1.9589    1.5221   18.3973 C.ar    1  UNL1        0.0000
     28 C           3.1479    0.6838   18.7623 C.ar    1  UNL1        0.0000
     29 C           8.3455   -6.5869   30.1747 C.3     1  UNL1        0.1180
     30 C           7.9304   -5.3787   30.9611 C.ar    1  UNL1        0.0693
     31 C           8.8255   -4.2519   31.3843 C.ar    1  UNL1        0.0379
     32 C           7.9956   -3.2622   32.1469 C.ar    1  UNL1        0.1211
     33 N           6.5877   -3.7772   32.1952 N.ar    1  UNL1       -0.1713
     34 N           6.5473   -5.0854   31.4622 N.ar    1  UNL1       -0.2784
     35 H           5.7527   -5.6520   31.3328 H       1  UNL1        0.1886
@<TRIPOS>BOND
     1    14    15    2
     2    15    16    2
     3    15    12    1
     4    12     1    1
     5     1     2   ar
     6     2     3   ar
     7     3     4   ar
     8     4     5   ar
     9     5     6   ar
    10     5     7    1
    11     7     8    1
    12     8     9    1
    13     9    29    1
    14    29    30    1
    15    30    31   ar
    16    31    32   ar
    17    32    33   ar
    18    33    34   ar
    19     9    10    1
    20    10    11    1
    21    15    17    1
    22    17    18   ar
    23    18    19   ar
    24    19    20   ar
    25    20    23    1
    26    23    24   ar
    27    24    25   ar
    28    25    26   ar
    29    26    27   ar
    30    27    28   ar
    31    20    21   ar
    32    21    22   ar
    33     6     1   ar
    34    34    30   ar
    35    22    17   ar
    36    11     4    1
    37    28    23   ar
    38    12    13    1
    39    34    35    1
@<TRIPOS>MOLECULE
*****
 35 39 0 0 0
SMALL
GASTEIGER

@<TRIPOS>ATOM
      1 C           2.6434    1.3242   30.3332 C.ar    1  UNL1        0.0644
      2 C           3.5097    0.1002   30.2954 C.ar    1  UNL1        0.0155
      3 C           4.0962   -0.4431   31.5646 C.ar    1  UNL1       -0.0032
      4 C           3.8164    0.2377   32.8717 C.ar    1  UNL1       -0.0246
      5 C           2.9502    1.4616   32.9094 C.ar    1  UNL1       -0.0234
      6 C           2.3637    2.0049   31.6403 C.ar    1  UNL1        0.0113
      7 C           2.5484    2.2868   34.0960 C.3     1  UNL1        0.0434
      8 C           2.9139    2.0918   35.5377 C.3     1  UNL1        0.0771
      9 N           3.7711    1.0235   36.1489 N.3     1  UNL1       -0.2671
     10 C           4.4748   -0.1138   35.4695 C.3     1  UNL1        0.0771
     11 C           4.4949   -0.4635   34.0110 C.3     1  UNL1        0.0434
     12 N           2.0570    1.8675   29.0640 N.pl3   1  UNL1       -0.2150
     13 H           1.4851    2.6684   29.0893 H       1  UNL1        0.1737
     14 O           1.1583    0.2924   27.9633 O.2     1  UNL1       -0.1499
     15 S           2.3419    1.1903   27.7562 S.O2    1  UNL1        0.0736
     16 O           3.5255    2.0882   27.5491 O.2     1  UNL1       -0.1499
     17 C           2.6269    0.5131   26.4484 C.ar    1  UNL1        0.1252
     18 C           1.9210    0.9605   25.2028 C.ar    1  UNL1        0.0202
     19 C           2.2060    0.2832   23.8951 C.ar    1  UNL1        0.0014
     20 C           3.1967   -0.8412   23.8329 C.ar    1  UNL1        0.0001
     21 C           3.9026   -1.2886   25.0786 C.ar    1  UNL1        0.0014
     22 C           3.6177   -0.6114   26.3863 C.ar    1  UNL1        0.0202
     23 C           3.4817   -1.5185   22.5252 C.ar    1  UNL1        0.0000
     24 C           4.3657   -2.7297   22.4849 C.ar    1  UNL1        0.0000
     25 C           4.6508   -3.4070   21.1772 C.ar    1  UNL1        0.0000
     26 C           4.0518   -2.8731   19.9098 C.ar    1  UNL1        0.0000
     27 C           3.1678   -1.6618   19.9502 C.ar    1  UNL1        0.0000
     28 C           2.8828   -0.9846   21.2578 C.ar    1  UNL1        0.0000
     29 C           3.9482    1.1028   37.6363 C.3     1  UNL1        0.1180
     30 C           2.7494    1.2343   38.5284 C.ar    1  UNL1        0.0693
     31 C           2.0357    2.5103   38.8638 C.ar    1  UNL1        0.0379
     32 C           0.8992    2.1774   39.7844 C.ar    1  UNL1        0.1211
     33 N           0.9105    0.6958   40.0181 N.ar    1  UNL1       -0.1713
     34 N           2.0541    0.1129   39.2418 N.ar    1  UNL1       -0.2784
     35 H           2.3043   -0.8387   39.2067 H       1  UNL1        0.1886
@<TRIPOS>BOND
     1    14    15    2
     2    15    16    2
     3    15    12    1
     4    12     1    1
     5     1     2   ar
     6     2     3   ar
     7     3     4   ar
     8     4     5   ar
     9     5     6   ar
    10     5     7    1
    11     7     8    1
    12     8     9    1
    13     9    29    1
    14    29    30    1
    15    30    31   ar
    16    31    32   ar
    17    32    33   ar
    18    33    34   ar
    19     9    10    1
    20    10    11    1
    21    15    17    1
    22    17    18   ar
    23    18    19   ar
    24    19    20   ar
    25    20    23    1
    26    23    24   ar
    27    24    25   ar
    28    25    26   ar
    29    26    27   ar
    30    27    28   ar
    31    20    21   ar
    32    21    22   ar
    33     6     1   ar
    34    34    30   ar
    35    22    17   ar
    36    11     4    1
    37    28    23   ar
    38    12    13    1
    39    34    35    1
@<TRIPOS>MOLECULE
*****
 35 39 0 0 0
SMALL
GASTEIGER

@<TRIPOS>ATOM
      1 C           4.2894   -0.5826   30.4605 C.ar    1  UNL1        0.0644
      2 C           5.1264   -1.6424   31.1133 C.ar    1  UNL1        0.0155
      3 C           5.3570   -1.6091   32.5952 C.ar    1  UNL1       -0.0032
      4 C           4.7505   -0.5159   33.4242 C.ar    1  UNL1       -0.0246
      5 C           3.9135    0.5438   32.7714 C.ar    1  UNL1       -0.0234
      6 C           3.6829    0.5106   31.2896 C.ar    1  UNL1        0.0113
      7 C           3.2219    1.7131   33.4074 C.3     1  UNL1        0.0434
      8 C           3.1966    2.1113   34.8535 C.3     1  UNL1        0.0771
      9 N           3.8565    1.4386   36.0204 N.3     1  UNL1       -0.2671
     10 C           4.7048    0.2015   36.0297 C.3     1  UNL1        0.0771
     11 C           5.1027   -0.6683   34.8743 C.3     1  UNL1        0.0434
     12 N           4.0589   -0.6159   28.9788 N.pl3   1  UNL1       -0.2150
     13 H           4.6776   -1.1120   28.3954 H       1  UNL1        0.1737
     14 O           3.7893    1.2270   27.9633 O.2     1  UNL1       -0.1499
     15 S           2.8857    0.1067   28.3859 S.O2    1  UNL1        0.0736
     16 O           1.9822   -1.0136   28.8084 O.2     1  UNL1       -0.1499
     17 C           1.7125    0.8292   27.7930 C.ar    1  UNL1        0.1252
     18 C           1.9012    1.7058   26.5904 C.ar    1  UNL1        0.0202
     19 C           0.7280    2.4284   25.9976 C.ar    1  UNL1        0.0014
     20 C          -0.6339    2.2744   26.6071 C.ar    1  UNL1        0.0001
     21 C          -0.8226    1.3978   27.8097 C.ar    1  UNL1        0.0014
     22 C           0.3506    0.6752   28.4026 C.ar    1  UNL1        0.0202
     23 C          -1.8071    2.9969   26.0143 C.ar    1  UNL1        0.0000
     24 C          -1.8194    3.3346   24.5528 C.ar    1  UNL1        0.0000
     25 C          -2.9927    4.0571   23.9599 C.ar    1  UNL1        0.0000
     26 C          -4.1536    4.4420   24.8285 C.ar    1  UNL1        0.0000
     27 C          -4.1411    4.1042   26.2900 C.ar    1  UNL1        0.0000
     28 C          -2.9680    3.3817   26.8828 C.ar    1  UNL1        0.0000
     29 C           3.6395    2.0889   37.3545 C.3     1  UNL1        0.1180
     30 C           2.3581    1.8612   38.1004 C.ar    1  UNL1        0.0693
     31 C           2.0532    0.6958   38.9941 C.ar    1  UNL1        0.0379
     32 C           0.6633    0.8734   39.5294 C.ar    1  UNL1        0.1211
     33 N           0.1091    2.1486   38.9667 N.ar    1  UNL1       -0.1713
     34 N           1.1566    2.7592   38.0834 N.ar    1  UNL1       -0.2784
     35 H           1.0706    3.6013   37.5808 H       1  UNL1        0.1886
@<TRIPOS>BOND
     1    14    15    2
     2    15    16    2
     3    15    12    1
     4    12     1    1
     5     1     2   ar
     6     2     3   ar
     7     3     4   ar
     8     4     5   ar
     9     5     6   ar
    10     5     7    1
    11     7     8    1
    12     8     9    1
    13     9    29    1
    14    29    30    1
    15    30    31   ar
    16    31    32   ar
    17    32    33   ar
    18    33    34   ar
    19     9    10    1
    20    10    11    1
    21    15    17    1
    22    17    18   ar
    23    18    19   ar
    24    19    20   ar
    25    20    23    1
    26    23    24   ar
    27    24    25   ar
    28    25    26   ar
    29    26    27   ar
    30    27    28   ar
    31    20    21   ar
    32    21    22   ar
    33     6     1   ar
    34    34    30   ar
    35    22    17   ar
    36    11     4    1
    37    28    23   ar
    38    12    13    1
    39    34    35    1
@<TRIPOS>MOLECULE
*****
 35 39 0 0 0
SMALL
GASTEIGER

@<TRIPOS>ATOM
      1 C           1.4539    1.9995   30.0694 C.ar    1  UNL1        0.0644
      2 C           2.2999    0.7609   30.0892 C.ar    1  UNL1        0.0155
      3 C           2.9911    0.3450   31.3538 C.ar    1  UNL1       -0.0032
      4 C           2.8364    1.1677   32.5986 C.ar    1  UNL1       -0.0246
      5 C           1.9906    2.4061   32.5787 C.ar    1  UNL1       -0.0234
      6 C           1.2993    2.8221   31.3142 C.ar    1  UNL1        0.0113
      7 C           1.7053    3.3620   33.6990 C.3     1  UNL1        0.0434
      8 C           2.1956    3.3153   35.1159 C.3     1  UNL1        0.0771
      9 N           3.0921    2.3013   35.7623 N.3     1  UNL1       -0.2671
     10 C           3.7199    1.0835   35.1516 C.3     1  UNL1        0.0771
     11 C           3.6061    0.5790   33.7436 C.3     1  UNL1        0.0434
     12 N           0.7627    2.4154   28.8048 N.pl3   1  UNL1       -0.2150
     13 H           0.0497    3.0936   28.8337 H       1  UNL1        0.1737
     14 O           2.3341    2.7254   27.4138 O.2     1  UNL1       -0.1499
     15 S           1.1580    1.7979   27.4961 S.O2    1  UNL1        0.0736
     16 O          -0.0180    0.8705   27.5785 O.2     1  UNL1       -0.1499
     17 C           1.5533    1.1805   26.1875 C.ar    1  UNL1        0.1252
     18 C           2.7376    0.2625   26.1187 C.ar    1  UNL1        0.0202
     19 C           3.1328   -0.3549   24.8100 C.ar    1  UNL1        0.0014
     20 C           2.3438   -0.0544   23.5702 C.ar    1  UNL1        0.0001
     21 C           1.1595    0.8636   23.6390 C.ar    1  UNL1        0.0014
     22 C           0.7643    1.4811   24.9476 C.ar    1  UNL1        0.0202
     23 C           2.7390   -0.6718   22.2615 C.ar    1  UNL1        0.0000
     24 C           3.8744   -1.6506   22.2066 C.ar    1  UNL1        0.0000
     25 C           4.2697   -2.2680   20.8980 C.ar    1  UNL1        0.0000
     26 C           3.5296   -1.9067   19.6442 C.ar    1  UNL1        0.0000
     27 C           2.3942   -0.9279   19.6993 C.ar    1  UNL1        0.0000
     28 C           1.9990   -0.3105   21.0078 C.ar    1  UNL1        0.0000
     29 C           3.4019    2.5361   37.2111 C.3     1  UNL1        0.1180
     30 C           2.5430    1.9143   38.2721 C.ar    1  UNL1        0.0693
     31 C           1.3143    2.5228   38.8805 C.ar    1  UNL1        0.0379
     32 C           0.7740    1.5594   39.8954 C.ar    1  UNL1        0.1211
     33 N           1.6687    0.3556   39.9143 N.ar    1  UNL1       -0.1713
     34 N           2.7621    0.5749   38.9110 N.ar    1  UNL1       -0.2784
     35 H           3.4948   -0.0504   38.7075 H       1  UNL1        0.1886
@<TRIPOS>BOND
     1    14    15    2
     2    15    16    2
     3    15    12    1
     4    12     1    1
     5     1     2   ar
     6     2     3   ar
     7     3     4   ar
     8     4     5   ar
     9     5     6   ar
    10     5     7    1
    11     7     8    1
    12     8     9    1
    13     9    29    1
    14    29    30    1
    15    30    31   ar
    16    31    32   ar
    17    32    33   ar
    18    33    34   ar
    19     9    10    1
    20    10    11    1
    21    15    17    1
    22    17    18   ar
    23    18    19   ar
    24    19    20   ar
    25    20    23    1
    26    23    24   ar
    27    24    25   ar
    28    25    26   ar
    29    26    27   ar
    30    27    28   ar
    31    20    21   ar
    32    21    22   ar
    33     6     1   ar
    34    34    30   ar
    35    22    17   ar
    36    11     4    1
    37    28    23   ar
    38    12    13    1
    39    34    35    1
@<TRIPOS>MOLECULE
*****
 35 39 0 0 0
SMALL
GASTEIGER

@<TRIPOS>ATOM
      1 C           7.6501   -6.7262   26.0785 C.ar    1  UNL1        0.0644
      2 C           8.3784   -7.6714   25.1696 C.ar    1  UNL1        0.0155
      3 C           8.7338   -7.2471   23.7754 C.ar    1  UNL1       -0.0032
      4 C           8.3608   -5.8776   23.2902 C.ar    1  UNL1       -0.0246
      5 C           7.6325   -4.9325   24.1991 C.ar    1  UNL1       -0.0234
      6 C           7.2771   -5.3567   25.5933 C.ar    1  UNL1        0.0113
      7 C           7.1704   -3.5335   23.9175 C.3     1  UNL1        0.0434
      8 C           7.3226   -2.7341   22.6573 C.3     1  UNL1        0.0771
      9 N           7.9744   -3.1364   21.3677 N.3     1  UNL1       -0.2671
     10 C           8.6350   -4.4373   21.0195 C.3     1  UNL1        0.0771
     11 C           8.8070   -5.6573   21.8751 C.3     1  UNL1        0.0434
     12 N           7.2948   -7.1506   27.4727 N.pl3   1  UNL1       -0.2150
     13 H           7.1945   -8.1065   27.6858 H       1  UNL1        0.1737
     14 O           8.4951   -6.3424   29.0239 O.2     1  UNL1       -0.1499
     15 S           7.0923   -6.1184   28.5421 S.O2    1  UNL1        0.0736
     16 O           5.6895   -5.8944   28.0603 O.2     1  UNL1       -0.1499
     17 C           6.8898   -5.0862   29.6115 C.ar    1  UNL1        0.1252
     18 C           6.5558   -3.6729   29.2361 C.ar    1  UNL1        0.0202
     19 C           6.3534   -2.6408   30.3056 C.ar    1  UNL1        0.0014
     20 C           6.4849   -3.0219   31.7504 C.ar    1  UNL1        0.0001
     21 C           6.8188   -4.4353   32.1258 C.ar    1  UNL1        0.0014
     22 C           7.0213   -5.4675   31.0564 C.ar    1  UNL1        0.0202
     23 C           6.2824   -1.9898   32.8199 C.ar    1  UNL1        0.0000
     24 C           4.9569   -1.8784   33.5132 C.ar    1  UNL1        0.0000
     25 C           4.7543   -0.8464   34.5827 C.ar    1  UNL1        0.0000
     26 C           5.8773    0.0743   34.9589 C.ar    1  UNL1        0.0000
     27 C           7.2028   -0.0372   34.2655 C.ar    1  UNL1        0.0000
     28 C           7.4052   -1.0692   33.1961 C.ar    1  UNL1        0.0000
     29 C           7.9642   -2.1007   20.2826 C.3     1  UNL1        0.1180
     30 C           6.7648   -1.9581   19.3931 C.ar    1  UNL1        0.0693
     31 C           5.3997   -1.5055   19.8193 C.ar    1  UNL1        0.0379
     32 C           4.5113   -1.5107   18.6108 C.ar    1  UNL1        0.1211
     33 N           5.3272   -1.9666   17.4376 N.ar    1  UNL1       -0.1713
     34 N           6.7201   -2.2431   17.9210 N.ar    1  UNL1       -0.2784
     35 H           7.4726   -2.5566   17.3691 H       1  UNL1        0.1886
@<TRIPOS>BOND
     1    14    15    2
     2    15    16    2
     3    15    12    1
     4    12     1    1
     5     1     2   ar
     6     2     3   ar
     7     3     4   ar
     8     4     5   ar
     9     5     6   ar
    10     5     7    1
    11     7     8    1
    12     8     9    1
    13     9    29    1
    14    29    30    1
    15    30    31   ar
    16    31    32   ar
    17    32    33   ar
    18    33    34   ar
    19     9    10    1
    20    10    11    1
    21    15    17    1
    22    17    18   ar
    23    18    19   ar
    24    19    20   ar
    25    20    23    1
    26    23    24   ar
    27    24    25   ar
    28    25    26   ar
    29    26    27   ar
    30    27    28   ar
    31    20    21   ar
    32    21    22   ar
    33     6     1   ar
    34    34    30   ar
    35    22    17   ar
    36    11     4    1
    37    28    23   ar
    38    12    13    1
    39    34    35    1
@<TRIPOS>MOLECULE
*****
 35 39 0 0 0
SMALL
GASTEIGER

@<TRIPOS>ATOM
      1 C           2.3763    0.9308   26.0534 C.ar    1  UNL1        0.0644
      2 C           3.2915    0.0034   26.7966 C.ar    1  UNL1        0.0155
      3 C           4.0036   -1.0945   26.0633 C.ar    1  UNL1       -0.0032
      4 C           3.8003   -1.2650   24.5869 C.ar    1  UNL1       -0.0246
      5 C           2.8852   -0.3376   23.8439 C.ar    1  UNL1       -0.0234
      6 C           2.1731    0.7603   24.5770 C.ar    1  UNL1        0.0113
      7 C           2.5441   -0.3319   22.3831 C.3     1  UNL1        0.0434
      8 C           3.0342   -1.2523   21.3047 C.3     1  UNL1        0.0771
      9 N           3.9862   -2.4055   21.4208 N.3     1  UNL1       -0.2671
     10 C           4.6834   -2.9234   22.6439 C.3     1  UNL1        0.0771
     11 C           4.6006   -2.4158   24.0529 C.3     1  UNL1        0.0434
     12 N           1.6643    2.0287   26.7867 N.pl3   1  UNL1       -0.2150
     13 H           2.0872    2.4541   27.5673 H       1  UNL1        0.1737
     14 O          -0.3117    1.2865   26.9979 O.2     1  UNL1       -0.1499
     15 S           0.3080    2.4784   26.3305 S.O2    1  UNL1        0.0736
     16 O           0.9276    3.6703   25.6631 O.2     1  UNL1       -0.1499
     17 C          -1.0484    2.9281   25.8743 C.ar    1  UNL1        0.1252
     18 C          -1.3225    3.1195   24.4120 C.ar    1  UNL1        0.0202
     19 C          -2.6789    3.5692   23.9559 C.ar    1  UNL1        0.0014
     20 C          -3.7611    3.8275   24.9619 C.ar    1  UNL1        0.0001
     21 C          -3.4869    3.6362   26.4242 C.ar    1  UNL1        0.0014
     22 C          -2.1306    3.1865   26.8804 C.ar    1  UNL1        0.0202
     23 C          -5.1174    4.2772   24.5058 C.ar    1  UNL1        0.0000
     24 C          -5.9478    5.1652   25.3844 C.ar    1  UNL1        0.0000
     25 C          -7.3042    5.6150   24.9284 C.ar    1  UNL1        0.0000
     26 C          -7.8302    5.1767   23.5937 C.ar    1  UNL1        0.0000
     27 C          -6.9998    4.2887   22.7151 C.ar    1  UNL1        0.0000
     28 C          -5.6435    3.8391   23.1712 C.ar    1  UNL1        0.0000
     29 C           4.2800   -3.1379   20.1451 C.3     1  UNL1        0.1180
     30 C           5.4628   -2.7453   19.3102 C.ar    1  UNL1        0.0693
     31 C           6.8959   -2.7519   19.7531 C.ar    1  UNL1        0.0379
     32 C           7.7387   -2.2879   18.6024 C.ar    1  UNL1        0.1211
     33 N           6.8267   -1.9947   17.4482 N.ar    1  UNL1       -0.1713
     34 N           5.4200   -2.2773   17.8856 N.ar    1  UNL1       -0.2784
     35 H           4.6107   -2.1739   17.3346 H       1  UNL1        0.1886
@<TRIPOS>BOND
     1    14    15    2
     2    15    16    2
     3    15    12    1
     4    12     1    1
     5     1     2   ar
     6     2     3   ar
     7     3     4   ar
     8     4     5   ar
     9     5     6   ar
    10     5     7    1
    11     7     8    1
    12     8     9    1
    13     9    29    1
    14    29    30    1
    15    30    31   ar
    16    31    32   ar
    17    32    33   ar
    18    33    34   ar
    19     9    10    1
    20    10    11    1
    21    15    17    1
    22    17    18   ar
    23    18    19   ar
    24    19    20   ar
    25    20    23    1
    26    23    24   ar
    27    24    25   ar
    28    25    26   ar
    29    26    27   ar
    30    27    28   ar
    31    20    21   ar
    32    21    22   ar
    33     6     1   ar
    34    34    30   ar
    35    22    17   ar
    36    11     4    1
    37    28    23   ar
    38    12    13    1
    39    34    35    1
@<TRIPOS>MOLECULE
*****
 35 39 0 0 0
SMALL
GASTEIGER

@<TRIPOS>ATOM
      1 C         -16.1165    2.1615   19.8201 C.ar    1  UNL1        0.0644
      2 C         -17.3028    1.4585   20.4103 C.ar    1  UNL1        0.0155
      3 C         -17.9390    1.9837   21.6632 C.ar    1  UNL1       -0.0032
      4 C         -17.3888    3.2119   22.3257 C.ar    1  UNL1       -0.0246
      5 C         -16.2026    3.9148   21.7354 C.ar    1  UNL1       -0.0234
      6 C         -15.5664    3.3897   20.4826 C.ar    1  UNL1        0.0113
      7 C         -15.5016    5.1446   22.2319 C.3     1  UNL1        0.0434
      8 C         -15.8141    5.9751   23.4414 C.3     1  UNL1        0.0771
      9 N         -16.9044    5.7809   24.4529 N.3     1  UNL1       -0.2671
     10 C         -17.9517    4.7083   24.5050 C.3     1  UNL1        0.0771
     11 C         -18.1673    3.5650   23.5583 C.3     1  UNL1        0.0434
     12 N         -15.4804    1.6363   18.5673 N.pl3   1  UNL1       -0.2150
     13 H         -15.5901    2.1225   17.7183 H       1  UNL1        0.1737
     14 O         -13.4360    1.1664   18.8833 O.2     1  UNL1       -0.1499
     15 S         -14.6771    0.3701   18.6081 S.O2    1  UNL1        0.0736
     16 O         -15.9182   -0.4261   18.3328 O.2     1  UNL1       -0.1499
     17 C         -13.8738   -0.8960   18.6488 C.ar    1  UNL1        0.1252
     18 C         -14.5683   -2.2221   18.7453 C.ar    1  UNL1        0.0202
     19 C         -13.7649   -3.4881   18.7861 C.ar    1  UNL1        0.0014
     20 C         -12.2672   -3.4282   18.7304 C.ar    1  UNL1        0.0001
     21 C         -11.5727   -2.1022   18.6339 C.ar    1  UNL1        0.0014
     22 C         -12.3760   -0.8361   18.5931 C.ar    1  UNL1        0.0202
     23 C         -11.4638   -4.6943   18.7712 C.ar    1  UNL1        0.0000
     24 C         -12.1404   -6.0184   18.5737 C.ar    1  UNL1        0.0000
     25 C         -11.3371   -7.2846   18.6144 C.ar    1  UNL1        0.0000
     26 C          -9.8572   -7.2266   18.8527 C.ar    1  UNL1        0.0000
     27 C          -9.1807   -5.9024   19.0502 C.ar    1  UNL1        0.0000
     28 C          -9.9840   -4.6364   19.0094 C.ar    1  UNL1        0.0000
     29 C         -16.9541    6.7932   25.5587 C.3     1  UNL1        0.1180
     30 C         -16.9050    6.3444   26.9892 C.ar    1  UNL1        0.0693
     31 C         -17.7794    6.8446   28.1007 C.ar    1  UNL1        0.0379
     32 C         -17.3877    6.1259   29.3577 C.ar    1  UNL1        0.1211
     33 N         -16.2713    5.1816   29.0232 N.ar    1  UNL1       -0.1713
     34 N         -15.9730    5.3166   27.5593 N.ar    1  UNL1       -0.2784
     35 H         -15.2861    4.8181   27.0603 H       1  UNL1        0.1886
@<TRIPOS>BOND
     1    14    15    2
     2    15    16    2
     3    15    12    1
     4    12     1    1
     5     1     2   ar
     6     2     3   ar
     7     3     4   ar
     8     4     5   ar
     9     5     6   ar
    10     5     7    1
    11     7     8    1
    12     8     9    1
    13     9    29    1
    14    29    30    1
    15    30    31   ar
    16    31    32   ar
    17    32    33   ar
    18    33    34   ar
    19     9    10    1
    20    10    11    1
    21    15    17    1
    22    17    18   ar
    23    18    19   ar
    24    19    20   ar
    25    20    23    1
    26    23    24   ar
    27    24    25   ar
    28    25    26   ar
    29    26    27   ar
    30    27    28   ar
    31    20    21   ar
    32    21    22   ar
    33     6     1   ar
    34    34    30   ar
    35    22    17   ar
    36    11     4    1
    37    28    23   ar
    38    12    13    1
    39    34    35    1
@<TRIPOS>MOLECULE
*****
 35 39 0 0 0
SMALL
GASTEIGER

@<TRIPOS>ATOM
      1 C           0.8713    2.4186   27.5555 C.ar    1  UNL1        0.0644
      2 C           0.5838    3.4927   28.5622 C.ar    1  UNL1        0.0155
      3 C           1.0226    3.3227   29.9865 C.ar    1  UNL1       -0.0032
      4 C           1.7490    2.0784   30.4040 C.ar    1  UNL1       -0.0246
      5 C           2.0365    1.0044   29.3973 C.ar    1  UNL1       -0.0234
      6 C           1.5977    1.1744   27.9730 C.ar    1  UNL1        0.0113
      7 C           2.7418   -0.3038   29.6009 C.3     1  UNL1        0.0434
      8 C           3.3337   -0.8608   30.8617 C.3     1  UNL1        0.0771
      9 N           3.3665   -0.2473   32.2300 N.3     1  UNL1       -0.2671
     10 C           2.8156    1.0747   32.6757 C.3     1  UNL1        0.0771
     11 C           2.0957    2.1098   31.8630 C.3     1  UNL1        0.0434
     12 N           0.4324    2.5887   26.1313 N.pl3   1  UNL1       -0.2150
     13 H          -0.2565    3.2545   25.9046 H       1  UNL1        0.1737
     14 O          -0.1872    0.8868   25.0269 O.2     1  UNL1       -0.1499
     15 S           1.0433    1.7443   25.0523 S.O2    1  UNL1        0.0736
     16 O           2.2737    2.6019   25.0778 O.2     1  UNL1       -0.1499
     17 C           1.6541    0.9000   23.9734 C.ar    1  UNL1        0.1252
     18 C           1.1424    0.9952   22.5666 C.ar    1  UNL1        0.0202
     19 C           1.7533    0.1508   21.4878 C.ar    1  UNL1        0.0014
     20 C           2.8757   -0.7887   21.8156 C.ar    1  UNL1        0.0001
     21 C           3.3873   -0.8838   23.2225 C.ar    1  UNL1        0.0014
     22 C           2.7765   -0.0395   24.3014 C.ar    1  UNL1        0.0202
     23 C           3.4866   -1.6330   20.7368 C.ar    1  UNL1        0.0000
     24 C           3.5450   -1.1224   19.3276 C.ar    1  UNL1        0.0000
     25 C           4.1559   -1.9667   18.2487 C.ar    1  UNL1        0.0000
     26 C           4.7083   -3.3216   18.5790 C.ar    1  UNL1        0.0000
     27 C           4.6498   -3.8322   19.9883 C.ar    1  UNL1        0.0000
     28 C           4.0390   -2.9879   21.0670 C.ar    1  UNL1        0.0000
     29 C           4.0393   -1.0639   33.2933 C.3     1  UNL1        0.1180
     30 C           5.1960   -1.9506   32.9387 C.ar    1  UNL1        0.0693
     31 C           6.5912   -1.4972   32.6260 C.ar    1  UNL1        0.0379
     32 C           7.4180   -2.7129   32.3285 C.ar    1  UNL1        0.1211
     33 N           6.5338   -3.9177   32.4573 N.ar    1  UNL1       -0.1713
     34 N           5.1605   -3.4466   32.8344 N.ar    1  UNL1       -0.2784
     35 H           4.3739   -4.0188   32.9867 H       1  UNL1        0.1886
@<TRIPOS>BOND
     1    14    15    2
     2    15    16    2
     3    15    12    1
     4    12     1    1
     5     1     2   ar
     6     2     3   ar
     7     3     4   ar
     8     4     5   ar
     9     5     6   ar
    10     5     7    1
    11     7     8    1
    12     8     9    1
    13     9    29    1
    14    29    30    1
    15    30    31   ar
    16    31    32   ar
    17    32    33   ar
    18    33    34   ar
    19     9    10    1
    20    10    11    1
    21    15    17    1
    22    17    18   ar
    23    18    19   ar
    24    19    20   ar
    25    20    23    1
    26    23    24   ar
    27    24    25   ar
    28    25    26   ar
    29    26    27   ar
    30    27    28   ar
    31    20    21   ar
    32    21    22   ar
    33     6     1   ar
    34    34    30   ar
    35    22    17   ar
    36    11     4    1
    37    28    23   ar
    38    12    13    1
    39    34    35    1
@<TRIPOS>MOLECULE
*****
 35 39 0 0 0
SMALL
GASTEIGER

@<TRIPOS>ATOM
      1 C          -0.2744    1.9694   25.2885 C.ar    1  UNL1        0.0644
      2 C          -0.8026    2.8708   24.2121 C.ar    1  UNL1        0.0155
      3 C          -0.2547    2.7763   22.8189 C.ar    1  UNL1       -0.0032
      4 C           0.8214    1.7804   22.5021 C.ar    1  UNL1       -0.0246
      5 C           1.3495    0.8791   23.5784 C.ar    1  UNL1       -0.0234
      6 C           0.8017    0.9736   24.9716 C.ar    1  UNL1        0.0113
      7 C           2.4120   -0.1751   23.4777 C.3     1  UNL1        0.0434
      8 C           3.2085   -0.5882   22.2756 C.3     1  UNL1        0.0771
      9 N           3.1394   -0.0492   20.8776 N.3     1  UNL1       -0.2671
     10 C           2.2567    1.0360   20.3361 C.3     1  UNL1        0.0771
     11 C           1.2250    1.8503   21.0591 C.3     1  UNL1        0.0434
     12 N          -0.8222    2.0639   26.6816 N.pl3   1  UNL1       -0.2150
     13 H          -1.7383    2.3930   26.8290 H       1  UNL1        0.1737
     14 O           0.7892    2.9439   27.7441 O.2     1  UNL1       -0.1499
     15 S           0.0257    1.6571   27.8501 S.O2    1  UNL1        0.0736
     16 O          -0.7378    0.3703   27.9562 O.2     1  UNL1       -0.1499
     17 C           0.8737    1.2503   29.0187 C.ar    1  UNL1        0.1252
     18 C           1.5104   -0.1076   29.0467 C.ar    1  UNL1        0.0202
     19 C           2.3583   -0.5143   30.2152 C.ar    1  UNL1        0.0014
     20 C           2.5696    0.4367   31.3558 C.ar    1  UNL1        0.0001
     21 C           1.9330    1.7946   31.3278 C.ar    1  UNL1        0.0014
     22 C           1.0850    2.2014   30.1592 C.ar    1  UNL1        0.0202
     23 C           3.4176    0.0300   32.5243 C.ar    1  UNL1        0.0000
     24 C           3.5475    0.9403   33.7095 C.ar    1  UNL1        0.0000
     25 C           4.3954    0.5337   34.8781 C.ar    1  UNL1        0.0000
     26 C           5.1134   -0.7833   34.8616 C.ar    1  UNL1        0.0000
     27 C           4.9834   -1.6935   33.6764 C.ar    1  UNL1        0.0000
     28 C           4.1356   -1.2869   32.5079 C.ar    1  UNL1        0.0000
     29 C           4.0769   -0.6787   19.8903 C.3     1  UNL1        0.1180
     30 C           4.3255   -2.1575   19.9296 C.ar    1  UNL1        0.0693
     31 C           3.4136   -3.2195   19.3906 C.ar    1  UNL1        0.0379
     32 C           4.0542   -4.5522   19.6427 C.ar    1  UNL1        0.1211
     33 N           5.3620   -4.3139   20.3375 N.ar    1  UNL1       -0.1713
     34 N           5.5297   -2.8339   20.5149 N.ar    1  UNL1       -0.2784
     35 H           6.2957   -2.3852   20.9406 H       1  UNL1        0.1886
@<TRIPOS>BOND
     1    14    15    2
     2    15    16    2
     3    15    12    1
     4    12     1    1
     5     1     2   ar
     6     2     3   ar
     7     3     4   ar
     8     4     5   ar
     9     5     6   ar
    10     5     7    1
    11     7     8    1
    12     8     9    1
    13     9    29    1
    14    29    30    1
    15    30    31   ar
    16    31    32   ar
    17    32    33   ar
    18    33    34   ar
    19     9    10    1
    20    10    11    1
    21    15    17    1
    22    17    18   ar
    23    18    19   ar
    24    19    20   ar
    25    20    23    1
    26    23    24   ar
    27    24    25   ar
    28    25    26   ar
    29    26    27   ar
    30    27    28   ar
    31    20    21   ar
    32    21    22   ar
    33     6     1   ar
    34    34    30   ar
    35    22    17   ar
    36    11     4    1
    37    28    23   ar
    38    12    13    1
    39    34    35    1
