@<TRIPOS>MOLECULE
*****
 25 27 0 0 0
SMALL
GASTEIGER

@<TRIPOS>ATOM
      1 N          -7.7965  -20.3291   22.4597 N.pl3   1  UNL1       -0.2150
      2 H          -7.8692  -21.1729   22.9616 H       1  UNL1        0.1737
      3 C          -3.8317  -19.0633   20.7486 C.ar    1  UNL1        0.0562
      4 C          -4.4347  -18.2986   21.8895 C.ar    1  UNL1        0.0060
      5 C          -5.7562  -18.7205   22.4598 C.ar    1  UNL1        0.0160
      6 C          -6.4749  -19.9072   21.8893 C.ar    1  UNL1        0.0648
      7 C          -5.8719  -20.6718   20.7484 C.ar    1  UNL1        0.0160
      8 C          -4.5503  -20.2499   20.1781 C.ar    1  UNL1        0.0060
      9 C           1.1881  -17.4752   20.3480 C.3     1  UNL1        0.0773
     10 C          -0.2027  -17.9114   19.9941 C.ar    1  UNL1        0.1812
     11 N          -0.7499  -18.0728   18.6068 N.ar    1  UNL1       -0.0602
     12 O          -2.1759  -18.5239   18.7206 O.2     1  UNL1       -0.3328
     13 C          -2.5100  -18.6413   20.1782 C.ar    1  UNL1        0.2597
     14 N          -1.2905  -18.2628   20.9653 N.ar    1  UNL1       -0.1911
     15 S          -9.0073  -19.4653   22.2655 S.O2    1  UNL1        0.0736
     16 O          -8.8037  -19.5139   20.7802 O.2     1  UNL1       -0.1499
     17 O          -9.2110  -19.4167   23.7507 O.2     1  UNL1       -0.1499
     18 C         -10.2182  -18.6015   22.0712 C.ar    1  UNL1        0.1268
     19 C         -11.3632  -18.6871   23.0365 C.ar    1  UNL1        0.0316
     20 C         -12.5740  -17.8234   22.8424 C.ar    1  UNL1        0.0599
     21 CL        -13.7189  -17.9089   23.8077 Cl      1  UNL1       -0.0822
     22 C         -12.6399  -16.8741   21.6829 C.ar    1  UNL1        0.0229
     23 C         -11.4950  -16.7885   20.7176 C.ar    1  UNL1        0.0599
     24 CL        -11.5610  -15.8391   19.5580 Cl      1  UNL1       -0.0822
     25 C         -10.2842  -17.6522   20.9117 C.ar    1  UNL1        0.0316
@<TRIPOS>BOND
     1     9    10    1
     2    10    11   ar
     3    11    12   ar
     4    12    13   ar
     5    13     3    1
     6     3     4   ar
     7     4     5   ar
     8     5     6   ar
     9     6     1    1
    10     1    15    1
    11    15    16    2
    12    15    17    2
    13    15    18    1
    14    18    19   ar
    15    19    20   ar
    16    20    21    1
    17    20    22   ar
    18    22    23   ar
    19    23    24    1
    20    23    25   ar
    21     6     7   ar
    22     7     8   ar
    23    13    14   ar
    24    14    10   ar
    25     8     3   ar
    26    25    18   ar
    27     1     2    1
@<TRIPOS>MOLECULE
*****
 25 27 0 0 0
SMALL
GASTEIGER

@<TRIPOS>ATOM
      1 N          -7.8229  -20.3744   22.3991 N.pl3   1  UNL1       -0.2150
      2 H          -7.9008  -21.2264   22.8863 H       1  UNL1        0.1737
      3 C          -3.8482  -19.0986   20.7187 C.ar    1  UNL1        0.0562
      4 C          -4.5688  -20.2748   20.1295 C.ar    1  UNL1        0.0060
      5 C          -5.8937  -20.7000   20.6896 C.ar    1  UNL1        0.0160
      6 C          -6.4980  -19.9491   21.8389 C.ar    1  UNL1        0.0648
      7 C          -5.7773  -18.7729   22.4282 C.ar    1  UNL1        0.0160
      8 C          -4.4524  -18.3477   21.8680 C.ar    1  UNL1        0.0060
      9 C           1.1723  -17.5032   20.3570 C.3     1  UNL1        0.0773
     10 C          -0.2156  -17.9400   19.9923 C.ar    1  UNL1        0.1812
     11 N          -0.7532  -18.0976   18.6008 N.ar    1  UNL1       -0.0602
     12 O          -2.1794  -18.5508   18.7036 O.2     1  UNL1       -0.3328
     13 C          -2.5232  -18.6733   20.1586 C.ar    1  UNL1        0.2597
     14 N          -1.3095  -18.2957   20.9550 N.ar    1  UNL1       -0.1911
     15 S          -9.0292  -19.5017   22.2168 S.O2    1  UNL1        0.0736
     16 O          -9.2516  -19.4993   23.7002 O.2     1  UNL1       -0.1499
     17 O          -8.8068  -19.5041   20.7335 O.2     1  UNL1       -0.1499
     18 C         -10.2355  -18.6290   22.0346 C.ar    1  UNL1        0.1268
     19 C         -10.2989  -17.6677   20.8848 C.ar    1  UNL1        0.0316
     20 C         -11.5052  -16.7950   20.7025 C.ar    1  UNL1        0.0599
     21 CL        -11.5685  -15.8336   19.5528 Cl      1  UNL1       -0.0822
     22 C         -12.6480  -16.8836   21.6699 C.ar    1  UNL1        0.0229
     23 C         -12.5847  -17.8449   22.8197 C.ar    1  UNL1        0.0599
     24 CL        -13.7276  -17.9334   23.7871 Cl      1  UNL1       -0.0822
     25 C         -11.3784  -18.7176   23.0020 C.ar    1  UNL1        0.0316
@<TRIPOS>BOND
     1     9    10    1
     2    10    11   ar
     3    11    12   ar
     4    12    13   ar
     5    13     3    1
     6     3     4   ar
     7     4     5   ar
     8     5     6   ar
     9     6     1    1
    10     1    15    1
    11    15    16    2
    12    15    17    2
    13    15    18    1
    14    18    19   ar
    15    19    20   ar
    16    20    21    1
    17    20    22   ar
    18    22    23   ar
    19    23    24    1
    20    23    25   ar
    21     6     7   ar
    22     7     8   ar
    23    13    14   ar
    24    14    10   ar
    25     8     3   ar
    26    25    18   ar
    27     1     2    1
@<TRIPOS>MOLECULE
*****
 25 27 0 0 0
SMALL
GASTEIGER

@<TRIPOS>ATOM
      1 N         -12.1651   -4.5356   19.3616 N.pl3   1  UNL1       -0.2150
      2 H         -11.3090   -4.8481   19.7340 H       1  UNL1        0.1737
      3 C         -12.6249   -0.2505   18.0669 C.ar    1  UNL1        0.0562
      4 C         -13.8127   -1.0115   18.5767 C.ar    1  UNL1        0.0060
      5 C         -13.6594   -2.4398   19.0083 C.ar    1  UNL1        0.0160
      6 C         -12.3183   -3.1071   18.9300 C.ar    1  UNL1        0.0648
      7 C         -11.1305   -2.3461   18.4202 C.ar    1  UNL1        0.0160
      8 C         -11.2838   -0.9178   17.9886 C.ar    1  UNL1        0.0060
      9 C         -14.7610    4.3758   16.6828 C.3     1  UNL1        0.0773
     10 C         -13.7600    3.3044   16.9991 C.ar    1  UNL1        0.1812
     11 N         -12.2679    3.4476   16.9432 N.ar    1  UNL1       -0.0602
     12 O         -11.6611    2.1334   17.3364 O.2     1  UNL1       -0.3328
     13 C         -12.7782    1.1780   17.6353 C.ar    1  UNL1        0.2597
     14 N         -14.0754    1.9017   17.4268 N.ar    1  UNL1       -0.1911
     15 S         -13.3161   -5.4877   19.2259 S.O2    1  UNL1        0.0736
     16 O         -13.6031   -5.3498   20.6917 O.2     1  UNL1       -0.1499
     17 O         -13.0292   -5.6256   17.7601 O.2     1  UNL1       -0.1499
     18 C         -14.4673   -6.4399   19.0901 C.ar    1  UNL1        0.1268
     19 C         -14.2337   -7.8309   18.5798 C.ar    1  UNL1        0.0316
     20 C         -15.3847   -8.7831   18.4440 C.ar    1  UNL1        0.0599
     21 CL        -15.1511  -10.1742   17.9338 Cl      1  UNL1       -0.0822
     22 C         -16.7693   -8.3442   18.8184 C.ar    1  UNL1        0.0229
     23 C         -17.0029   -6.9531   19.3286 C.ar    1  UNL1        0.0599
     24 CL        -18.3875   -6.5142   19.7031 Cl      1  UNL1       -0.0822
     25 C         -15.8518   -6.0009   19.4645 C.ar    1  UNL1        0.0316
@<TRIPOS>BOND
     1     9    10    1
     2    10    11   ar
     3    11    12   ar
     4    12    13   ar
     5    13     3    1
     6     3     4   ar
     7     4     5   ar
     8     5     6   ar
     9     6     1    1
    10     1    15    1
    11    15    16    2
    12    15    17    2
    13    15    18    1
    14    18    19   ar
    15    19    20   ar
    16    20    21    1
    17    20    22   ar
    18    22    23   ar
    19    23    24    1
    20    23    25   ar
    21     6     7   ar
    22     7     8   ar
    23    13    14   ar
    24    14    10   ar
    25     8     3   ar
    26    25    18   ar
    27     1     2    1
@<TRIPOS>MOLECULE
*****
 25 27 0 0 0
SMALL
GASTEIGER

@<TRIPOS>ATOM
      1 N          -0.3996    3.1445   19.8024 N.pl3   1  UNL1       -0.2150
      2 H          -0.5784    3.8157   19.1047 H       1  UNL1        0.1737
      3 C           2.4674   -0.2292   18.9973 C.ar    1  UNL1        0.0562
      4 C           1.3126   -0.4334   19.9325 C.ar    1  UNL1        0.0060
      5 C           0.3570    0.6912   20.2009 C.ar    1  UNL1        0.0160
      6 C           0.5561    2.0199   19.5340 C.ar    1  UNL1        0.0648
      7 C           1.7109    2.2241   18.5988 C.ar    1  UNL1        0.0160
      8 C           2.6665    1.0996   18.3304 C.ar    1  UNL1        0.0060
      9 C           4.7168   -5.0062   18.9560 C.3     1  UNL1        0.0773
     10 C           4.4570   -3.5495   18.7099 C.ar    1  UNL1        0.1812
     11 N           5.3306   -2.6190   17.9218 N.ar    1  UNL1       -0.0602
     12 O           4.6916   -1.2620   17.9335 O.2     1  UNL1       -0.3328
     13 C           3.4231   -1.3538   18.7289 C.ar    1  UNL1        0.2597
     14 N           3.2782   -2.7675   19.2087 N.ar    1  UNL1       -0.1911
     15 S          -1.0829    3.2465   21.1338 S.O2    1  UNL1        0.0736
     16 O           0.2038    3.6965   21.7597 O.2     1  UNL1       -0.1499
     17 O          -2.3696    2.7965   20.5079 O.2     1  UNL1       -0.1499
     18 C          -1.7663    3.3484   22.4653 C.ar    1  UNL1        0.1268
     19 C          -3.2468    3.5798   22.5326 C.ar    1  UNL1        0.0316
     20 C          -3.9302    3.6817   23.8639 C.ar    1  UNL1        0.0599
     21 CL         -5.4107    3.9131   23.9313 Cl      1  UNL1       -0.0822
     22 C          -3.1331    3.5522   25.1280 C.ar    1  UNL1        0.0229
     23 C          -1.6525    3.3209   25.0606 C.ar    1  UNL1        0.0599
     24 CL         -0.8554    3.1914   26.3247 Cl      1  UNL1       -0.0822
     25 C          -0.9692    3.2189   23.7293 C.ar    1  UNL1        0.0316
@<TRIPOS>BOND
     1     9    10    1
     2    10    11   ar
     3    11    12   ar
     4    12    13   ar
     5    13     3    1
     6     3     4   ar
     7     4     5   ar
     8     5     6   ar
     9     6     1    1
    10     1    15    1
    11    15    16    2
    12    15    17    2
    13    15    18    1
    14    18    19   ar
    15    19    20   ar
    16    20    21    1
    17    20    22   ar
    18    22    23   ar
    19    23    24    1
    20    23    25   ar
    21     6     7   ar
    22     7     8   ar
    23    13    14   ar
    24    14    10   ar
    25     8     3   ar
    26    25    18   ar
    27     1     2    1
@<TRIPOS>MOLECULE
*****
 25 27 0 0 0
SMALL
GASTEIGER

@<TRIPOS>ATOM
      1 N          -0.2069    3.2173   19.8305 N.pl3   1  UNL1       -0.2150
      2 H          -0.3402    3.9217   19.1557 H       1  UNL1        0.1737
      3 C           2.5748   -0.2161   18.9796 C.ar    1  UNL1        0.0562
      4 C           2.8213    1.1227   18.3497 C.ar    1  UNL1        0.0060
      5 C           1.8941    2.2672   18.6334 C.ar    1  UNL1        0.0160
      6 C           0.7204    2.0728   19.5469 C.ar    1  UNL1        0.0648
      7 C           0.4738    0.7340   20.1767 C.ar    1  UNL1        0.0160
      8 C           1.4010   -0.4104   19.8931 C.ar    1  UNL1        0.0060
      9 C           4.7198   -5.0404   18.8998 C.3     1  UNL1        0.0773
     10 C           4.4880   -3.5780   18.6593 C.ar    1  UNL1        0.1812
     11 N           5.3699   -2.6654   17.8596 N.ar    1  UNL1       -0.0602
     12 O           4.7605   -1.2949   17.8823 O.2     1  UNL1       -0.3328
     13 C           3.5020   -1.3606   18.6959 C.ar    1  UNL1        0.2597
     14 N           3.3336   -2.7716   19.1761 N.ar    1  UNL1       -0.1911
     15 S          -0.9310    3.2886   21.1422 S.O2    1  UNL1        0.0736
     16 O           0.3144    3.8022   21.8018 O.2     1  UNL1       -0.1499
     17 O          -2.1764    2.7750   20.4826 O.2     1  UNL1       -0.1499
     18 C          -1.6552    3.3598   22.4539 C.ar    1  UNL1        0.1268
     19 C          -0.8932    3.2289   23.7393 C.ar    1  UNL1        0.0316
     20 C          -1.6173    3.3002   25.0510 C.ar    1  UNL1        0.0599
     21 CL         -0.8553    3.1693   26.3364 Cl      1  UNL1       -0.0822
     22 C          -3.1033    3.5023   25.0773 C.ar    1  UNL1        0.0229
     23 C          -3.8653    3.6333   23.7919 C.ar    1  UNL1        0.0599
     24 CL         -5.3514    3.8354   23.8182 Cl      1  UNL1       -0.0822
     25 C          -3.1412    3.5620   22.4802 C.ar    1  UNL1        0.0316
@<TRIPOS>BOND
     1     9    10    1
     2    10    11   ar
     3    11    12   ar
     4    12    13   ar
     5    13     3    1
     6     3     4   ar
     7     4     5   ar
     8     5     6   ar
     9     6     1    1
    10     1    15    1
    11    15    16    2
    12    15    17    2
    13    15    18    1
    14    18    19   ar
    15    19    20   ar
    16    20    21    1
    17    20    22   ar
    18    22    23   ar
    19    23    24    1
    20    23    25   ar
    21     6     7   ar
    22     7     8   ar
    23    13    14   ar
    24    14    10   ar
    25     8     3   ar
    26    25    18   ar
    27     1     2    1
@<TRIPOS>MOLECULE
*****
 25 27 0 0 0
SMALL
GASTEIGER

@<TRIPOS>ATOM
      1 N           0.6800    3.8139   19.3658 N.pl3   1  UNL1       -0.2150
      2 H           1.1375    4.6856   19.3743 H       1  UNL1        0.1737
      3 C           3.0398    0.0406   18.6999 C.ar    1  UNL1        0.0562
      4 C           1.6779   -0.0270   19.3249 C.ar    1  UNL1        0.0060
      5 C           0.8913    1.2307   19.5468 C.ar    1  UNL1        0.0160
      6 C           1.4666    2.5561   19.1438 C.ar    1  UNL1        0.0648
      7 C           2.8285    2.6237   18.5188 C.ar    1  UNL1        0.0160
      8 C           3.6151    1.3660   18.2969 C.ar    1  UNL1        0.0060
      9 C           4.6450   -4.9847   18.9269 C.3     1  UNL1        0.0773
     10 C           4.5643   -3.5270   18.5823 C.ar    1  UNL1        0.1812
     11 N           5.5098   -2.7782   17.6904 N.ar    1  UNL1       -0.0602
     12 O           5.0538   -1.3507   17.6259 O.2     1  UNL1       -0.3328
     13 C           3.8265   -1.2172   18.4779 C.ar    1  UNL1        0.2597
     14 N           3.5240   -2.5622   19.0690 N.ar    1  UNL1       -0.1911
     15 S          -0.8037    3.7435   19.5748 S.O2    1  UNL1        0.0736
     16 O          -1.0055    3.6040   18.0950 O.2     1  UNL1       -0.1499
     17 O          -0.6019    3.8829   21.0545 O.2     1  UNL1       -0.1499
     18 C          -2.2875    3.6731   19.7838 C.ar    1  UNL1        0.1268
     19 C          -2.8387    3.3172   21.1327 C.ar    1  UNL1        0.0316
     20 C          -4.3224    3.2468   21.3418 C.ar    1  UNL1        0.0599
     21 CL         -4.8737    2.8909   22.6907 Cl      1  UNL1       -0.0822
     22 C          -5.2548    3.5323   20.2020 C.ar    1  UNL1        0.0229
     23 C          -4.7035    3.8882   18.8532 C.ar    1  UNL1        0.0599
     24 CL         -5.6360    4.1737   17.7134 Cl      1  UNL1       -0.0822
     25 C          -3.2198    3.9586   18.6441 C.ar    1  UNL1        0.0316
@<TRIPOS>BOND
     1     9    10    1
     2    10    11   ar
     3    11    12   ar
     4    12    13   ar
     5    13     3    1
     6     3     4   ar
     7     4     5   ar
     8     5     6   ar
     9     6     1    1
    10     1    15    1
    11    15    16    2
    12    15    17    2
    13    15    18    1
    14    18    19   ar
    15    19    20   ar
    16    20    21    1
    17    20    22   ar
    18    22    23   ar
    19    23    24    1
    20    23    25   ar
    21     6     7   ar
    22     7     8   ar
    23    13    14   ar
    24    14    10   ar
    25     8     3   ar
    26    25    18   ar
    27     1     2    1
@<TRIPOS>MOLECULE
*****
 25 27 0 0 0
SMALL
GASTEIGER

@<TRIPOS>ATOM
      1 N           0.7330    3.8146   19.3872 N.pl3   1  UNL1       -0.2150
      2 H           1.1980    4.6810   19.4359 H       1  UNL1        0.1737
      3 C           3.0801    0.0368   18.7021 C.ar    1  UNL1        0.0562
      4 C           1.7402   -0.0241   19.3737 C.ar    1  UNL1        0.0060
      5 C           0.9579    1.2352   19.6021 C.ar    1  UNL1        0.0160
      6 C           1.5154    2.5553   19.1588 C.ar    1  UNL1        0.0648
      7 C           2.8553    2.6162   18.4872 C.ar    1  UNL1        0.0160
      8 C           3.6376    1.3569   18.2589 C.ar    1  UNL1        0.0060
      9 C           4.6615   -4.9974   18.8940 C.3     1  UNL1        0.0773
     10 C           4.5894   -3.5364   18.5619 C.ar    1  UNL1        0.1812
     11 N           5.5436   -2.7840   17.6824 N.ar    1  UNL1       -0.0602
     12 O           5.0944   -1.3539   17.6279 O.2     1  UNL1       -0.3328
     13 C           3.8625   -1.2225   18.4737 C.ar    1  UNL1        0.2597
     14 N           3.5504   -2.5713   19.0509 N.ar    1  UNL1       -0.1911
     15 S          -0.7578    3.7538   19.5415 S.O2    1  UNL1        0.0736
     16 O          -0.6109    3.9174   21.0253 O.2     1  UNL1       -0.1499
     17 O          -0.9046    3.5901   18.0578 O.2     1  UNL1       -0.1499
     18 C          -2.2486    3.6929   19.6957 C.ar    1  UNL1        0.1268
     19 C          -3.1367    3.9978   18.5260 C.ar    1  UNL1        0.0316
     20 C          -4.6275    3.9370   18.6801 C.ar    1  UNL1        0.0599
     21 CL         -5.5155    4.2419   17.5103 Cl      1  UNL1       -0.0822
     22 C          -5.2302    3.5713   20.0041 C.ar    1  UNL1        0.0229
     23 C          -4.3421    3.2664   21.1739 C.ar    1  UNL1        0.0599
     24 CL         -4.9449    2.9006   22.4979 Cl      1  UNL1       -0.0822
     25 C          -2.8514    3.3272   21.0197 C.ar    1  UNL1        0.0316
@<TRIPOS>BOND
     1     9    10    1
     2    10    11   ar
     3    11    12   ar
     4    12    13   ar
     5    13     3    1
     6     3     4   ar
     7     4     5   ar
     8     5     6   ar
     9     6     1    1
    10     1    15    1
    11    15    16    2
    12    15    17    2
    13    15    18    1
    14    18    19   ar
    15    19    20   ar
    16    20    21    1
    17    20    22   ar
    18    22    23   ar
    19    23    24    1
    20    23    25   ar
    21     6     7   ar
    22     7     8   ar
    23    13    14   ar
    24    14    10   ar
    25     8     3   ar
    26    25    18   ar
    27     1     2    1
@<TRIPOS>MOLECULE
*****
 25 27 0 0 0
SMALL
GASTEIGER

@<TRIPOS>ATOM
      1 N         -13.6646   -4.1250   20.3978 N.pl3   1  UNL1       -0.2150
      2 H         -13.5532   -3.9321   21.3568 H       1  UNL1        0.1737
      3 C         -16.7361   -7.1239   19.0478 C.ar    1  UNL1        0.0562
      4 C         -15.2771   -7.4679   18.9926 C.ar    1  UNL1        0.0060
      5 C         -14.2533   -6.4683   19.4426 C.ar    1  UNL1        0.0160
      6 C         -14.6885   -5.1246   19.9478 C.ar    1  UNL1        0.0648
      7 C         -16.1474   -4.7806   20.0030 C.ar    1  UNL1        0.0160
      8 C         -17.1712   -5.7802   19.5530 C.ar    1  UNL1        0.0060
      9 C         -19.7700  -10.1737   15.9859 C.3     1  UNL1        0.0773
     10 C         -19.1545   -9.5254   17.1904 C.ar    1  UNL1        0.1812
     11 N         -19.5165   -9.7983   18.6203 N.ar    1  UNL1       -0.0602
     12 O         -18.6546   -8.9319   19.4900 O.2     1  UNL1       -0.3328
     13 C         -17.7599   -8.1236   18.5977 C.ar    1  UNL1        0.2597
     14 N         -18.0689   -8.4904   17.1765 N.ar    1  UNL1       -0.1911
     15 S         -12.8105   -3.4192   19.3867 S.O2    1  UNL1        0.0736
     16 O         -13.8124   -2.3050   19.3181 O.2     1  UNL1       -0.1499
     17 O         -11.8086   -4.5334   19.4553 O.2     1  UNL1       -0.1499
     18 C         -11.9563   -2.7134   18.3756 C.ar    1  UNL1        0.1268
     19 C         -12.2171   -1.2731   18.0480 C.ar    1  UNL1        0.0316
     20 C         -11.3630   -0.5673   17.0370 C.ar    1  UNL1        0.0599
     21 CL        -11.6238    0.8731   16.7094 Cl      1  UNL1       -0.0822
     22 C         -10.2481   -1.3019   16.3534 C.ar    1  UNL1        0.0229
     23 C          -9.9873   -2.7423   16.6810 C.ar    1  UNL1        0.0599
     24 CL         -8.8723   -3.4769   15.9974 Cl      1  UNL1       -0.0822
     25 C         -10.8414   -3.4480   17.6920 C.ar    1  UNL1        0.0316
@<TRIPOS>BOND
     1     9    10    1
     2    10    11   ar
     3    11    12   ar
     4    12    13   ar
     5    13     3    1
     6     3     4   ar
     7     4     5   ar
     8     5     6   ar
     9     6     1    1
    10     1    15    1
    11    15    16    2
    12    15    17    2
    13    15    18    1
    14    18    19   ar
    15    19    20   ar
    16    20    21    1
    17    20    22   ar
    18    22    23   ar
    19    23    24    1
    20    23    25   ar
    21     6     7   ar
    22     7     8   ar
    23    13    14   ar
    24    14    10   ar
    25     8     3   ar
    26    25    18   ar
    27     1     2    1
@<TRIPOS>MOLECULE
*****
 25 27 0 0 0
SMALL
GASTEIGER

@<TRIPOS>ATOM
      1 N           7.9568   -4.0806   20.6074 N.pl3   1  UNL1       -0.2150
      2 H           8.7056   -4.1259   19.9698 H       1  UNL1        0.1737
      3 C           8.2039   -6.2759   24.5278 C.ar    1  UNL1        0.0562
      4 C           8.8365   -6.8604   23.2998 C.ar    1  UNL1        0.0060
      5 C           8.7541   -6.1286   21.9930 C.ar    1  UNL1        0.0160
      6 C           8.0392   -4.8123   21.9143 C.ar    1  UNL1        0.0648
      7 C           7.4065   -4.2278   23.1423 C.ar    1  UNL1        0.0160
      8 C           7.4889   -4.9596   24.4491 C.ar    1  UNL1        0.0060
      9 C           9.3541   -7.5011   29.5335 C.3     1  UNL1        0.0773
     10 C           8.8149   -7.5708   28.1355 C.ar    1  UNL1        0.1812
     11 N           8.0110   -8.6967   27.5557 N.ar    1  UNL1       -0.0602
     12 O           7.6843   -8.3487   26.1337 O.2     1  UNL1       -0.3328
     13 C           8.2863   -7.0077   25.8346 C.ar    1  UNL1        0.2597
     14 N           8.9850   -6.5270   27.0718 N.ar    1  UNL1       -0.1911
     15 S           6.7336   -3.2798   20.2720 S.O2    1  UNL1        0.0736
     16 O           7.5190   -2.0122   20.4339 O.2     1  UNL1       -0.1499
     17 O           5.9482   -4.5474   20.1101 O.2     1  UNL1       -0.1499
     18 C           5.5103   -2.4791   19.9366 C.ar    1  UNL1        0.1268
     19 C           5.2169   -2.1198   18.5101 C.ar    1  UNL1        0.0316
     20 C           3.9937   -1.3191   18.1746 C.ar    1  UNL1        0.0599
     21 CL          3.7004   -0.9599   16.7481 Cl      1  UNL1       -0.0822
     22 C           3.0639   -0.8777   19.2657 C.ar    1  UNL1        0.0229
     23 C           3.3572   -1.2369   20.6922 C.ar    1  UNL1        0.0599
     24 CL          2.4273   -0.7953   21.7833 Cl      1  UNL1       -0.0822
     25 C           4.5805   -2.0376   21.0276 C.ar    1  UNL1        0.0316
@<TRIPOS>BOND
     1     9    10    1
     2    10    11   ar
     3    11    12   ar
     4    12    13   ar
     5    13     3    1
     6     3     4   ar
     7     4     5   ar
     8     5     6   ar
     9     6     1    1
    10     1    15    1
    11    15    16    2
    12    15    17    2
    13    15    18    1
    14    18    19   ar
    15    19    20   ar
    16    20    21    1
    17    20    22   ar
    18    22    23   ar
    19    23    24    1
    20    23    25   ar
    21     6     7   ar
    22     7     8   ar
    23    13    14   ar
    24    14    10   ar
    25     8     3   ar
    26    25    18   ar
    27     1     2    1
