@<TRIPOS>MOLECULE
*****
 27 30 0 0 0
SMALL
GASTEIGER

@<TRIPOS>ATOM
      1 C          -4.2946  -19.2281   20.8681 C.2     1  UNL1        0.1343
      2 C          -5.1050  -18.7494   22.0361 C.2     1  UNL1        0.0249
      3 C          -6.5553  -18.8511   21.6669 C.2     1  UNL1        0.0152
      4 C          -7.8087  -18.5205   22.4217 C.2     1  UNL1       -0.0033
      5 C          -9.1481  -18.7315   21.7803 C.2     1  UNL1       -0.0250
      6 C          -9.2341  -19.2731   20.3841 C.2     1  UNL1       -0.0240
      7 C          -7.9807  -19.6037   19.6293 C.3     1  UNL1        0.0714
      8 C          -6.6413  -19.3927   20.2708 C.2     1  UNL1        0.0635
      9 N          -5.2441  -19.6257   19.7771 N.2     1  UNL1       -0.2447
     10 C         -10.4015  -18.4010   22.5350 C.3     1  UNL1        0.0385
     11 C         -11.4804  -18.1342   23.5424 C.3     1  UNL1        0.0228
     12 C         -12.7200  -17.7334   22.7989 C.3     1  UNL1        0.0689
     13 N         -12.4072  -17.7524   21.3320 N.3     1  UNL1       -0.2972
     14 C         -10.9743  -18.1650   21.1689 C.3     1  UNL1        0.0729
     15 H         -12.5469  -16.8228   20.9362 H       1  UNL1        0.1233
     16 C          -9.5667  -18.7060   23.7433 C.3     1  UNL1        0.0317
     17 C          -9.2040  -17.6096   24.7005 C.ar    1  UNL1       -0.0218
     18 C          -9.0844  -17.9030   26.1667 C.ar    1  UNL1       -0.0043
     19 C          -8.7217  -16.8066   27.1239 C.ar    1  UNL1       -0.0003
     20 C          -8.4785  -15.4167   26.6150 C.ar    1  UNL1       -0.0000
     21 C          -8.5980  -15.1232   25.1488 C.ar    1  UNL1       -0.0003
     22 C          -8.9608  -16.2197   24.1916 C.ar    1  UNL1       -0.0043
     23 C          -0.5467  -18.4466   19.8231 C.3     1  UNL1        0.1153
     24 N          -2.0437  -18.3776   19.8885 N.am    1  UNL1       -0.2713
     25 C          -2.7867  -17.3888   19.0397 C.3     1  UNL1        0.1153
     26 C          -2.7977  -19.2972   20.8027 C.2     1  UNL1        0.2668
     27 O          -2.0546  -20.2858   21.6515 O.2     1  UNL1       -0.2683
@<TRIPOS>BOND
     1    23    24    1
     2    24    25    1
     3    24    26   am
     4    26    27    2
     5    26     1    1
     6     1     2    2
     7     2     3    1
     8     3     4    2
     9     4     5    1
    10     5    10    1
    11    10    16    1
    12    16    17    1
    13    17    18   ar
    14    18    19   ar
    15    19    20   ar
    16    20    21   ar
    17    21    22   ar
    18    10    11    1
    19    11    12    1
    20    12    13    1
    21    13    14    1
    22     5     6    2
    23     6     7    1
    24     7     8    1
    25     8     9    2
    26     9     1    1
    27     8     3    1
    28    14    10    1
    29    22    17   ar
    30    13    15    1
@<TRIPOS>MOLECULE
*****
 27 30 0 0 0
SMALL
GASTEIGER

@<TRIPOS>ATOM
      1 C           2.8833    0.0570   31.3558 C.2     1  UNL1        0.1343
      2 C           2.9962    1.2960   32.1938 C.2     1  UNL1        0.0249
      3 C           3.6716    0.9252   33.4809 C.2     1  UNL1        0.0152
      4 C           4.0486    1.7347   34.6860 C.2     1  UNL1       -0.0033
      5 C           4.7301    1.0760   35.8486 C.2     1  UNL1       -0.0250
      6 C           5.0346   -0.3921   35.8061 C.2     1  UNL1       -0.0240
      7 C           4.6576   -1.2016   34.6009 C.3     1  UNL1        0.0714
      8 C           3.9760   -0.5430   33.4383 C.2     1  UNL1        0.0635
      9 N           3.4889   -1.0795   32.1250 N.2     1  UNL1       -0.2447
     10 C           5.1072    1.8856   37.0539 C.3     1  UNL1        0.0385
     11 C           5.1953    2.8134   38.2292 C.3     1  UNL1        0.0228
     12 C           6.5527    2.6517   38.8466 C.3     1  UNL1        0.0689
     13 N           7.3035    1.6239   38.0529 N.3     1  UNL1       -0.2972
     14 C           6.4101    1.1504   36.9449 C.3     1  UNL1        0.0729
     15 H           7.5557    0.8390   38.6536 H       1  UNL1        0.1233
     16 C           3.7254    2.4515   36.9109 C.3     1  UNL1        0.0317
     17 C           2.6486    2.0543   37.8766 C.ar    1  UNL1       -0.0218
     18 C           1.5706    3.0315   38.2416 C.ar    1  UNL1       -0.0043
     19 C           0.4939    2.6343   39.2073 C.ar    1  UNL1       -0.0003
     20 C           0.4950    1.2598   39.8082 C.ar    1  UNL1       -0.0000
     21 C           1.5729    0.2826   39.4432 C.ar    1  UNL1       -0.0003
     22 C           2.6497    0.6798   38.4774 C.ar    1  UNL1       -0.0043
     23 C           2.5276    0.0050   27.4035 C.3     1  UNL1        0.1153
     24 N           3.1388    0.0921   28.7706 N.am    1  UNL1       -0.2713
     25 C           4.6167    0.3015   28.9195 C.3     1  UNL1        0.1153
     26 C           2.2721   -0.0301   29.9888 C.2     1  UNL1        0.2668
     27 O           0.7943   -0.2395   29.8399 O.2     1  UNL1       -0.2683
@<TRIPOS>BOND
     1    23    24    1
     2    24    25    1
     3    24    26   am
     4    26    27    2
     5    26     1    1
     6     1     2    2
     7     2     3    1
     8     3     4    2
     9     4     5    1
    10     5    10    1
    11    10    16    1
    12    16    17    1
    13    17    18   ar
    14    18    19   ar
    15    19    20   ar
    16    20    21   ar
    17    21    22   ar
    18    10    11    1
    19    11    12    1
    20    12    13    1
    21    13    14    1
    22     5     6    2
    23     6     7    1
    24     7     8    1
    25     8     9    2
    26     9     1    1
    27     8     3    1
    28    14    10    1
    29    22    17   ar
    30    13    15    1
@<TRIPOS>MOLECULE
*****
 27 30 0 0 0
SMALL
GASTEIGER

@<TRIPOS>ATOM
      1 C           0.5440    3.9326   18.1389 C.2     1  UNL1        0.1343
      2 C           0.2528    2.4627   18.2083 C.2     1  UNL1        0.0249
      3 C           1.5461    1.7452   18.4579 C.2     1  UNL1        0.0152
      4 C           1.8717    0.2898   18.6189 C.2     1  UNL1       -0.0033
      5 C           3.2878   -0.1391   18.8648 C.2     1  UNL1       -0.0250
      6 C           4.3784    0.8872   18.9497 C.2     1  UNL1       -0.0240
      7 C           4.0529    2.3425   18.7887 C.3     1  UNL1        0.0714
      8 C           2.6367    2.7715   18.5428 C.2     1  UNL1        0.0635
      9 N           2.0173    4.1234   18.3457 N.2     1  UNL1       -0.2447
     10 C           3.6134   -1.5946   19.0258 C.3     1  UNL1        0.0385
     11 C           3.7200   -3.0403   19.4110 C.3     1  UNL1        0.0228
     12 C           4.7653   -3.6755   18.5429 C.3     1  UNL1        0.0689
     13 N           5.3049   -2.6223   17.6211 N.3     1  UNL1       -0.2972
     14 C           4.5929   -1.3362   17.9195 C.3     1  UNL1        0.0729
     15 H           5.1391   -2.8929   16.6517 H       1  UNL1        0.1233
     16 C           2.5658   -1.5486   20.0983 C.3     1  UNL1        0.0317
     17 C           2.9608   -1.2882   21.5218 C.ar    1  UNL1       -0.0218
     18 C           3.9569   -2.1820   22.1993 C.ar    1  UNL1       -0.0043
     19 C           4.3518   -1.9216   23.6227 C.ar    1  UNL1       -0.0003
     20 C           3.7507   -0.7674   24.3687 C.ar    1  UNL1       -0.0000
     21 C           2.7547    0.1264   23.6912 C.ar    1  UNL1       -0.0003
     22 C           2.3597   -0.1340   22.2677 C.ar    1  UNL1       -0.0043
     23 C          -2.1220    6.7889   18.8345 C.3     1  UNL1        0.1153
     24 N          -1.1164    5.7010   19.0694 N.am    1  UNL1       -0.2713
     25 C          -0.7656    5.2935   20.4698 C.3     1  UNL1        0.1153
     26 C          -0.4616    5.0205   17.9040 C.2     1  UNL1        0.2668
     27 O          -0.8124    5.4280   16.5037 O.2     1  UNL1       -0.2683
@<TRIPOS>BOND
     1    23    24    1
     2    24    25    1
     3    24    26   am
     4    26    27    2
     5    26     1    1
     6     1     2    2
     7     2     3    1
     8     3     4    2
     9     4     5    1
    10     5    10    1
    11    10    16    1
    12    16    17    1
    13    17    18   ar
    14    18    19   ar
    15    19    20   ar
    16    20    21   ar
    17    21    22   ar
    18    10    11    1
    19    11    12    1
    20    12    13    1
    21    13    14    1
    22     5     6    2
    23     6     7    1
    24     7     8    1
    25     8     9    2
    26     9     1    1
    27     8     3    1
    28    14    10    1
    29    22    17   ar
    30    13    15    1
@<TRIPOS>MOLECULE
*****
 27 30 0 0 0
SMALL
GASTEIGER

@<TRIPOS>ATOM
      1 C           6.1316   -3.5887   23.2281 C.2     1  UNL1        0.1343
      2 C           5.3904   -2.2846   23.2205 C.2     1  UNL1        0.0249
      3 C           4.5622   -2.2294   21.9710 C.2     1  UNL1        0.0152
      4 C           3.6289   -1.1869   21.4308 C.2     1  UNL1       -0.0033
      5 C           2.9250   -1.4143   20.1259 C.2     1  UNL1       -0.0250
      6 C           3.1544   -2.6843   19.3613 C.2     1  UNL1       -0.0240
      7 C           4.0877   -3.7268   19.9016 C.3     1  UNL1        0.0714
      8 C           4.7917   -3.4994   21.2064 C.2     1  UNL1        0.0635
      9 N           5.7616   -4.3394   21.9834 N.2     1  UNL1       -0.2447
     10 C           1.9916   -0.3717   19.5855 C.3     1  UNL1        0.0385
     11 C           1.2202    0.6309   18.7796 C.3     1  UNL1        0.0228
     12 C           0.1641    1.2233   19.6648 C.3     1  UNL1        0.0689
     13 N           0.2827    0.5868   21.0178 N.3     1  UNL1       -0.2972
     14 C           1.4122   -0.3990   20.9688 C.3     1  UNL1        0.0729
     15 H          -0.5861    0.1064   21.2518 H       1  UNL1        0.1233
     16 C           2.7661   -0.5624   18.3152 C.3     1  UNL1        0.0317
     17 C           3.9571    0.3024   18.0260 C.ar    1  UNL1       -0.0218
     18 C           5.0172   -0.1738   17.0775 C.ar    1  UNL1       -0.0043
     19 C           6.2082    0.6910   16.7883 C.ar    1  UNL1       -0.0003
     20 C           6.3391    2.0321   17.4475 C.ar    1  UNL1       -0.0000
     21 C           5.2790    2.5083   18.3959 C.ar    1  UNL1       -0.0003
     22 C           4.0880    1.6435   18.6852 C.ar    1  UNL1       -0.0043
     23 C           9.4941   -4.2761   25.2209 C.3     1  UNL1        0.1153
     24 N           8.5488   -3.8054   24.1556 N.am    1  UNL1       -0.2713
     25 C           9.0755   -3.0809   22.9523 C.3     1  UNL1        0.1153
     26 C           7.0769   -4.0593   24.2935 C.2     1  UNL1        0.2668
     27 O           6.5503   -4.7838   25.4967 O.2     1  UNL1       -0.2683
@<TRIPOS>BOND
     1    23    24    1
     2    24    25    1
     3    24    26   am
     4    26    27    2
     5    26     1    1
     6     1     2    2
     7     2     3    1
     8     3     4    2
     9     4     5    1
    10     5    10    1
    11    10    16    1
    12    16    17    1
    13    17    18   ar
    14    18    19   ar
    15    19    20   ar
    16    20    21   ar
    17    21    22   ar
    18    10    11    1
    19    11    12    1
    20    12    13    1
    21    13    14    1
    22     5     6    2
    23     6     7    1
    24     7     8    1
    25     8     9    2
    26     9     1    1
    27     8     3    1
    28    14    10    1
    29    22    17   ar
    30    13    15    1
@<TRIPOS>MOLECULE
*****
 27 30 0 0 0
SMALL
GASTEIGER

@<TRIPOS>ATOM
      1 C           0.3395    3.7433   18.8815 C.2     1  UNL1        0.1343
      2 C           1.6411    3.1667   18.4090 C.2     1  UNL1        0.0249
      3 C           1.7418    1.7628   18.9277 C.2     1  UNL1        0.0152
      4 C           2.8020    0.7120   18.7803 C.2     1  UNL1       -0.0033
      5 C           2.6227   -0.6299   19.4260 C.2     1  UNL1       -0.0250
      6 C           1.3832   -0.9211   20.2191 C.2     1  UNL1       -0.0240
      7 C           0.3230    0.1298   20.3665 C.3     1  UNL1        0.0714
      8 C           0.5024    1.4717   19.7208 C.2     1  UNL1        0.0635
      9 N          -0.3643    2.6957   19.6923 N.2     1  UNL1       -0.2447
     10 C           3.6828   -1.6809   19.2787 C.3     1  UNL1        0.0385
     11 C           4.6636   -2.8063   19.4254 C.3     1  UNL1        0.0228
     12 C           5.4277   -2.9258   18.1402 C.3     1  UNL1        0.0689
     13 N           4.9192   -1.8743   17.1991 N.3     1  UNL1       -0.2972
     14 C           3.8408   -1.1049   17.9027 C.3     1  UNL1        0.0729
     15 H           4.5397   -2.3143   16.3608 H       1  UNL1        0.1233
     16 C           3.3032   -2.0372   20.6854 C.3     1  UNL1        0.0317
     17 C           4.3171   -1.9306   21.7857 C.ar    1  UNL1       -0.0218
     18 C           5.1602   -0.6963   21.9117 C.ar    1  UNL1       -0.0043
     19 C           6.1741   -0.5897   23.0120 C.ar    1  UNL1       -0.0003
     20 C           6.3450   -1.7174   23.9863 C.ar    1  UNL1       -0.0000
     21 C           5.5020   -2.9516   23.8603 C.ar    1  UNL1       -0.0003
     22 C           4.4880   -3.0583   22.7599 C.ar    1  UNL1       -0.0043
     23 C          -1.5601    6.7482   17.1176 C.3     1  UNL1        0.1153
     24 N          -1.0516    5.3667   17.4053 N.am    1  UNL1       -0.2713
     25 C          -1.4255    4.2271   16.5044 C.3     1  UNL1        0.1153
     26 C          -0.1691    5.1248   18.5938 C.2     1  UNL1        0.2668
     27 O           0.2048    6.2643   19.4946 O.2     1  UNL1       -0.2683
@<TRIPOS>BOND
     1    23    24    1
     2    24    25    1
     3    24    26   am
     4    26    27    2
     5    26     1    1
     6     1     2    2
     7     2     3    1
     8     3     4    2
     9     4     5    1
    10     5    10    1
    11    10    16    1
    12    16    17    1
    13    17    18   ar
    14    18    19   ar
    15    19    20   ar
    16    20    21   ar
    17    21    22   ar
    18    10    11    1
    19    11    12    1
    20    12    13    1
    21    13    14    1
    22     5     6    2
    23     6     7    1
    24     7     8    1
    25     8     9    2
    26     9     1    1
    27     8     3    1
    28    14    10    1
    29    22    17   ar
    30    13    15    1
@<TRIPOS>MOLECULE
*****
 27 30 0 0 0
SMALL
GASTEIGER

@<TRIPOS>ATOM
      1 C           5.2879   -0.7854   26.3516 C.2     1  UNL1        0.1343
      2 C           4.2470   -1.5039   25.5453 C.2     1  UNL1        0.0249
      3 C           4.7577   -1.6360   24.1411 C.2     1  UNL1        0.0152
      4 C           4.1628   -2.2539   22.9106 C.2     1  UNL1       -0.0033
      5 C           4.9245   -2.2349   21.6186 C.2     1  UNL1       -0.0250
      6 C           6.2812   -1.5980   21.5570 C.2     1  UNL1       -0.0240
      7 C           6.8761   -0.9801   22.7875 C.3     1  UNL1        0.0714
      8 C           6.1144   -0.9991   24.0795 C.2     1  UNL1        0.0635
      9 N           6.4421   -0.4734   25.4457 N.2     1  UNL1       -0.2447
     10 C           4.3295   -2.8528   20.3880 C.3     1  UNL1        0.0385
     11 C           3.7469   -3.1783   19.0447 C.3     1  UNL1        0.0228
     12 C           3.4525   -4.6488   19.0111 C.3     1  UNL1        0.0689
     13 N           3.8533   -5.2321   20.3336 N.3     1  UNL1       -0.2972
     14 C           4.3953   -4.1221   21.1846 C.3     1  UNL1        0.0729
     15 H           4.5706   -5.9438   20.1950 H       1  UNL1        0.1233
     16 C           4.3882   -1.4544   19.8486 C.3     1  UNL1        0.0317
     17 C           3.1241   -0.6684   19.6633 C.ar    1  UNL1       -0.0218
     18 C           1.9328   -0.9485   20.5308 C.ar    1  UNL1       -0.0043
     19 C           0.6687   -0.1625   20.3455 C.ar    1  UNL1       -0.0003
     20 C           0.5958    0.9035   19.2927 C.ar    1  UNL1       -0.0000
     21 C           1.7870    1.1835   18.4252 C.ar    1  UNL1       -0.0003
     22 C           3.0512    0.3975   18.6105 C.ar    1  UNL1       -0.0043
     23 C           5.5511   -1.0779   30.3006 C.3     1  UNL1        0.1153
     24 N           5.6473   -1.4237   28.8442 N.am    1  UNL1       -0.2713
     25 C           6.1993   -2.7537   28.4240 C.3     1  UNL1        0.1153
     26 C           5.1917   -0.4396   27.8080 C.2     1  UNL1        0.2668
     27 O           4.6397    0.8904   28.2282 O.2     1  UNL1       -0.2683
@<TRIPOS>BOND
     1    23    24    1
     2    24    25    1
     3    24    26   am
     4    26    27    2
     5    26     1    1
     6     1     2    2
     7     2     3    1
     8     3     4    2
     9     4     5    1
    10     5    10    1
    11    10    16    1
    12    16    17    1
    13    17    18   ar
    14    18    19   ar
    15    19    20   ar
    16    20    21   ar
    17    21    22   ar
    18    10    11    1
    19    11    12    1
    20    12    13    1
    21    13    14    1
    22     5     6    2
    23     6     7    1
    24     7     8    1
    25     8     9    2
    26     9     1    1
    27     8     3    1
    28    14    10    1
    29    22    17   ar
    30    13    15    1
@<TRIPOS>MOLECULE
*****
 27 30 0 0 0
SMALL
GASTEIGER

@<TRIPOS>ATOM
      1 C           7.1953   -3.2038   26.4417 C.2     1  UNL1        0.1343
      2 C           7.2490   -3.8694   25.0985 C.2     1  UNL1        0.0249
      3 C           6.1675   -3.2775   24.2442 C.2     1  UNL1        0.0152
      4 C           5.7469   -3.5444   22.8294 C.2     1  UNL1       -0.0033
      5 C           4.6042   -2.7799   22.2297 C.2     1  UNL1       -0.0250
      6 C           3.8820   -1.7484   23.0449 C.2     1  UNL1       -0.0240
      7 C           4.3026   -1.4814   24.4597 C.3     1  UNL1        0.0714
      8 C           5.4453   -2.2460   25.0594 C.2     1  UNL1        0.0635
      9 N           6.0805   -2.2004   26.4175 N.2     1  UNL1       -0.2447
     10 C           4.1836   -3.0469   20.8148 C.3     1  UNL1        0.0385
     11 C           3.8001   -3.0043   19.3653 C.3     1  UNL1        0.0228
     12 C           3.4737   -4.4024   18.9310 C.3     1  UNL1        0.0689
     13 N           3.6555   -5.3091   20.1120 N.3     1  UNL1       -0.2972
     14 C           4.0942   -4.4713   21.2763 C.3     1  UNL1        0.0729
     15 H           4.3656   -6.0110   19.9035 H       1  UNL1        0.1233
     16 C           4.3609   -1.5666   20.6491 C.3     1  UNL1        0.0317
     17 C           3.2848   -0.7509   19.9960 C.ar    1  UNL1       -0.0218
     18 C           3.6343    0.2113   18.8995 C.ar    1  UNL1       -0.0043
     19 C           2.5582    1.0271   18.2463 C.ar    1  UNL1       -0.0003
     20 C           1.1327    0.8807   18.6896 C.ar    1  UNL1       -0.0000
     21 C           0.7832   -0.0815   19.7860 C.ar    1  UNL1       -0.0003
     22 C           1.8593   -0.8973   20.4392 C.ar    1  UNL1       -0.0043
     23 C           8.5943   -4.7869   29.8012 C.3     1  UNL1        0.1153
     24 N           7.6918   -4.4997   28.6381 N.am    1  UNL1       -0.2713
     25 C           6.3830   -5.2211   28.5083 C.3     1  UNL1        0.1153
     26 C           8.0979   -3.4910   27.6048 C.2     1  UNL1        0.2668
     27 O           9.4066   -2.7697   27.7346 O.2     1  UNL1       -0.2683
@<TRIPOS>BOND
     1    23    24    1
     2    24    25    1
     3    24    26   am
     4    26    27    2
     5    26     1    1
     6     1     2    2
     7     2     3    1
     8     3     4    2
     9     4     5    1
    10     5    10    1
    11    10    16    1
    12    16    17    1
    13    17    18   ar
    14    18    19   ar
    15    19    20   ar
    16    20    21   ar
    17    21    22   ar
    18    10    11    1
    19    11    12    1
    20    12    13    1
    21    13    14    1
    22     5     6    2
    23     6     7    1
    24     7     8    1
    25     8     9    2
    26     9     1    1
    27     8     3    1
    28    14    10    1
    29    22    17   ar
    30    13    15    1
