@<TRIPOS>MOLECULE
*****
 25 24 0 0 0
SMALL
GASTEIGER

@<TRIPOS>ATOM
      1 CA         -7.2323  -19.1222   20.4909 C.3     1  UNL1        0.1677
      2 N          -7.3378  -17.8155   21.2197 N.am    1  UNL1       -0.2801
      3 C          -8.0682  -17.7432   22.5280 C.2     1  UNL1        0.3257
      4 O          -8.6930  -18.9777   23.1073 O.2     1  UNL1       -0.2507
      5 N          -8.1737  -16.4364   23.2568 N.am    1  UNL1       -0.1286
      6 H          -6.9277  -17.0052   20.8395 H       1  UNL1        0.1515
      7 N          -7.5489  -15.2019   22.6775 N.2     1  UNL1        0.0534
      8 O          -7.8576  -14.7965   21.2667 O.2     1  UNL1       -0.1256
      9 C          -8.9040  -16.3642   24.5650 C.3     1  UNL1        0.1414
     10 C          -8.3369  -15.5600   25.6971 C.3     1  UNL1        0.1186
     11 CL         -8.2481  -16.1570   27.0704 Cl      1  UNL1       -0.1118
     12 C          -5.9785  -19.9392   20.5937 C.3     1  UNL1        0.1651
     13 O          -5.9704  -21.3632   20.1223 O.3     1  UNL1       -0.3798
     14 H          -6.8485  -21.5962   19.7823 H       1  UNL1        0.2105
     15 C          -4.7328  -19.3322   21.1680 C.3     1  UNL1        0.1685
     16 O          -4.5648  -19.2306   22.6551 O.3     1  UNL1       -0.3794
     17 H          -5.3464  -19.6003   23.0948 H       1  UNL1        0.2105
     18 C          -3.6551  -18.8269   20.2552 C.3     1  UNL1        0.1689
     19 O          -4.0068  -17.9362   19.1005 O.3     1  UNL1       -0.3794
     20 H          -3.2002  -17.7019   18.6154 H       1  UNL1        0.2105
     21 C          -2.2258  -19.2121   20.4969 C.3     1  UNL1        0.1689
     22 O          -1.8895  -20.2206   21.5552 O.3     1  UNL1       -0.3794
     23 H          -2.1101  -19.8593   22.4280 H       1  UNL1        0.2105
     24 O          -9.5541  -18.7149   19.3986 O.2     1  UNL1       -0.2864
     25 C          -8.3805  -19.6120   19.6592 C.2     1  UNL1        0.2293
@<TRIPOS>BOND
     1    24    25    2
     2    25     1    1
     3     1     2    1
     4     2     3   am
     5     3     4    2
     6     3     5   am
     7     5     9    1
     8     9    10    1
     9    10    11    1
    10     5     7    1
    11     7     8    2
    12     1    12    1
    13    12    13    1
    14    12    15    1
    15    15    16    1
    16    15    18    1
    17    18    19    1
    18    18    21    1
    19    21    22    1
    20     2     6    1
    21    13    14    1
    22    16    17    1
    23    19    20    1
    24    22    23    1
@<TRIPOS>MOLECULE
*****
 25 24 0 0 0
SMALL
GASTEIGER

@<TRIPOS>ATOM
      1 CA         -6.2494  -19.1165   20.7188 C.3     1  UNL1        0.1677
      2 N          -7.1691  -17.9575   20.9652 N.am    1  UNL1       -0.2801
      3 C          -8.1484  -18.0053   22.1005 C.2     1  UNL1        0.3257
      4 O          -8.2079  -19.2121   22.9893 O.2     1  UNL1       -0.2507
      5 N          -9.0681  -16.8462   22.3469 N.am    1  UNL1       -0.1286
      6 H          -7.1301  -17.1654   20.3818 H       1  UNL1        0.1515
      7 N          -9.0085  -15.6393   21.4580 N.2     1  UNL1        0.0534
      8 O          -7.7208  -14.8862   21.3012 O.2     1  UNL1       -0.1256
      9 C         -10.0473  -16.8940   23.4821 C.3     1  UNL1        0.1414
     10 C         -11.3292  -17.6590   23.3352 C.3     1  UNL1        0.1186
     11 CL        -11.6589  -18.7619   24.2971 Cl      1  UNL1       -0.1118
     12 C          -4.8320  -19.0662   21.2072 C.3     1  UNL1        0.1651
     13 O          -4.5205  -19.3847   22.6395 O.3     1  UNL1       -0.3798
     14 H          -5.3416  -19.6008   23.1086 H       1  UNL1        0.2105
     15 C          -3.7261  -18.6975   20.2632 C.3     1  UNL1        0.1685
     16 O          -4.0299  -17.9101   19.0231 O.3     1  UNL1       -0.3794
     17 H          -4.9808  -17.7228   18.9839 H       1  UNL1        0.2105
     18 C          -2.3165  -19.1162   20.5593 C.3     1  UNL1        0.1689
     19 O          -2.0557  -20.3106   21.4286 O.3     1  UNL1       -0.3794
     20 H          -1.0989  -20.4423   21.5185 H       1  UNL1        0.2105
     21 C          -1.1676  -18.3406   19.9862 C.3     1  UNL1        0.1689
     22 O          -1.1706  -17.9575   18.5359 O.3     1  UNL1       -0.3794
     23 H          -1.1148  -18.7574   17.9900 H       1  UNL1        0.2105
     24 O          -8.0777  -20.2884   19.2927 O.2     1  UNL1       -0.2864
     25 C          -6.7470  -20.3258   19.9840 C.2     1  UNL1        0.2293
@<TRIPOS>BOND
     1    24    25    2
     2    25     1    1
     3     1     2    1
     4     2     3   am
     5     3     4    2
     6     3     5   am
     7     5     9    1
     8     9    10    1
     9    10    11    1
    10     5     7    1
    11     7     8    2
    12     1    12    1
    13    12    13    1
    14    12    15    1
    15    15    16    1
    16    15    18    1
    17    18    19    1
    18    18    21    1
    19    21    22    1
    20     2     6    1
    21    13    14    1
    22    16    17    1
    23    19    20    1
    24    22    23    1
@<TRIPOS>MOLECULE
*****
 25 24 0 0 0
SMALL
GASTEIGER

@<TRIPOS>ATOM
      1 CA         -5.0518  -19.4361   21.5177 C.3     1  UNL1        0.1677
      2 N          -6.3293  -19.7846   22.2222 N.am    1  UNL1       -0.2801
      3 C          -7.5226  -18.8837   22.1010 C.2     1  UNL1        0.3257
      4 O          -7.4383  -17.6344   21.2752 O.2     1  UNL1       -0.2507
      5 N          -8.8001  -19.2323   22.8055 N.am    1  UNL1       -0.1286
      6 H          -6.3847  -20.6046   22.7642 H       1  UNL1        0.1515
      7 N          -8.8844  -20.4817   23.6313 N.2     1  UNL1        0.0534
      8 O          -9.6180  -20.4680   24.9396 O.2     1  UNL1       -0.1256
      9 C          -9.9934  -18.3315   22.6843 C.3     1  UNL1        0.1414
     10 C         -11.1116  -18.6894   21.7508 C.3     1  UNL1        0.1186
     11 CL        -10.9853  -19.8840   20.8524 Cl      1  UNL1       -0.1118
     12 C          -3.8660  -18.9630   22.3052 C.3     1  UNL1        0.1651
     13 O          -4.0545  -18.4161   23.6891 O.3     1  UNL1       -0.3798
     14 H          -4.9963  -18.4388   23.9202 H       1  UNL1        0.2105
     15 C          -2.4917  -19.0368   21.7087 C.3     1  UNL1        0.1685
     16 O          -1.8362  -20.3694   21.4979 O.3     1  UNL1       -0.3794
     17 H          -2.4317  -21.0738   21.7981 H       1  UNL1        0.2105
     18 C          -1.7729  -17.7780   21.3230 C.3     1  UNL1        0.1689
     19 O          -1.8712  -16.5611   22.1946 O.3     1  UNL1       -0.3794
     20 H          -1.3517  -15.8409   21.8041 H       1  UNL1        0.2105
     21 C          -0.9557  -17.7361   20.0659 C.3     1  UNL1        0.1689
     22 O           0.0534  -18.8114   19.7910 O.3     1  UNL1       -0.3794
     23 H           0.7647  -18.7630   20.4487 H       1  UNL1        0.2105
     24 O          -4.5663  -18.3740   19.1969 O.2     1  UNL1       -0.2864
     25 C          -4.9600  -19.5606   20.0257 C.2     1  UNL1        0.2293
@<TRIPOS>BOND
     1    24    25    2
     2    25     1    1
     3     1     2    1
     4     2     3   am
     5     3     4    2
     6     3     5   am
     7     5     9    1
     8     9    10    1
     9    10    11    1
    10     5     7    1
    11     7     8    2
    12     1    12    1
    13    12    13    1
    14    12    15    1
    15    15    16    1
    16    15    18    1
    17    18    19    1
    18    18    21    1
    19    21    22    1
    20     2     6    1
    21    13    14    1
    22    16    17    1
    23    19    20    1
    24    22    23    1
@<TRIPOS>MOLECULE
*****
 25 24 0 0 0
SMALL
GASTEIGER

@<TRIPOS>ATOM
      1 CA         -5.1825  -18.5910   21.8849 C.3     1  UNL1        0.1677
      2 N          -6.5979  -18.1968   21.5825 N.am    1  UNL1       -0.2801
      3 C          -7.7270  -19.1117   21.9543 C.2     1  UNL1        0.3257
      4 O          -7.4407  -20.4208   22.6283 O.2     1  UNL1       -0.2507
      5 N          -9.1423  -18.7175   21.6519 N.am    1  UNL1       -0.1286
      6 H          -6.7857  -17.3376   21.1401 H       1  UNL1        0.1515
      7 N          -9.4285  -17.4084   20.9778 N.2     1  UNL1        0.0534
      8 O          -8.8757  -16.1353   21.5466 O.2     1  UNL1       -0.1256
      9 C         -10.2714  -19.6324   22.0236 C.3     1  UNL1        0.1414
     10 C         -10.9937  -19.4422   23.3244 C.3     1  UNL1        0.1186
     11 CL        -12.1199  -18.4559   23.4196 Cl      1  UNL1       -0.1118
     12 C          -4.4686  -19.5645   20.9946 C.3     1  UNL1        0.1651
     13 O          -5.2078  -20.7362   20.4194 O.3     1  UNL1       -0.3798
     14 H          -6.1299  -20.7158   20.7197 H       1  UNL1        0.2105
     15 C          -3.0155  -19.3664   20.6795 C.3     1  UNL1        0.1685
     16 O          -1.9897  -20.2981   21.2540 O.3     1  UNL1       -0.3794
     17 H          -2.4305  -20.9663   21.8018 H       1  UNL1        0.2105
     18 C          -2.5882  -18.2367   19.7901 C.3     1  UNL1        0.1689
     19 O          -3.5926  -17.5541   18.9097 O.3     1  UNL1       -0.3794
     20 H          -3.1547  -16.8519   18.4036 H       1  UNL1        0.2105
     21 C          -1.1564  -17.7897   19.7810 C.3     1  UNL1        0.1689
     22 O          -0.0544  -18.8043   19.7013 O.3     1  UNL1       -0.3794
     23 H          -0.0513  -19.3424   20.5084 H       1  UNL1        0.2105
     24 O          -3.7643  -16.6991   22.9616 O.2     1  UNL1       -0.2864
     25 C          -4.4811  -18.0117   23.0775 C.2     1  UNL1        0.2293
@<TRIPOS>BOND
     1    24    25    2
     2    25     1    1
     3     1     2    1
     4     2     3   am
     5     3     4    2
     6     3     5   am
     7     5     9    1
     8     9    10    1
     9    10    11    1
    10     5     7    1
    11     7     8    2
    12     1    12    1
    13    12    13    1
    14    12    15    1
    15    15    16    1
    16    15    18    1
    17    18    19    1
    18    18    21    1
    19    21    22    1
    20     2     6    1
    21    13    14    1
    22    16    17    1
    23    19    20    1
    24    22    23    1
@<TRIPOS>MOLECULE
*****
 25 24 0 0 0
SMALL
GASTEIGER

@<TRIPOS>ATOM
      1 CA         -8.2470  -18.5565   21.1484 C.3     1  UNL1        0.1677
      2 N          -6.9010  -18.4313   20.4982 N.am    1  UNL1       -0.2801
      3 C          -5.7567  -19.2764   20.9742 C.2     1  UNL1        0.3257
      4 O          -5.9584  -20.2466   22.1002 O.2     1  UNL1       -0.2507
      5 N          -4.4107  -19.1513   20.3241 N.am    1  UNL1       -0.1286
      6 H          -6.7686  -17.7945   19.7592 H       1  UNL1        0.1515
      7 N          -4.2090  -18.1810   19.1980 N.2     1  UNL1        0.0534
      8 O          -3.0870  -17.1872   19.2562 O.2     1  UNL1       -0.1256
      9 C          -3.2664  -19.9963   20.8000 C.3     1  UNL1        0.1414
     10 C          -2.2792  -19.4379   21.7816 C.3     1  UNL1        0.1186
     11 CL         -2.6266  -18.2189   22.5837 Cl      1  UNL1       -0.1118
     12 C          -8.5034  -17.9025   22.4737 C.3     1  UNL1        0.1651
     13 O          -9.1697  -18.6738   23.5743 O.3     1  UNL1       -0.3798
     14 H          -9.3673  -19.5720   23.2658 H       1  UNL1        0.2105
     15 C          -8.0937  -16.4771   22.6985 C.3     1  UNL1        0.1685
     16 O          -7.9092  -15.5564   21.5287 O.3     1  UNL1       -0.3794
     17 H          -8.0930  -16.0373   20.7066 H       1  UNL1        0.2105
     18 C          -7.8683  -15.9725   24.0930 C.3     1  UNL1        0.1689
     19 O          -8.8394  -16.3197   25.1823 O.3     1  UNL1       -0.3794
     20 H          -8.5482  -15.9170   26.0154 H       1  UNL1        0.2105
     21 C          -6.6719  -15.1208   24.3982 C.3     1  UNL1        0.1689
     22 O          -5.7055  -14.7665   23.3070 O.3     1  UNL1       -0.3794
     23 H          -5.2582  -15.5698   22.9977 H       1  UNL1        0.2105
     24 O         -10.6767  -19.4762   21.1319 O.2     1  UNL1       -0.2864
     25 C          -9.3365  -19.3356   20.4732 C.2     1  UNL1        0.2293
@<TRIPOS>BOND
     1    24    25    2
     2    25     1    1
     3     1     2    1
     4     2     3   am
     5     3     4    2
     6     3     5   am
     7     5     9    1
     8     9    10    1
     9    10    11    1
    10     5     7    1
    11     7     8    2
    12     1    12    1
    13    12    13    1
    14    12    15    1
    15    15    16    1
    16    15    18    1
    17    18    19    1
    18    18    21    1
    19    21    22    1
    20     2     6    1
    21    13    14    1
    22    16    17    1
    23    19    20    1
    24    22    23    1
@<TRIPOS>MOLECULE
*****
 25 24 0 0 0
SMALL
GASTEIGER

@<TRIPOS>ATOM
      1 CA        -10.0773  -19.1067   22.6195 C.3     1  UNL1        0.1677
      2 N          -8.6989  -18.5169   22.6634 N.am    1  UNL1       -0.2801
      3 C          -8.4535  -17.2386   23.4091 C.2     1  UNL1        0.3257
      4 O          -9.5865  -16.5502   24.1107 O.2     1  UNL1       -0.2507
      5 N          -7.0751  -16.6487   23.4530 N.am    1  UNL1       -0.1286
      6 H          -7.9552  -18.9687   22.2029 H       1  UNL1        0.1515
      7 N          -5.9420  -17.3371   22.7513 N.2     1  UNL1        0.0534
      8 O          -6.1960  -18.0964   21.4828 O.2     1  UNL1       -0.1256
      9 C          -6.8296  -15.3705   24.1985 C.3     1  UNL1        0.1414
     10 C          -6.2880  -15.4099   25.5968 C.3     1  UNL1        0.1186
     11 CL         -7.2255  -15.5355   26.7610 Cl      1  UNL1       -0.1118
     12 C         -10.9498  -18.8857   21.4195 C.3     1  UNL1        0.1651
     13 O         -10.8213  -19.7818   20.2235 O.3     1  UNL1       -0.3798
     14 H         -10.1341  -20.4460   20.3895 H       1  UNL1        0.2105
     15 C         -11.9508  -17.7685   21.4155 C.3     1  UNL1        0.1685
     16 O         -13.3916  -18.0514   21.7224 O.3     1  UNL1       -0.3794
     17 H         -13.5046  -18.9984   21.8994 H       1  UNL1        0.2105
     18 C         -11.5110  -16.3686   21.1046 C.3     1  UNL1        0.1689
     19 O         -11.2187  -15.4091   22.2200 O.3     1  UNL1       -0.3794
     20 H         -10.9490  -14.5544   21.8490 H       1  UNL1        0.2105
     21 C         -11.3636  -15.9280   19.6784 C.3     1  UNL1        0.1689
     22 O         -12.5486  -15.3880   18.9339 O.3     1  UNL1       -0.3794
     23 H         -13.2065  -16.0916   18.8193 H       1  UNL1        0.2105
     24 O          -9.7030  -20.1566   24.9662 O.2     1  UNL1       -0.2864
     25 C         -10.5833  -19.9176   23.7755 C.2     1  UNL1        0.2293
@<TRIPOS>BOND
     1    24    25    2
     2    25     1    1
     3     1     2    1
     4     2     3   am
     5     3     4    2
     6     3     5   am
     7     5     9    1
     8     9    10    1
     9    10    11    1
    10     5     7    1
    11     7     8    2
    12     1    12    1
    13    12    13    1
    14    12    15    1
    15    15    16    1
    16    15    18    1
    17    18    19    1
    18    18    21    1
    19    21    22    1
    20     2     6    1
    21    13    14    1
    22    16    17    1
    23    19    20    1
    24    22    23    1
@<TRIPOS>MOLECULE
*****
 25 24 0 0 0
SMALL
GASTEIGER

@<TRIPOS>ATOM
      1 CA         -7.4931  -18.5764   22.6235 C.3     1  UNL1        0.1677
      2 N          -6.0612  -18.9613   22.3961 N.am    1  UNL1       -0.2801
      3 C          -5.4911  -18.9438   21.0087 C.2     1  UNL1        0.3257
      4 O          -6.3528  -18.5413   19.8488 O.2     1  UNL1       -0.2507
      5 N          -4.0593  -19.3287   20.7814 N.am    1  UNL1       -0.1286
      6 H          -5.4956  -19.2254   23.1574 H       1  UNL1        0.1515
      7 N          -3.1976  -19.7312   21.9414 N.2     1  UNL1        0.0534
      8 O          -1.8179  -20.2680   21.7000 O.2     1  UNL1       -0.1256
      9 C          -3.4892  -19.3112   19.3941 C.3     1  UNL1        0.1414
     10 C          -2.4432  -18.3011   19.0257 C.3     1  UNL1        0.1186
     11 CL         -2.8401  -17.0245   18.3452 Cl      1  UNL1       -0.1118
     12 C          -7.8767  -17.1284   22.7040 C.3     1  UNL1        0.1651
     13 O          -7.8520  -16.2763   21.4699 O.3     1  UNL1       -0.3798
     14 H          -7.5679  -16.8119   20.7127 H       1  UNL1        0.2105
     15 C          -8.2851  -16.5328   24.0187 C.3     1  UNL1        0.1685
     16 O          -9.4456  -17.1087   24.7749 O.3     1  UNL1       -0.3794
     17 H          -9.8167  -17.8548   24.2785 H       1  UNL1        0.2105
     18 C          -7.5330  -15.3613   24.5773 C.3     1  UNL1        0.1689
     19 O          -7.7115  -13.9992   23.9748 O.3     1  UNL1       -0.3794
     20 H          -7.1577  -13.3603   24.4502 H       1  UNL1        0.2105
     21 C          -6.6025  -15.5518   25.7382 C.3     1  UNL1        0.1689
     22 O          -5.6157  -14.4790   26.0924 O.3     1  UNL1       -0.3794
     23 H          -4.9666  -14.3879   25.3774 H       1  UNL1        0.2105
     24 O          -9.9870  -19.3012   22.5579 O.2     1  UNL1       -0.2864
     25 C          -8.5412  -19.6392   22.7703 C.2     1  UNL1        0.2293
@<TRIPOS>BOND
     1    24    25    2
     2    25     1    1
     3     1     2    1
     4     2     3   am
     5     3     4    2
     6     3     5   am
     7     5     9    1
     8     9    10    1
     9    10    11    1
    10     5     7    1
    11     7     8    2
    12     1    12    1
    13    12    13    1
    14    12    15    1
    15    15    16    1
    16    15    18    1
    17    18    19    1
    18    18    21    1
    19    21    22    1
    20     2     6    1
    21    13    14    1
    22    16    17    1
    23    19    20    1
    24    22    23    1
@<TRIPOS>MOLECULE
*****
 25 24 0 0 0
SMALL
GASTEIGER

@<TRIPOS>ATOM
      1 CA         -8.9503  -16.4781   24.6118 C.3     1  UNL1        0.1677
      2 N         -10.1236  -16.7986   23.7340 N.am    1  UNL1       -0.2801
      3 C         -10.0622  -17.9689   22.7976 C.2     1  UNL1        0.3257
      4 O          -8.8275  -18.8185   22.7390 O.2     1  UNL1       -0.2507
      5 N         -11.2356  -18.2894   21.9198 N.am    1  UNL1       -0.1286
      6 H         -10.9341  -16.2409   23.7724 H       1  UNL1        0.1515
      7 N         -12.4703  -17.4397   21.9784 N.2     1  UNL1        0.0534
      8 O         -13.2867  -17.3888   23.2358 O.2     1  UNL1       -0.1256
      9 C         -11.1742  -19.4596   20.9834 C.3     1  UNL1        0.1414
     10 C         -10.6296  -19.2830   19.5970 C.3     1  UNL1        0.1186
     11 CL         -9.3714  -19.9910   19.1896 Cl      1  UNL1       -0.1118
     12 C          -7.8530  -15.5910   24.1027 C.3     1  UNL1        0.1651
     13 O          -8.0234  -14.1008   24.1220 O.3     1  UNL1       -0.3798
     14 H          -8.8926  -13.8796   24.4913 H       1  UNL1        0.2105
     15 C          -6.5853  -16.1941   23.5743 C.3     1  UNL1        0.1685
     16 O          -6.6450  -17.2766   22.5376 O.3     1  UNL1       -0.3794
     17 H          -7.5713  -17.4664   22.3212 H       1  UNL1        0.2105
     18 C          -5.2580  -15.7148   24.0826 C.3     1  UNL1        0.1689
     19 O          -4.1292  -15.4765   23.1237 O.3     1  UNL1       -0.3794
     20 H          -3.3488  -15.1716   23.6124 H       1  UNL1        0.2105
     21 C          -5.0593  -15.4736   25.5497 C.3     1  UNL1        0.1689
     22 O          -5.8404  -14.3985   26.2456 O.3     1  UNL1       -0.3794
     23 H          -5.5748  -13.5315   25.9011 H       1  UNL1        0.2105
     24 O          -8.1648  -16.2858   27.0807 O.2     1  UNL1       -0.2864
     25 C          -8.8742  -17.0446   25.9986 C.2     1  UNL1        0.2293
@<TRIPOS>BOND
     1    24    25    2
     2    25     1    1
     3     1     2    1
     4     2     3   am
     5     3     4    2
     6     3     5   am
     7     5     9    1
     8     9    10    1
     9    10    11    1
    10     5     7    1
    11     7     8    2
    12     1    12    1
    13    12    13    1
    14    12    15    1
    15    15    16    1
    16    15    18    1
    17    18    19    1
    18    18    21    1
    19    21    22    1
    20     2     6    1
    21    13    14    1
    22    16    17    1
    23    19    20    1
    24    22    23    1
@<TRIPOS>MOLECULE
*****
 25 24 0 0 0
SMALL
GASTEIGER

@<TRIPOS>ATOM
      1 CA         -6.3396  -17.9308   22.3181 C.3     1  UNL1        0.1677
      2 N          -7.6820  -17.6393   21.7156 N.am    1  UNL1       -0.2801
      3 C          -8.9037  -18.3410   22.2307 C.2     1  UNL1        0.3257
      4 O          -8.7829  -19.3342   23.3482 O.2     1  UNL1       -0.2507
      5 N         -10.2461  -18.0495   21.6282 N.am    1  UNL1       -0.1286
      6 H          -7.7613  -16.9874   20.9821 H       1  UNL1        0.1515
      7 N         -10.3668  -17.0562   20.5106 N.2     1  UNL1        0.0534
      8 O          -9.9535  -15.6305   20.7264 O.2     1  UNL1       -0.1256
      9 C         -11.4677  -18.7512   22.1432 C.3     1  UNL1        0.1414
     10 C         -12.0847  -18.3263   23.4427 C.3     1  UNL1        0.1186
     11 CL        -13.4606  -17.7289   23.4598 Cl      1  UNL1       -0.1118
     12 C          -5.7358  -16.9739   23.3029 C.3     1  UNL1        0.1651
     13 O          -4.3529  -17.2149   23.8314 O.3     1  UNL1       -0.3798
     14 H          -3.9931  -18.0253   23.4381 H       1  UNL1        0.2105
     15 C          -6.5149  -15.7761   23.7591 C.3     1  UNL1        0.1685
     16 O          -6.9946  -14.7675   22.7577 O.3     1  UNL1       -0.3794
     17 H          -6.7183  -15.0384   21.8682 H       1  UNL1        0.2105
     18 C          -6.8144  -15.5868   25.2167 C.3     1  UNL1        0.1689
     19 O          -5.6947  -15.5548   26.2144 O.3     1  UNL1       -0.3794
     20 H          -6.0583  -15.4260   27.1044 H       1  UNL1        0.2105
     21 C          -8.2335  -15.4296   25.6765 C.3     1  UNL1        0.1689
     22 O          -9.3354  -15.2771   24.6702 O.3     1  UNL1       -0.3794
     23 H          -9.2251  -14.4391   24.1945 H       1  UNL1        0.2105
     24 O          -6.3226  -20.2931   21.2369 O.2     1  UNL1       -0.2864
     25 C          -5.6011  -19.1791   21.9358 C.2     1  UNL1        0.2293
@<TRIPOS>BOND
     1    24    25    2
     2    25     1    1
     3     1     2    1
     4     2     3   am
     5     3     4    2
     6     3     5   am
     7     5     9    1
     8     9    10    1
     9    10    11    1
    10     5     7    1
    11     7     8    2
    12     1    12    1
    13    12    13    1
    14    12    15    1
    15    15    16    1
    16    15    18    1
    17    18    19    1
    18    18    21    1
    19    21    22    1
    20     2     6    1
    21    13    14    1
    22    16    17    1
    23    19    20    1
    24    22    23    1
