@<TRIPOS>MOLECULE
*****
 39 43 0 0 0
SMALL
GASTEIGER

@<TRIPOS>ATOM
      1 C          -3.0448    3.8526   21.3594 C.3     1  UNL1        0.0603
      2 C          -4.2274    2.9783   21.6540 C.3     1  UNL1        0.0290
      3 C          -5.3370    3.4863   22.5263 C.3     1  UNL1        0.0926
      4 N          -5.2639    4.8686   23.1039 N.pl3   1  UNL1       -0.2931
      5 C          -4.0812    5.7430   22.8093 C.3     1  UNL1        0.0926
      6 C          -2.9717    5.2350   21.9371 C.3     1  UNL1        0.0290
      7 C          -6.3734    5.3766   23.9762 C.ar    1  UNL1        0.1361
      8 N          -7.7301    5.6338   23.3904 N.ar    1  UNL1       -0.2089
      9 C          -8.8397    6.1418   24.2627 C.ar    1  UNL1        0.2012
     10 N          -8.5925    6.3926   25.7208 N.ar    1  UNL1       -0.2094
     11 C          -7.2358    6.1354   26.3066 C.ar    1  UNL1        0.1298
     12 N          -6.9886    6.3862   27.7647 N.pl3   1  UNL1       -0.3425
     13 C          -6.1262    5.6274   25.4343 C.ar    1  UNL1        0.0628
     14 H          -7.7169    6.7196   28.3372 H       1  UNL1        0.1437
     15 H          -6.0982    6.2174   28.1492 H       1  UNL1        0.1437
     16 C          -4.7695    5.3702   26.0201 C.ar    1  UNL1        0.0055
     17 C          -4.3086    3.9622   26.2548 C.ar    1  UNL1        0.0025
     18 C          -2.9519    3.7050   26.8406 C.ar    1  UNL1        0.0296
     19 C          -2.0561    4.8559   27.1917 C.ar    1  UNL1        0.1401
     20 F          -0.6994    4.5987   27.7775 F       1  UNL1       -0.2042
     21 C          -2.5170    6.2638   26.9570 C.ar    1  UNL1        0.0296
     22 C          -3.8737    6.5210   26.3712 C.ar    1  UNL1        0.0025
     23 C          -2.1321    5.1099   18.4895 C.3     1  UNL1        0.1317
     24 N          -1.5158    3.9226   19.1680 N.ar    1  UNL1       -0.3117
     25 C          -0.3716    3.1046   18.6464 C.ar    1  UNL1        0.0962
     26 C          -0.0840    2.0212   19.6432 C.ar    1  UNL1        0.0997
     27 N          -1.0504    2.1696   20.7808 N.ar    1  UNL1       -0.2309
     28 C          -1.9352    3.3446   20.4871 C.ar    1  UNL1        0.1200
     29 C           0.9827    0.9734   19.5234 C.ar    1  UNL1        0.0193
     30 C           0.9768   -0.2115   20.4431 C.ar    1  UNL1        0.0038
     31 C           2.0435   -1.2592   20.3233 C.ar    1  UNL1        0.0296
     32 C           3.1161   -1.1220   19.2837 C.ar    1  UNL1        0.1440
     33 F           4.1828   -2.1698   19.1639 F       1  UNL1       -0.2042
     34 C           3.1220    0.0629   18.3640 C.ar    1  UNL1        0.0988
     35 C           2.0553    1.1106   18.4838 C.ar    1  UNL1        0.0077
     36 C           4.1946    0.2001   17.3244 C.3     1  UNL1        0.4207
     37 F           5.2672    0.3373   16.2849 F       1  UNL1       -0.1658
     38 F           4.8686    1.2491   18.1583 F       1  UNL1       -0.1658
     39 F           3.5206   -0.8488   16.4905 F       1  UNL1       -0.1658
@<TRIPOS>BOND
     1    23    24    1
     2    24    25   ar
     3    25    26   ar
     4    26    29    1
     5    29    30   ar
     6    30    31   ar
     7    31    32   ar
     8    32    33    1
     9    32    34   ar
    10    34    36    1
    11    36    37    1
    12    36    38    1
    13    36    39    1
    14    34    35   ar
    15    26    27   ar
    16    27    28   ar
    17    28     1    1
    18     1     2    1
    19     2     3    1
    20     3     4    1
    21     4     7    1
    22     7     8   ar
    23     8     9   ar
    24     9    10   ar
    25    10    11   ar
    26    11    12    1
    27    11    13   ar
    28    13    16    1
    29    16    17   ar
    30    17    18   ar
    31    18    19   ar
    32    19    20    1
    33    19    21   ar
    34    21    22   ar
    35     4     5    1
    36     5     6    1
    37    28    24   ar
    38     6     1    1
    39    35    29   ar
    40    13     7   ar
    41    22    16   ar
    42    12    14    1
    43    12    15    1
@<TRIPOS>MOLECULE
*****
 39 43 0 0 0
SMALL
GASTEIGER

@<TRIPOS>ATOM
      1 C           3.8104   -0.3576   27.4949 C.3     1  UNL1        0.0603
      2 C           4.5543    0.8482   27.9876 C.3     1  UNL1        0.0290
      3 C           4.1579    1.4975   29.2803 C.3     1  UNL1        0.0926
      4 N           3.0177    0.9411   30.0804 N.pl3   1  UNL1       -0.2931
      5 C           2.2737   -0.2648   29.5877 C.3     1  UNL1        0.0926
      6 C           2.6702   -0.9140   28.2950 C.3     1  UNL1        0.0290
      7 C           2.6213    1.5905   31.3731 C.ar    1  UNL1        0.1361
      8 N           1.5774    2.6675   31.3823 N.ar    1  UNL1       -0.2089
      9 C           1.1810    3.3169   32.6750 C.ar    1  UNL1        0.2012
     10 N           1.8286    2.8891   33.9587 N.ar    1  UNL1       -0.2094
     11 C           2.8725    1.8120   33.9496 C.ar    1  UNL1        0.1298
     12 N           3.5200    1.3843   35.2332 N.pl3   1  UNL1       -0.3425
     13 C           3.2689    1.1627   32.6568 C.ar    1  UNL1        0.0628
     14 H           3.2599    1.8105   36.0817 H       1  UNL1        0.1437
     15 H           4.2052    0.6774   35.2273 H       1  UNL1        0.1437
     16 C           4.3128    0.0856   32.6477 C.ar    1  UNL1        0.0055
     17 C           5.7584    0.4437   32.4689 C.ar    1  UNL1        0.0025
     18 C           6.8023   -0.6333   32.4598 C.ar    1  UNL1        0.0296
     19 C           6.4006   -2.0686   32.6294 C.ar    1  UNL1        0.1401
     20 F           7.4445   -3.1457   32.6203 F       1  UNL1       -0.2042
     21 C           4.9550   -2.4267   32.8082 C.ar    1  UNL1        0.0296
     22 C           3.9111   -1.3497   32.8174 C.ar    1  UNL1        0.0025
     23 C           6.1314   -2.6204   27.1175 C.3     1  UNL1        0.1317
     24 N           5.2737   -2.0471   26.0287 N.ar    1  UNL1       -0.3117
     25 C           5.3321   -2.4131   24.5752 C.ar    1  UNL1        0.0962
     26 C           4.3014   -1.5993   23.8504 C.ar    1  UNL1        0.0997
     27 N           3.6060   -0.7302   24.8559 N.ar    1  UNL1       -0.2309
     28 C           4.2068   -1.0070   26.2021 C.ar    1  UNL1        0.1200
     29 C           4.0163   -1.6463   22.3784 C.ar    1  UNL1        0.0193
     30 C           3.4212   -0.4531   21.6913 C.ar    1  UNL1        0.0038
     31 C           3.1361   -0.5002   20.2194 C.ar    1  UNL1        0.0296
     32 C           3.4461   -1.7404   19.4347 C.ar    1  UNL1        0.1440
     33 F           3.1609   -1.7874   17.9627 F       1  UNL1       -0.2042
     34 C           4.0411   -2.9336   20.1218 C.ar    1  UNL1        0.0988
     35 C           4.3262   -2.8865   21.5937 C.ar    1  UNL1        0.0077
     36 C           4.3510   -4.1738   19.3371 C.3     1  UNL1        0.4207
     37 F           4.6610   -5.4140   18.5524 F       1  UNL1       -0.1658
     38 F           2.8834   -4.4327   19.1667 F       1  UNL1       -0.1658
     39 F           5.8187   -3.9148   19.5075 F       1  UNL1       -0.1658
@<TRIPOS>BOND
     1    23    24    1
     2    24    25   ar
     3    25    26   ar
     4    26    29    1
     5    29    30   ar
     6    30    31   ar
     7    31    32   ar
     8    32    33    1
     9    32    34   ar
    10    34    36    1
    11    36    37    1
    12    36    38    1
    13    36    39    1
    14    34    35   ar
    15    26    27   ar
    16    27    28   ar
    17    28     1    1
    18     1     2    1
    19     2     3    1
    20     3     4    1
    21     4     7    1
    22     7     8   ar
    23     8     9   ar
    24     9    10   ar
    25    10    11   ar
    26    11    12    1
    27    11    13   ar
    28    13    16    1
    29    16    17   ar
    30    17    18   ar
    31    18    19   ar
    32    19    20    1
    33    19    21   ar
    34    21    22   ar
    35     4     5    1
    36     5     6    1
    37    28    24   ar
    38     6     1    1
    39    35    29   ar
    40    13     7   ar
    41    22    16   ar
    42    12    14    1
    43    12    15    1
@<TRIPOS>MOLECULE
*****
 39 43 0 0 0
SMALL
GASTEIGER

@<TRIPOS>ATOM
      1 C           4.1049   -0.5179   27.0084 C.3     1  UNL1        0.0603
      2 C           3.1521   -1.2582   27.8995 C.3     1  UNL1        0.0290
      3 C           2.7151   -0.6507   29.1995 C.3     1  UNL1        0.0926
      4 N           3.2310    0.6971   29.6083 N.pl3   1  UNL1       -0.2931
      5 C           4.1839    1.4375   28.7172 C.3     1  UNL1        0.0926
      6 C           4.6207    0.8300   27.4173 C.3     1  UNL1        0.0290
      7 C           2.7940    1.3046   30.9083 C.ar    1  UNL1        0.1361
      8 N           3.6388    1.1363   32.1363 N.ar    1  UNL1       -0.2089
      9 C           3.2019    1.7438   33.4363 C.ar    1  UNL1        0.2012
     10 N           1.9200    2.5197   33.5083 N.ar    1  UNL1       -0.2094
     11 C           1.0753    2.6880   32.2803 C.ar    1  UNL1        0.1298
     12 N          -0.2065    3.4639   32.3524 N.pl3   1  UNL1       -0.3425
     13 C           1.5122    2.0805   30.9803 C.ar    1  UNL1        0.0628
     14 H          -0.4932    3.8626   33.2056 H       1  UNL1        0.1437
     15 H          -0.7609    3.5744   31.5464 H       1  UNL1        0.1437
     16 C           0.6674    2.2488   29.7523 C.ar    1  UNL1        0.0055
     17 C           0.7671    3.5059   28.9400 C.ar    1  UNL1        0.0025
     18 C          -0.0777    3.6742   27.7120 C.ar    1  UNL1        0.0296
     19 C          -1.0221    2.5855   27.2963 C.ar    1  UNL1        0.1401
     20 F          -1.8669    2.7538   26.0684 F       1  UNL1       -0.2042
     21 C          -1.1217    1.3284   28.1086 C.ar    1  UNL1        0.0296
     22 C          -0.2769    1.1601   29.3366 C.ar    1  UNL1        0.0025
     23 C           6.5078   -2.6914   26.6184 C.3     1  UNL1        0.1317
     24 N           5.6464   -2.1245   25.5292 N.ar    1  UNL1       -0.3117
     25 C           5.7381   -2.4570   24.0694 C.ar    1  UNL1        0.0962
     26 C           4.6904   -1.6635   23.3464 C.ar    1  UNL1        0.0997
     27 N           3.9511   -0.8406   24.3594 N.ar    1  UNL1       -0.2309
     28 C           4.5419   -1.1254   25.7084 C.ar    1  UNL1        0.1200
     29 C           4.4281   -1.6886   21.8697 C.ar    1  UNL1        0.0193
     30 C           3.9884   -0.4398   21.1647 C.ar    1  UNL1        0.0038
     31 C           3.7261   -0.4650   19.6881 C.ar    1  UNL1        0.0296
     32 C           3.9035   -1.7390   18.9164 C.ar    1  UNL1        0.1440
     33 F           3.6412   -1.7641   17.4397 F       1  UNL1       -0.2042
     34 C           4.3431   -2.9878   19.6214 C.ar    1  UNL1        0.0988
     35 C           4.6054   -2.9627   21.0980 C.ar    1  UNL1        0.0077
     36 C           4.5205   -4.2618   18.8497 C.3     1  UNL1        0.4207
     37 F           4.6978   -5.5358   18.0781 F       1  UNL1       -0.1658
     38 F           3.3584   -4.8663   19.5806 F       1  UNL1       -0.1658
     39 F           5.6826   -3.6574   18.1189 F       1  UNL1       -0.1658
@<TRIPOS>BOND
     1    23    24    1
     2    24    25   ar
     3    25    26   ar
     4    26    29    1
     5    29    30   ar
     6    30    31   ar
     7    31    32   ar
     8    32    33    1
     9    32    34   ar
    10    34    36    1
    11    36    37    1
    12    36    38    1
    13    36    39    1
    14    34    35   ar
    15    26    27   ar
    16    27    28   ar
    17    28     1    1
    18     1     2    1
    19     2     3    1
    20     3     4    1
    21     4     7    1
    22     7     8   ar
    23     8     9   ar
    24     9    10   ar
    25    10    11   ar
    26    11    12    1
    27    11    13   ar
    28    13    16    1
    29    16    17   ar
    30    17    18   ar
    31    18    19   ar
    32    19    20    1
    33    19    21   ar
    34    21    22   ar
    35     4     5    1
    36     5     6    1
    37    28    24   ar
    38     6     1    1
    39    35    29   ar
    40    13     7   ar
    41    22    16   ar
    42    12    14    1
    43    12    15    1
@<TRIPOS>MOLECULE
*****
 39 43 0 0 0
SMALL
GASTEIGER

@<TRIPOS>ATOM
      1 C           3.7015   -0.2592   27.5506 C.3     1  UNL1        0.0603
      2 C           4.2904    1.0799   27.8823 C.3     1  UNL1        0.0290
      3 C           3.7688    1.8595   29.0528 C.3     1  UNL1        0.0926
      4 N           2.6582    1.3001   29.8915 N.pl3   1  UNL1       -0.2931
      5 C           2.0692   -0.0390   29.5599 C.3     1  UNL1        0.0926
      6 C           2.5909   -0.8186   28.3894 C.3     1  UNL1        0.0290
      7 C           2.1366    2.0797   31.0621 C.ar    1  UNL1        0.1361
      8 N           0.9828    3.0211   30.8820 N.ar    1  UNL1       -0.2089
      9 C           0.4611    3.8007   32.0525 C.ar    1  UNL1        0.2012
     10 N           1.0934    3.6390   33.4031 N.ar    1  UNL1       -0.2094
     11 C           2.2473    2.6976   33.5832 C.ar    1  UNL1        0.1298
     12 N           2.8795    2.5359   34.9338 N.pl3   1  UNL1       -0.3425
     13 C           2.7689    1.9180   32.4127 C.ar    1  UNL1        0.0628
     14 H           2.5371    3.0476   35.7021 H       1  UNL1        0.1437
     15 H           3.6368    1.9181   35.0521 H       1  UNL1        0.1437
     16 C           3.9227    0.9766   32.5928 C.ar    1  UNL1        0.0055
     17 C           3.6702   -0.4655   32.9190 C.ar    1  UNL1        0.0025
     18 C           4.8240   -1.4069   33.0991 C.ar    1  UNL1        0.0296
     19 C           6.2304   -0.9061   32.9530 C.ar    1  UNL1        0.1401
     20 F           7.3843   -1.8475   33.1331 F       1  UNL1       -0.2042
     21 C           6.4830    0.5360   32.6268 C.ar    1  UNL1        0.0296
     22 C           5.3291    1.4774   32.4467 C.ar    1  UNL1        0.0025
     23 C           6.3709   -2.1363   27.5324 C.3     1  UNL1        0.1317
     24 N           5.4501   -1.9017   26.3717 N.ar    1  UNL1       -0.3117
     25 C           5.5946   -2.4886   24.9989 C.ar    1  UNL1        0.0962
     26 C           4.4570   -1.9885   24.1588 C.ar    1  UNL1        0.0997
     27 N           3.6093   -1.0925   25.0125 N.ar    1  UNL1       -0.2309
     28 C           4.2231   -1.0388   26.3801 C.ar    1  UNL1        0.1200
     29 C           4.2103   -2.3253   22.7181 C.ar    1  UNL1        0.0193
     30 C           4.7122   -3.6215   22.1543 C.ar    1  UNL1        0.0038
     31 C           4.4656   -3.9583   20.7136 C.ar    1  UNL1        0.0296
     32 C           3.7169   -2.9989   19.8366 C.ar    1  UNL1        0.1440
     33 F           3.4702   -3.3357   18.3959 F       1  UNL1       -0.2042
     34 C           3.2150   -1.7027   20.4004 C.ar    1  UNL1        0.0988
     35 C           3.4616   -1.3659   21.8411 C.ar    1  UNL1        0.0077
     36 C           2.4663   -0.7432   19.5235 C.3     1  UNL1        0.4207
     37 F           1.7177    0.2162   18.6465 F       1  UNL1       -0.1658
     38 F           3.7601   -0.2911   18.9137 F       1  UNL1       -0.1658
     39 F           1.1726   -1.1954   20.1332 F       1  UNL1       -0.1658
@<TRIPOS>BOND
     1    23    24    1
     2    24    25   ar
     3    25    26   ar
     4    26    29    1
     5    29    30   ar
     6    30    31   ar
     7    31    32   ar
     8    32    33    1
     9    32    34   ar
    10    34    36    1
    11    36    37    1
    12    36    38    1
    13    36    39    1
    14    34    35   ar
    15    26    27   ar
    16    27    28   ar
    17    28     1    1
    18     1     2    1
    19     2     3    1
    20     3     4    1
    21     4     7    1
    22     7     8   ar
    23     8     9   ar
    24     9    10   ar
    25    10    11   ar
    26    11    12    1
    27    11    13   ar
    28    13    16    1
    29    16    17   ar
    30    17    18   ar
    31    18    19   ar
    32    19    20    1
    33    19    21   ar
    34    21    22   ar
    35     4     5    1
    36     5     6    1
    37    28    24   ar
    38     6     1    1
    39    35    29   ar
    40    13     7   ar
    41    22    16   ar
    42    12    14    1
    43    12    15    1
@<TRIPOS>MOLECULE
*****
 39 43 0 0 0
SMALL
GASTEIGER

@<TRIPOS>ATOM
      1 C           4.2291   -0.4629   26.3345 C.3     1  UNL1        0.0603
      2 C           3.4500   -1.3601   27.2499 C.3     1  UNL1        0.0290
      3 C           3.0497   -0.8765   28.6123 C.3     1  UNL1        0.0926
      4 N           3.4286    0.5043   29.0591 N.pl3   1  UNL1       -0.2931
      5 C           4.2078    1.4016   28.1437 C.3     1  UNL1        0.0926
      6 C           4.6080    0.9179   26.7815 C.3     1  UNL1        0.0290
      7 C           3.0284    0.9879   30.4214 C.ar    1  UNL1        0.1361
      8 N           3.9299    0.7502   31.5965 N.ar    1  UNL1       -0.2089
      9 C           3.5296    1.2338   32.9588 C.ar    1  UNL1        0.2012
     10 N           2.2278    1.9552   33.1461 N.ar    1  UNL1       -0.2094
     11 C           1.3263    2.1930   31.9710 C.ar    1  UNL1        0.1298
     12 N           0.0246    2.9143   32.1583 N.pl3   1  UNL1       -0.3425
     13 C           1.7266    1.7093   30.6087 C.ar    1  UNL1        0.0628
     14 H          -0.2381    3.2317   33.0525 H       1  UNL1        0.1437
     15 H          -0.5671    3.0704   31.3871 H       1  UNL1        0.1437
     16 C           0.8251    1.9471   29.4336 C.ar    1  UNL1        0.0055
     17 C           0.9493    3.2118   28.6368 C.ar    1  UNL1        0.0025
     18 C           0.0478    3.4496   27.4618 C.ar    1  UNL1        0.0296
     19 C          -0.9779    2.4225   27.0836 C.ar    1  UNL1        0.1401
     20 F          -1.8794    2.6603   25.9085 F       1  UNL1       -0.2042
     21 C          -1.1022    1.1578   27.8804 C.ar    1  UNL1        0.0296
     22 C          -0.2007    0.9200   29.0554 C.ar    1  UNL1        0.0025
     23 C           6.6911   -2.4989   25.6685 C.3     1  UNL1        0.1317
     24 N           5.7610   -1.8824   24.6661 N.ar    1  UNL1       -0.3117
     25 C           5.7992   -2.0935   23.1815 C.ar    1  UNL1        0.0962
     26 C           4.6912   -1.2881   22.5701 C.ar    1  UNL1        0.0997
     27 N           3.9682   -0.5793   23.6768 N.ar    1  UNL1       -0.2309
     28 C           4.6293   -0.9466   24.9722 C.ar    1  UNL1        0.1200
     29 C           4.3638   -1.2061   21.1085 C.ar    1  UNL1        0.0193
     30 C           5.2050   -1.9430   20.1089 C.ar    1  UNL1        0.0038
     31 C           4.8775   -1.8609   18.6475 C.ar    1  UNL1        0.0296
     32 C           3.7089   -1.0418   18.1856 C.ar    1  UNL1        0.1440
     33 F           3.3814   -0.9598   16.7240 F       1  UNL1       -0.2042
     34 C           2.8677   -0.3049   19.1852 C.ar    1  UNL1        0.0988
     35 C           3.1951   -0.3870   20.6466 C.ar    1  UNL1        0.0077
     36 C           1.6990    0.5142   18.7233 C.3     1  UNL1        0.4207
     37 F           0.5303    1.3333   18.2614 F       1  UNL1       -0.1658
     38 F           2.6324    1.4355   17.9954 F       1  UNL1       -0.1658
     39 F           0.7656   -0.4071   19.4512 F       1  UNL1       -0.1658
@<TRIPOS>BOND
     1    23    24    1
     2    24    25   ar
     3    25    26   ar
     4    26    29    1
     5    29    30   ar
     6    30    31   ar
     7    31    32   ar
     8    32    33    1
     9    32    34   ar
    10    34    36    1
    11    36    37    1
    12    36    38    1
    13    36    39    1
    14    34    35   ar
    15    26    27   ar
    16    27    28   ar
    17    28     1    1
    18     1     2    1
    19     2     3    1
    20     3     4    1
    21     4     7    1
    22     7     8   ar
    23     8     9   ar
    24     9    10   ar
    25    10    11   ar
    26    11    12    1
    27    11    13   ar
    28    13    16    1
    29    16    17   ar
    30    17    18   ar
    31    18    19   ar
    32    19    20    1
    33    19    21   ar
    34    21    22   ar
    35     4     5    1
    36     5     6    1
    37    28    24   ar
    38     6     1    1
    39    35    29   ar
    40    13     7   ar
    41    22    16   ar
    42    12    14    1
    43    12    15    1
@<TRIPOS>MOLECULE
*****
 39 43 0 0 0
SMALL
GASTEIGER

@<TRIPOS>ATOM
      1 C           4.3351   -0.7145   24.6646 C.3     1  UNL1        0.0603
      2 C           5.0367    0.3536   23.8791 C.3     1  UNL1        0.0290
      3 C           5.4381    0.0971   22.4567 C.3     1  UNL1        0.0926
      4 N           5.1379   -1.2274   21.8199 N.pl3   1  UNL1       -0.2931
      5 C           4.4363   -2.2955   22.6054 C.3     1  UNL1        0.0926
      6 C           4.0349   -2.0390   24.0277 C.3     1  UNL1        0.0290
      7 C           5.5393   -1.4838   20.3975 C.ar    1  UNL1        0.1361
      8 N           6.8453   -2.1575   20.0966 N.ar    1  UNL1       -0.2089
      9 C           7.2467   -2.4140   18.6743 C.ar    1  UNL1        0.2012
     10 N           6.3420   -1.9967   17.5528 N.ar    1  UNL1       -0.2094
     11 C           5.0361   -1.3229   17.8537 C.ar    1  UNL1        0.1298
     12 N           4.1316   -0.9057   16.7322 N.pl3   1  UNL1       -0.3425
     13 C           4.6347   -1.0665   19.2761 C.ar    1  UNL1        0.0628
     14 H           4.3950   -1.0740   15.7987 H       1  UNL1        0.1437
     15 H           3.2744   -0.4635   16.9297 H       1  UNL1        0.1437
     16 C           3.3288   -0.3928   19.5770 C.ar    1  UNL1        0.0055
     17 C           2.1331   -1.2126   19.9619 C.ar    1  UNL1        0.0025
     18 C           0.8271   -0.5389   20.2628 C.ar    1  UNL1        0.0296
     19 C           0.7169    0.9547   20.1788 C.ar    1  UNL1        0.1401
     20 F          -0.5891    1.6284   20.4797 F       1  UNL1       -0.2042
     21 C           1.9125    1.7746   19.7939 C.ar    1  UNL1        0.0296
     22 C           3.2185    1.1008   19.4930 C.ar    1  UNL1        0.0025
     23 C           1.8225    1.1216   25.6474 C.3     1  UNL1        0.1317
     24 N           2.7788    0.3859   26.5387 N.ar    1  UNL1       -0.3117
     25 C           2.7480    0.3650   28.0382 C.ar    1  UNL1        0.0962
     26 C           3.8839   -0.4918   28.5132 C.ar    1  UNL1        0.0997
     27 N           4.6167   -1.0005   27.3073 N.ar    1  UNL1       -0.2309
     28 C           3.9337   -0.4580   26.0870 C.ar    1  UNL1        0.1200
     29 C           4.2268   -0.7879   29.9432 C.ar    1  UNL1        0.0193
     30 C           3.3500   -0.2744   31.0466 C.ar    1  UNL1        0.0038
     31 C           3.6929   -0.5706   32.4765 C.ar    1  UNL1        0.0296
     32 C           4.9127   -1.3803   32.8030 C.ar    1  UNL1        0.1440
     33 F           5.2555   -1.6764   34.2330 F       1  UNL1       -0.2042
     34 C           5.7895   -1.8938   31.6997 C.ar    1  UNL1        0.0988
     35 C           5.4466   -1.5976   30.2698 C.ar    1  UNL1        0.0077
     36 C           7.0092   -2.7034   32.0262 C.3     1  UNL1        0.4207
     37 F           8.2290   -3.5131   32.3528 F       1  UNL1       -0.1658
     38 F           7.8797   -1.5327   31.6775 F       1  UNL1       -0.1658
     39 F           6.1387   -3.8742   32.3750 F       1  UNL1       -0.1658
@<TRIPOS>BOND
     1    23    24    1
     2    24    25   ar
     3    25    26   ar
     4    26    29    1
     5    29    30   ar
     6    30    31   ar
     7    31    32   ar
     8    32    33    1
     9    32    34   ar
    10    34    36    1
    11    36    37    1
    12    36    38    1
    13    36    39    1
    14    34    35   ar
    15    26    27   ar
    16    27    28   ar
    17    28     1    1
    18     1     2    1
    19     2     3    1
    20     3     4    1
    21     4     7    1
    22     7     8   ar
    23     8     9   ar
    24     9    10   ar
    25    10    11   ar
    26    11    12    1
    27    11    13   ar
    28    13    16    1
    29    16    17   ar
    30    17    18   ar
    31    18    19   ar
    32    19    20    1
    33    19    21   ar
    34    21    22   ar
    35     4     5    1
    36     5     6    1
    37    28    24   ar
    38     6     1    1
    39    35    29   ar
    40    13     7   ar
    41    22    16   ar
    42    12    14    1
    43    12    15    1
@<TRIPOS>MOLECULE
*****
 39 43 0 0 0
SMALL
GASTEIGER

@<TRIPOS>ATOM
      1 C           0.5813    2.5625   24.6945 C.3     1  UNL1        0.0603
      2 C           0.7167    4.0468   24.5257 C.3     1  UNL1        0.0290
      3 C          -0.1252    4.9753   25.3498 C.3     1  UNL1        0.0926
      4 N          -1.1025    4.4194   26.3427 N.pl3   1  UNL1       -0.2931
      5 C          -1.2380    2.9351   26.5115 C.3     1  UNL1        0.0926
      6 C          -0.3961    2.0067   25.6875 C.3     1  UNL1        0.0290
      7 C          -1.9444    5.3479   27.1668 C.ar    1  UNL1        0.1361
      8 N          -1.3983    5.9260   28.4386 N.ar    1  UNL1       -0.2089
      9 C          -2.2402    6.8545   29.2627 C.ar    1  UNL1        0.2012
     10 N          -3.6283    7.2049   28.8149 N.ar    1  UNL1       -0.2094
     11 C          -4.1744    6.6269   27.5431 C.ar    1  UNL1        0.1298
     12 N          -5.5625    6.9773   27.0953 N.pl3   1  UNL1       -0.3425
     13 C          -3.3325    5.6984   26.7190 C.ar    1  UNL1        0.0628
     14 H          -6.1150    7.5867   27.6362 H       1  UNL1        0.1437
     15 H          -5.9210    6.5979   26.2606 H       1  UNL1        0.1437
     16 C          -3.8787    5.1203   25.4471 C.ar    1  UNL1        0.0055
     17 C          -3.6782    5.8430   24.1481 C.ar    1  UNL1        0.0025
     18 C          -4.2244    5.2650   22.8763 C.ar    1  UNL1        0.0296
     19 C          -4.9710    3.9642   22.9035 C.ar    1  UNL1        0.1401
     20 F          -5.5171    3.3862   21.6317 F       1  UNL1       -0.2042
     21 C          -5.1714    3.2415   24.2025 C.ar    1  UNL1        0.0296
     22 C          -4.6253    3.8196   25.4744 C.ar    1  UNL1        0.0025
     23 C           2.7112    0.3739   25.8449 C.3     1  UNL1        0.1317
     24 N           2.4022    0.6280   24.3992 N.ar    1  UNL1       -0.3117
     25 C           3.0179   -0.0793   23.2285 C.ar    1  UNL1        0.0962
     26 C           2.4195    0.4896   21.9762 C.ar    1  UNL1        0.0997
     27 N           1.4339    1.5484   22.3729 N.ar    1  UNL1       -0.2309
     28 C           1.4232    1.6340   23.8704 C.ar    1  UNL1        0.1200
     29 C           2.7489    0.0728   20.5733 C.ar    1  UNL1        0.0193
     30 C           2.4974    1.0139   19.4327 C.ar    1  UNL1        0.0038
     31 C           2.8268    0.5970   18.0300 C.ar    1  UNL1        0.0296
     32 C           3.4076   -0.7609   17.7679 C.ar    1  UNL1        0.1440
     33 F           3.7370   -1.1777   16.3651 F       1  UNL1       -0.2042
     34 C           3.6591   -1.7020   18.9085 C.ar    1  UNL1        0.0988
     35 C           3.3297   -1.2851   20.3113 C.ar    1  UNL1        0.0077
     36 C           4.2399   -3.0599   18.6464 C.3     1  UNL1        0.4207
     37 F           4.8207   -4.4178   18.3843 F       1  UNL1       -0.1658
     38 F           2.9699   -3.6961   19.1285 F       1  UNL1       -0.1658
     39 F           5.5099   -2.4237   18.1644 F       1  UNL1       -0.1658
@<TRIPOS>BOND
     1    23    24    1
     2    24    25   ar
     3    25    26   ar
     4    26    29    1
     5    29    30   ar
     6    30    31   ar
     7    31    32   ar
     8    32    33    1
     9    32    34   ar
    10    34    36    1
    11    36    37    1
    12    36    38    1
    13    36    39    1
    14    34    35   ar
    15    26    27   ar
    16    27    28   ar
    17    28     1    1
    18     1     2    1
    19     2     3    1
    20     3     4    1
    21     4     7    1
    22     7     8   ar
    23     8     9   ar
    24     9    10   ar
    25    10    11   ar
    26    11    12    1
    27    11    13   ar
    28    13    16    1
    29    16    17   ar
    30    17    18   ar
    31    18    19   ar
    32    19    20    1
    33    19    21   ar
    34    21    22   ar
    35     4     5    1
    36     5     6    1
    37    28    24   ar
    38     6     1    1
    39    35    29   ar
    40    13     7   ar
    41    22    16   ar
    42    12    14    1
    43    12    15    1
@<TRIPOS>MOLECULE
*****
 39 43 0 0 0
SMALL
GASTEIGER

@<TRIPOS>ATOM
      1 C           3.6293   -0.1535   28.0018 C.3     1  UNL1        0.0603
      2 C           2.4992   -0.7045   28.8198 C.3     1  UNL1        0.0290
      3 C           2.2648   -0.1983   30.2123 C.3     1  UNL1        0.0926
      4 N           3.1606    0.8589   30.7865 N.pl3   1  UNL1       -0.2931
      5 C           4.2908    1.4099   29.9685 C.3     1  UNL1        0.0926
      6 C           4.5250    0.9037   28.5761 C.3     1  UNL1        0.0290
      7 C           2.9262    1.3651   32.1790 C.ar    1  UNL1        0.1361
      8 N           1.9091    2.4397   32.4251 N.ar    1  UNL1       -0.2089
      9 C           1.6747    2.9459   33.8175 C.ar    1  UNL1        0.2012
     10 N           2.4576    2.3775   34.9639 N.ar    1  UNL1       -0.2094
     11 C           3.4748    1.3029   34.7178 C.ar    1  UNL1        0.1298
     12 N           4.2576    0.7345   35.8641 N.pl3   1  UNL1       -0.3425
     13 C           3.7091    0.7967   33.3253 C.ar    1  UNL1        0.0628
     14 H           4.1038    1.0668   36.7780 H       1  UNL1        0.1437
     15 H           4.9253    0.0292   35.7026 H       1  UNL1        0.1437
     16 C           4.7263   -0.2779   33.0793 C.ar    1  UNL1        0.0055
     17 C           4.3059   -1.7176   33.0570 C.ar    1  UNL1        0.0025
     18 C           5.3231   -2.7922   32.8109 C.ar    1  UNL1        0.0296
     19 C           6.7607   -2.4271   32.5871 C.ar    1  UNL1        0.1401
     20 F           7.7779   -3.5017   32.3410 F       1  UNL1       -0.2042
     21 C           7.1811   -0.9874   32.6093 C.ar    1  UNL1        0.0296
     22 C           6.1639    0.0872   32.8554 C.ar    1  UNL1        0.0025
     23 C           5.8213   -2.4058   27.1231 C.3     1  UNL1        0.1317
     24 N           4.8712   -1.6950   26.2055 N.ar    1  UNL1       -0.3117
     25 C           4.7618   -1.8947   24.7229 C.ar    1  UNL1        0.0962
     26 C           3.6866   -0.9828   24.2104 C.ar    1  UNL1        0.0997
     27 N           3.1315   -0.2196   25.3763 N.ar    1  UNL1       -0.2309
     28 C           3.8636   -0.6598   26.6093 C.ar    1  UNL1        0.1200
     29 C           3.2443   -0.8564   22.7827 C.ar    1  UNL1        0.0193
     30 C           3.8256   -1.7584   21.7347 C.ar    1  UNL1        0.0038
     31 C           3.3833   -1.6320   20.3070 C.ar    1  UNL1        0.0296
     32 C           2.3595   -0.6035   19.9273 C.ar    1  UNL1        0.1440
     33 F           1.9172   -0.4771   18.4996 F       1  UNL1       -0.2042
     34 C           1.7781    0.2985   20.9753 C.ar    1  UNL1        0.0988
     35 C           2.2205    0.1721   22.4030 C.ar    1  UNL1        0.0077
     36 C           0.7544    1.3270   20.5956 C.3     1  UNL1        0.4207
     37 F          -0.2693    2.3555   20.2159 F       1  UNL1       -0.1658
     38 F          -0.2350    0.2365   20.3094 F       1  UNL1       -0.1658
     39 F           1.7438    2.4175   20.8818 F       1  UNL1       -0.1658
@<TRIPOS>BOND
     1    23    24    1
     2    24    25   ar
     3    25    26   ar
     4    26    29    1
     5    29    30   ar
     6    30    31   ar
     7    31    32   ar
     8    32    33    1
     9    32    34   ar
    10    34    36    1
    11    36    37    1
    12    36    38    1
    13    36    39    1
    14    34    35   ar
    15    26    27   ar
    16    27    28   ar
    17    28     1    1
    18     1     2    1
    19     2     3    1
    20     3     4    1
    21     4     7    1
    22     7     8   ar
    23     8     9   ar
    24     9    10   ar
    25    10    11   ar
    26    11    12    1
    27    11    13   ar
    28    13    16    1
    29    16    17   ar
    30    17    18   ar
    31    18    19   ar
    32    19    20    1
    33    19    21   ar
    34    21    22   ar
    35     4     5    1
    36     5     6    1
    37    28    24   ar
    38     6     1    1
    39    35    29   ar
    40    13     7   ar
    41    22    16   ar
    42    12    14    1
    43    12    15    1
@<TRIPOS>MOLECULE
*****
 39 43 0 0 0
SMALL
GASTEIGER

@<TRIPOS>ATOM
      1 C           3.2988   -0.0211   27.8776 C.3     1  UNL1        0.0603
      2 C           4.5858    0.5266   28.4194 C.3     1  UNL1        0.0290
      3 C           4.8340    0.5341   29.8987 C.3     1  UNL1        0.0926
      4 N           3.7952   -0.0060   30.8362 N.pl3   1  UNL1       -0.2931
      5 C           2.5080   -0.5537   30.2944 C.3     1  UNL1        0.0926
      6 C           2.2599   -0.5612   28.8152 C.3     1  UNL1        0.0290
      7 C           4.0433    0.0015   32.3155 C.ar    1  UNL1        0.1361
      8 N           4.8237   -1.1109   32.9507 N.ar    1  UNL1       -0.2089
      9 C           5.0719   -1.1034   34.4301 C.ar    1  UNL1        0.2012
     10 N           4.5397    0.0166   35.2742 N.ar    1  UNL1       -0.2094
     11 C           3.7593    1.1290   34.6390 C.ar    1  UNL1        0.1298
     12 N           3.2271    2.2489   35.4831 N.pl3   1  UNL1       -0.3425
     13 C           3.5111    1.1215   33.1596 C.ar    1  UNL1        0.0628
     14 H           3.3900    2.2539   36.4540 H       1  UNL1        0.1437
     15 H           2.7149    2.9791   35.0662 H       1  UNL1        0.1437
     16 C           2.7307    2.2339   32.5244 C.ar    1  UNL1        0.0055
     17 C           3.4467    3.4245   31.9588 C.ar    1  UNL1        0.0025
     18 C           2.6664    4.5369   31.3236 C.ar    1  UNL1        0.0296
     19 C           1.1700    4.4587   31.2540 C.ar    1  UNL1        0.1401
     20 F           0.3896    5.5712   30.6188 F       1  UNL1       -0.2042
     21 C           0.4540    3.2682   31.8196 C.ar    1  UNL1        0.0296
     22 C           1.2344    2.1558   32.4548 C.ar    1  UNL1        0.0025
     23 C           1.3436    2.0231   26.2503 C.3     1  UNL1        0.1317
     24 N           2.1519    0.9111   25.6503 N.ar    1  UNL1       -0.3117
     25 C           2.2034    0.5433   24.1970 C.ar    1  UNL1        0.0962
     26 C           3.1339   -0.6236   24.0468 C.ar    1  UNL1        0.0997
     27 N           3.6575   -0.9770   25.4073 N.ar    1  UNL1       -0.2309
     28 C           3.0506   -0.0286   26.3983 C.ar    1  UNL1        0.1200
     29 C           3.4801   -1.3155   22.7617 C.ar    1  UNL1        0.0193
     30 C           4.1989   -2.6318   22.7886 C.ar    1  UNL1        0.0038
     31 C           4.5450   -3.3236   21.5035 C.ar    1  UNL1        0.0296
     32 C           4.1724   -2.6992   20.1916 C.ar    1  UNL1        0.1440
     33 F           4.5185   -3.3912   18.9064 F       1  UNL1       -0.2042
     34 C           3.4536   -1.3830   20.1647 C.ar    1  UNL1        0.0988
     35 C           3.1075   -0.6911   21.4497 C.ar    1  UNL1        0.0077
     36 C           3.0810   -0.7586   18.8527 C.3     1  UNL1        0.4207
     37 F           2.7083   -0.1342   17.5407 F       1  UNL1       -0.1658
     38 F           1.6312   -0.8280   19.2314 F       1  UNL1       -0.1658
     39 F           4.5307   -0.6892   18.4740 F       1  UNL1       -0.1658
@<TRIPOS>BOND
     1    23    24    1
     2    24    25   ar
     3    25    26   ar
     4    26    29    1
     5    29    30   ar
     6    30    31   ar
     7    31    32   ar
     8    32    33    1
     9    32    34   ar
    10    34    36    1
    11    36    37    1
    12    36    38    1
    13    36    39    1
    14    34    35   ar
    15    26    27   ar
    16    27    28   ar
    17    28     1    1
    18     1     2    1
    19     2     3    1
    20     3     4    1
    21     4     7    1
    22     7     8   ar
    23     8     9   ar
    24     9    10   ar
    25    10    11   ar
    26    11    12    1
    27    11    13   ar
    28    13    16    1
    29    16    17   ar
    30    17    18   ar
    31    18    19   ar
    32    19    20    1
    33    19    21   ar
    34    21    22   ar
    35     4     5    1
    36     5     6    1
    37    28    24   ar
    38     6     1    1
    39    35    29   ar
    40    13     7   ar
    41    22    16   ar
    42    12    14    1
    43    12    15    1
