@<TRIPOS>MOLECULE
*****
 27 29 0 0 0
SMALL
GASTEIGER

@<TRIPOS>ATOM
      1 C          -7.4631  -16.7548   22.6006 C.3     1  UNL1        0.0518
      2 C          -6.7610  -16.2970   23.8446 C.ar    1  UNL1        0.0612
      3 C          -5.2823  -16.0983   23.9999 C.ar    1  UNL1        0.1481
      4 N          -5.0217  -15.6359   25.4029 N.ar    1  UNL1       -0.2196
      5 C          -6.3393  -15.5489   26.1146 C.ar    1  UNL1        0.1787
      6 N          -7.4142  -15.9574   25.1515 N.ar    1  UNL1       -0.3082
      7 C          -4.2463  -16.3226   22.9387 C.2     1  UNL1        0.2695
      8 O          -3.4482  -15.1663   22.4134 O.2     1  UNL1       -0.2681
      9 N          -4.0082  -17.7033   22.4028 N.am    1  UNL1       -0.2631
     10 H          -4.5320  -18.4622   22.7476 H       1  UNL1        0.1567
     11 C          -2.9721  -17.9275   21.3416 C.ar    1  UNL1        0.1557
     12 C          -1.6337  -18.5754   21.5391 C.ar    1  UNL1        0.0564
     13 C          -0.9270  -18.5916   20.2161 C.ar    1  UNL1        0.0981
     14 N          -1.8285  -17.9538   19.2011 N.ar    1  UNL1       -0.2462
     15 C          -1.5203  -17.7603   17.7458 C.3     1  UNL1        0.1538
     16 N          -3.0925  -17.5434   19.8967 N.ar    1  UNL1       -0.1539
     17 C          -8.8842  -16.0161   25.4439 C.3     1  UNL1        0.1340
     18 C          -9.7710  -16.9292   24.6502 C.ar    1  UNL1        0.0004
     19 C          -9.8673  -18.3818   25.0115 C.ar    1  UNL1       -0.0024
     20 C         -10.7541  -19.2948   24.2177 C.ar    1  UNL1       -0.0003
     21 C         -11.5445  -18.7552   23.0627 C.ar    1  UNL1        0.0038
     22 C         -11.4482  -17.3026   22.7014 C.ar    1  UNL1        0.0712
     23 C         -10.5614  -16.3896   23.4952 C.ar    1  UNL1        0.0015
     24 C         -12.2386  -16.7629   21.5464 C.3     1  UNL1        0.4186
     25 F         -13.0290  -16.2233   20.3914 F       1  UNL1       -0.1659
     26 F         -13.2252  -17.8825   21.6986 F       1  UNL1       -0.1659
     27 F         -11.2519  -15.6434   21.3943 F       1  UNL1       -0.1659
@<TRIPOS>BOND
     1     1     2    1
     2     2     3   ar
     3     3     7    1
     4     7     8    2
     5     7     9   am
     6     9    11    1
     7    11    12   ar
     8    12    13   ar
     9    13    14   ar
    10    14    15    1
    11    14    16   ar
    12     3     4   ar
    13     4     5   ar
    14     5     6   ar
    15     6    17    1
    16    17    18    1
    17    18    19   ar
    18    19    20   ar
    19    20    21   ar
    20    21    22   ar
    21    22    24    1
    22    24    25    1
    23    24    26    1
    24    24    27    1
    25    22    23   ar
    26     6     2   ar
    27    23    18   ar
    28    16    11   ar
    29     9    10    1
@<TRIPOS>MOLECULE
*****
 27 29 0 0 0
SMALL
GASTEIGER

@<TRIPOS>ATOM
      1 C          -8.5793  -18.8428   22.2947 C.3     1  UNL1        0.0518
      2 C          -8.4683  -19.2370   20.8517 C.ar    1  UNL1        0.0612
      3 C          -7.2040  -19.2874   20.0463 C.ar    1  UNL1        0.1481
      4 N          -7.5565  -19.7316   18.6575 N.ar    1  UNL1       -0.2196
      5 C          -9.0387  -19.9558   18.6048 C.ar    1  UNL1        0.1787
      6 N          -9.6023  -19.6501   19.9609 N.ar    1  UNL1       -0.3082
      7 C          -5.8286  -18.9524   20.5423 C.2     1  UNL1        0.2695
      8 O          -5.6590  -18.1556   21.8018 O.2     1  UNL1       -0.2681
      9 N          -4.6228  -19.4141   19.7788 N.am    1  UNL1       -0.2631
     10 H          -4.7341  -19.9370   18.9522 H       1  UNL1        0.1567
     11 C          -3.2474  -19.0791   20.2749 C.ar    1  UNL1        0.1557
     12 C          -2.6640  -19.4836   21.5962 C.ar    1  UNL1        0.0564
     13 C          -1.2700  -18.9352   21.6747 C.ar    1  UNL1        0.0981
     14 N          -0.9920  -18.1918   20.4018 N.ar    1  UNL1       -0.2462
     15 C           0.2842  -17.4838   20.0550 C.3     1  UNL1        0.1538
     16 N          -2.2141  -18.2807   19.5367 N.ar    1  UNL1       -0.1539
     17 C         -11.0462  -19.7415   20.3566 C.3     1  UNL1        0.1340
     18 C         -11.6593  -18.6707   21.2096 C.ar    1  UNL1        0.0004
     19 C         -11.6508  -17.2447   20.7444 C.ar    1  UNL1       -0.0024
     20 C         -12.2639  -16.1739   21.5974 C.ar    1  UNL1       -0.0003
     21 C         -12.8856  -16.5292   22.9154 C.ar    1  UNL1        0.0038
     22 C         -12.8942  -17.9552   23.3806 C.ar    1  UNL1        0.0712
     23 C         -12.2810  -19.0259   22.5276 C.ar    1  UNL1        0.0015
     24 C         -13.5159  -18.3104   24.6986 C.3     1  UNL1        0.4186
     25 F         -14.1375  -18.6657   26.0167 F       1  UNL1       -0.1659
     26 F         -14.8567  -17.8798   24.1822 F       1  UNL1       -0.1659
     27 F         -12.1750  -18.7411   25.2150 F       1  UNL1       -0.1659
@<TRIPOS>BOND
     1     1     2    1
     2     2     3   ar
     3     3     7    1
     4     7     8    2
     5     7     9   am
     6     9    11    1
     7    11    12   ar
     8    12    13   ar
     9    13    14   ar
    10    14    15    1
    11    14    16   ar
    12     3     4   ar
    13     4     5   ar
    14     5     6   ar
    15     6    17    1
    16    17    18    1
    17    18    19   ar
    18    19    20   ar
    19    20    21   ar
    20    21    22   ar
    21    22    24    1
    22    24    25    1
    23    24    26    1
    24    24    27    1
    25    22    23   ar
    26     6     2   ar
    27    23    18   ar
    28    16    11   ar
    29     9    10    1
@<TRIPOS>MOLECULE
*****
 27 29 0 0 0
SMALL
GASTEIGER

@<TRIPOS>ATOM
      1 C          -7.2209  -16.5942   23.1631 C.3     1  UNL1        0.0518
      2 C          -7.3096  -18.0684   22.9012 C.ar    1  UNL1        0.0612
      3 C          -6.2429  -18.9188   22.2776 C.ar    1  UNL1        0.1481
      4 N          -6.7547  -20.3272   22.2079 N.ar    1  UNL1       -0.2196
      5 C          -8.1376  -20.3471   22.7883 C.ar    1  UNL1        0.1787
      6 N          -8.4806  -18.9511   23.2168 N.ar    1  UNL1       -0.3082
      7 C          -4.9002  -18.4443   21.8065 C.2     1  UNL1        0.2695
      8 O          -4.1390  -17.4309   22.6087 O.2     1  UNL1       -0.2681
      9 N          -4.3186  -18.9833   20.5331 N.am    1  UNL1       -0.2631
     10 H          -4.8182  -19.6484   20.0066 H       1  UNL1        0.1567
     11 C          -2.9759  -18.5087   20.0620 C.ar    1  UNL1        0.1557
     12 C          -2.6968  -17.7879   18.7766 C.ar    1  UNL1        0.0564
     13 C          -1.2250  -17.5054   18.7138 C.ar    1  UNL1        0.0981
     14 N          -0.5945  -18.0517   19.9604 N.ar    1  UNL1       -0.2462
     15 C           0.8624  -17.9889   20.3120 C.3     1  UNL1        0.1538
     16 N          -1.6767  -18.6718   20.7937 N.ar    1  UNL1       -0.1539
     17 C          -9.7685  -18.5145   23.8498 C.3     1  UNL1        0.1340
     18 C         -10.8469  -17.8988   23.0083 C.ar    1  UNL1        0.0004
     19 C         -12.2886  -18.1093   23.3649 C.ar    1  UNL1       -0.0024
     20 C         -13.3669  -17.4936   22.5235 C.ar    1  UNL1       -0.0003
     21 C         -13.0035  -16.6674   21.3254 C.ar    1  UNL1        0.0038
     22 C         -11.5619  -16.4568   20.9688 C.ar    1  UNL1        0.0712
     23 C         -10.4835  -17.0725   21.8103 C.ar    1  UNL1        0.0015
     24 C         -11.1985  -15.6306   19.7708 C.3     1  UNL1        0.4186
     25 F         -10.8352  -14.8044   18.5728 F       1  UNL1       -0.1659
     26 F         -10.0470  -15.0388   20.5282 F       1  UNL1       -0.1659
     27 F         -12.3501  -16.2224   19.0134 F       1  UNL1       -0.1659
@<TRIPOS>BOND
     1     1     2    1
     2     2     3   ar
     3     3     7    1
     4     7     8    2
     5     7     9   am
     6     9    11    1
     7    11    12   ar
     8    12    13   ar
     9    13    14   ar
    10    14    15    1
    11    14    16   ar
    12     3     4   ar
    13     4     5   ar
    14     5     6   ar
    15     6    17    1
    16    17    18    1
    17    18    19   ar
    18    19    20   ar
    19    20    21   ar
    20    21    22   ar
    21    22    24    1
    22    24    25    1
    23    24    26    1
    24    24    27    1
    25    22    23   ar
    26     6     2   ar
    27    23    18   ar
    28    16    11   ar
    29     9    10    1
@<TRIPOS>MOLECULE
*****
 27 29 0 0 0
SMALL
GASTEIGER

@<TRIPOS>ATOM
      1 C          -7.7301  -18.3908   22.5060 C.3     1  UNL1        0.0518
      2 C          -7.5415  -17.2969   23.5148 C.ar    1  UNL1        0.0612
      3 C          -6.2896  -16.4979   23.7252 C.ar    1  UNL1        0.1481
      4 N          -6.5461  -15.5171   24.8308 N.ar    1  UNL1       -0.2196
      5 C          -7.9565  -15.7099   25.3037 C.ar    1  UNL1        0.1787
      6 N          -8.5717  -16.8099   24.4904 N.ar    1  UNL1       -0.3082
      7 C          -5.0066  -16.6525   22.9637 C.2     1  UNL1        0.2695
      8 O          -4.0617  -15.4938   22.8431 O.2     1  UNL1       -0.2681
      9 N          -4.6683  -17.9659   22.3229 N.am    1  UNL1       -0.2631
     10 H          -5.2885  -18.7264   22.4020 H       1  UNL1        0.1567
     11 C          -3.3853  -18.1205   21.5614 C.ar    1  UNL1        0.1557
     12 C          -2.1062  -18.6931   22.0962 C.ar    1  UNL1        0.0564
     13 C          -1.0865  -18.6561   20.9967 C.ar    1  UNL1        0.0981
     14 N          -1.7353  -18.0606   19.7825 N.ar    1  UNL1       -0.2462
     15 C          -1.0787  -17.8356   18.4527 C.3     1  UNL1        0.1538
     16 N          -3.1561  -17.7295   20.1315 N.ar    1  UNL1       -0.1539
     17 C          -9.9713  -17.3314   24.6284 C.3     1  UNL1        0.1340
     18 C         -10.9130  -17.2699   23.4624 C.ar    1  UNL1        0.0004
     19 C         -12.2175  -18.0086   23.5121 C.ar    1  UNL1       -0.0024
     20 C         -13.1591  -17.9471   22.3461 C.ar    1  UNL1       -0.0003
     21 C         -12.7962  -17.1469   21.1304 C.ar    1  UNL1        0.0038
     22 C         -11.4917  -16.4082   21.0807 C.ar    1  UNL1        0.0712
     23 C         -10.5501  -16.4697   22.2466 C.ar    1  UNL1        0.0015
     24 C         -11.1288  -15.6081   19.8649 C.3     1  UNL1        0.4186
     25 F         -10.7659  -14.8079   18.6492 F       1  UNL1       -0.1659
     26 F          -9.9684  -15.0109   20.6044 F       1  UNL1       -0.1659
     27 F         -12.2892  -16.2052   19.1255 F       1  UNL1       -0.1659
@<TRIPOS>BOND
     1     1     2    1
     2     2     3   ar
     3     3     7    1
     4     7     8    2
     5     7     9   am
     6     9    11    1
     7    11    12   ar
     8    12    13   ar
     9    13    14   ar
    10    14    15    1
    11    14    16   ar
    12     3     4   ar
    13     4     5   ar
    14     5     6   ar
    15     6    17    1
    16    17    18    1
    17    18    19   ar
    18    19    20   ar
    19    20    21   ar
    20    21    22   ar
    21    22    24    1
    22    24    25    1
    23    24    26    1
    24    24    27    1
    25    22    23   ar
    26     6     2   ar
    27    23    18   ar
    28    16    11   ar
    29     9    10    1
@<TRIPOS>MOLECULE
*****
 27 29 0 0 0
SMALL
GASTEIGER

@<TRIPOS>ATOM
      1 C          -7.0453  -19.7120   21.5876 C.3     1  UNL1        0.0518
      2 C          -6.4737  -18.5546   22.3517 C.ar    1  UNL1        0.0612
      3 C          -7.2569  -17.4421   22.9832 C.ar    1  UNL1        0.1481
      4 N          -6.2858  -16.5065   23.6402 N.ar    1  UNL1       -0.2196
      5 C          -4.9024  -17.0408   23.4147 C.ar    1  UNL1        0.1787
      6 N          -5.0185  -18.3066   22.6184 N.ar    1  UNL1       -0.3082
      7 C          -8.7492  -17.2916   22.9616 C.2     1  UNL1        0.2695
      8 O          -9.3641  -15.9575   22.6589 O.2     1  UNL1       -0.2681
      9 N          -9.6265  -18.4754   23.2427 N.am    1  UNL1       -0.2631
     10 H          -9.2229  -19.3511   23.4414 H       1  UNL1        0.1567
     11 C         -11.1188  -18.3249   23.2211 C.ar    1  UNL1        0.1557
     12 C         -11.9539  -17.9916   22.0205 C.ar    1  UNL1        0.0564
     13 C         -13.3892  -17.9420   22.4537 C.ar    1  UNL1        0.0981
     14 N         -13.4410  -18.2446   23.9219 N.ar    1  UNL1       -0.2462
     15 C         -14.6788  -18.3008   24.7675 C.3     1  UNL1        0.1538
     16 N         -12.0378  -18.4813   24.3962 N.ar    1  UNL1       -0.1539
     17 C          -3.8795  -19.1724   22.1678 C.3     1  UNL1        0.1340
     18 C          -3.0679  -18.7801   20.9688 C.ar    1  UNL1        0.0004
     19 C          -3.6808  -18.8261   19.6006 C.ar    1  UNL1       -0.0024
     20 C          -2.8692  -18.4338   18.4017 C.ar    1  UNL1       -0.0003
     21 C          -1.4447  -17.9955   18.5711 C.ar    1  UNL1        0.0038
     22 C          -0.8318  -17.9494   19.9394 C.ar    1  UNL1        0.0712
     23 C          -1.6434  -18.3417   21.1382 C.ar    1  UNL1        0.0015
     24 C           0.5927  -17.5110   20.1088 C.3     1  UNL1        0.4186
     25 F           2.0171  -17.0727   20.2782 F       1  UNL1       -0.1659
     26 F           0.1399  -16.0860   20.2282 F       1  UNL1       -0.1659
     27 F           1.0454  -18.9361   19.9893 F       1  UNL1       -0.1659
@<TRIPOS>BOND
     1     1     2    1
     2     2     3   ar
     3     3     7    1
     4     7     8    2
     5     7     9   am
     6     9    11    1
     7    11    12   ar
     8    12    13   ar
     9    13    14   ar
    10    14    15    1
    11    14    16   ar
    12     3     4   ar
    13     4     5   ar
    14     5     6   ar
    15     6    17    1
    16    17    18    1
    17    18    19   ar
    18    19    20   ar
    19    20    21   ar
    20    21    22   ar
    21    22    24    1
    22    24    25    1
    23    24    26    1
    24    24    27    1
    25    22    23   ar
    26     6     2   ar
    27    23    18   ar
    28    16    11   ar
    29     9    10    1
@<TRIPOS>MOLECULE
*****
 27 29 0 0 0
SMALL
GASTEIGER

@<TRIPOS>ATOM
      1 C          -6.7300  -16.3429   23.6577 C.3     1  UNL1        0.0518
      2 C          -7.0453  -17.7275   23.1746 C.ar    1  UNL1        0.0612
      3 C          -6.1709  -18.5766   22.3003 C.ar    1  UNL1        0.1481
      4 N          -6.8755  -19.8801   22.0663 N.ar    1  UNL1       -0.2196
      5 C          -8.1853  -19.8364   22.7960 C.ar    1  UNL1        0.1787
      6 N          -8.2903  -18.5061   23.4809 N.ar    1  UNL1       -0.3082
      7 C          -4.8278  -18.1902   21.7556 C.2     1  UNL1        0.2695
      8 O          -3.9638  -17.2219   22.5077 O.2     1  UNL1       -0.2681
      9 N          -4.3486  -18.7722   20.4588 N.am    1  UNL1       -0.2631
     10 H          -4.9157  -19.4078   19.9651 H       1  UNL1        0.1567
     11 C          -3.0055  -18.3858   19.9141 C.ar    1  UNL1        0.1557
     12 C          -2.7239  -17.9055   18.5213 C.ar    1  UNL1        0.0564
     13 C          -1.2525  -17.6348   18.4130 C.ar    1  UNL1        0.0981
     14 N          -0.6248  -17.9477   19.7389 N.ar    1  UNL1       -0.2462
     15 C           0.8309  -17.8191   20.0776 C.3     1  UNL1        0.1538
     16 N          -1.7082  -18.4119   20.6666 N.ar    1  UNL1       -0.1539
     17 C          -9.4386  -18.0368   24.3242 C.3     1  UNL1        0.1340
     18 C         -10.7337  -17.6451   23.6767 C.ar    1  UNL1        0.0004
     19 C         -10.7361  -16.6829   22.5260 C.ar    1  UNL1       -0.0024
     20 C         -12.0312  -16.2912   21.8786 C.ar    1  UNL1       -0.0003
     21 C         -13.3240  -16.8618   22.3818 C.ar    1  UNL1        0.0038
     22 C         -13.3216  -17.8240   23.5324 C.ar    1  UNL1        0.0712
     23 C         -12.0265  -18.2157   24.1799 C.ar    1  UNL1        0.0015
     24 C         -14.6144  -18.3946   24.0356 C.3     1  UNL1        0.4186
     25 F         -15.9071  -18.9652   24.5388 F       1  UNL1       -0.1659
     26 F         -15.0942  -18.5530   22.6233 F       1  UNL1       -0.1659
     27 F         -14.1345  -18.2363   25.4479 F       1  UNL1       -0.1659
@<TRIPOS>BOND
     1     1     2    1
     2     2     3   ar
     3     3     7    1
     4     7     8    2
     5     7     9   am
     6     9    11    1
     7    11    12   ar
     8    12    13   ar
     9    13    14   ar
    10    14    15    1
    11    14    16   ar
    12     3     4   ar
    13     4     5   ar
    14     5     6   ar
    15     6    17    1
    16    17    18    1
    17    18    19   ar
    18    19    20   ar
    19    20    21   ar
    20    21    22   ar
    21    22    24    1
    22    24    25    1
    23    24    26    1
    24    24    27    1
    25    22    23   ar
    26     6     2   ar
    27    23    18   ar
    28    16    11   ar
    29     9    10    1
@<TRIPOS>MOLECULE
*****
 27 29 0 0 0
SMALL
GASTEIGER

@<TRIPOS>ATOM
      1 C          -6.3520  -18.5777   22.6388 C.3     1  UNL1        0.0518
      2 C          -6.0385  -17.2380   23.2360 C.ar    1  UNL1        0.0612
      3 C          -7.0410  -16.2230   23.6995 C.ar    1  UNL1        0.1481
      4 N          -6.2896  -15.0356   24.2246 N.ar    1  UNL1       -0.2196
      5 C          -4.8228  -15.3169   24.0856 C.ar    1  UNL1        0.1787
      6 N          -4.6676  -16.6780   23.4746 N.ar    1  UNL1       -0.3082
      7 C          -8.5329  -16.3695   23.6471 C.2     1  UNL1        0.2695
      8 O          -9.3988  -15.5600   24.5662 O.2     1  UNL1       -0.2681
      9 N          -9.1589  -17.3257   22.6755 N.am    1  UNL1       -0.2631
     10 H          -8.5906  -17.8570   22.0722 H       1  UNL1        0.1567
     11 C         -10.6508  -17.4722   22.6231 C.ar    1  UNL1        0.1557
     12 C         -11.5139  -17.2765   21.4120 C.ar    1  UNL1        0.0564
     13 C         -12.9381  -17.5236   21.8130 C.ar    1  UNL1        0.0981
     14 N         -12.9551  -17.8720   23.2719 N.ar    1  UNL1       -0.2462
     15 C         -14.1721  -18.1953   24.0870 C.3     1  UNL1        0.1538
     16 N         -11.5415  -17.8402   23.7725 N.ar    1  UNL1       -0.1539
     17 C          -3.3694  -17.3594   23.1579 C.3     1  UNL1        0.1340
     18 C          -3.2121  -18.1119   21.8699 C.ar    1  UNL1        0.0004
     19 C          -3.3863  -19.6015   21.8454 C.ar    1  UNL1       -0.0024
     20 C          -3.2289  -20.3540   20.5574 C.ar    1  UNL1       -0.0003
     21 C          -2.8973  -19.6168   19.2938 C.ar    1  UNL1        0.0038
     22 C          -2.7231  -18.1272   19.3183 C.ar    1  UNL1        0.0712
     23 C          -2.8804  -17.3747   20.6063 C.ar    1  UNL1        0.0015
     24 C          -2.3915  -17.3900   18.0547 C.3     1  UNL1        0.4186
     25 F          -2.0598  -16.6528   16.7912 F       1  UNL1       -0.1659
     26 F          -1.0739  -18.1035   17.9842 F       1  UNL1       -0.1659
     27 F          -3.7090  -16.6764   18.1253 F       1  UNL1       -0.1659
@<TRIPOS>BOND
     1     1     2    1
     2     2     3   ar
     3     3     7    1
     4     7     8    2
     5     7     9   am
     6     9    11    1
     7    11    12   ar
     8    12    13   ar
     9    13    14   ar
    10    14    15    1
    11    14    16   ar
    12     3     4   ar
    13     4     5   ar
    14     5     6   ar
    15     6    17    1
    16    17    18    1
    17    18    19   ar
    18    19    20   ar
    19    20    21   ar
    20    21    22   ar
    21    22    24    1
    22    24    25    1
    23    24    26    1
    24    24    27    1
    25    22    23   ar
    26     6     2   ar
    27    23    18   ar
    28    16    11   ar
    29     9    10    1
@<TRIPOS>MOLECULE
*****
 27 29 0 0 0
SMALL
GASTEIGER

@<TRIPOS>ATOM
      1 C           0.4374    1.7915   22.5475 C.3     1  UNL1        0.0518
      2 C           0.5683    1.9335   21.0599 C.ar    1  UNL1        0.0612
      3 C          -0.4042    2.6253   20.1513 C.ar    1  UNL1        0.1481
      4 N           0.1212    2.5279   18.7497 N.ar    1  UNL1       -0.2196
      5 C           1.4184    1.7759   18.7921 C.ar    1  UNL1        0.1787
      6 N           1.6947    1.4085   20.2199 N.ar    1  UNL1       -0.3082
      7 C          -1.6783    3.2966   20.5707 C.2     1  UNL1        0.2695
      8 O          -1.6572    4.7229   21.0344 O.2     1  UNL1       -0.2681
      9 N          -2.9737    2.5416   20.5263 N.am    1  UNL1       -0.2631
     10 H          -2.9876    1.6054   20.2219 H       1  UNL1        0.1567
     11 C          -4.2479    3.2129   20.9456 C.ar    1  UNL1        0.1557
     12 C          -5.1960    3.9464   20.0440 C.ar    1  UNL1        0.0564
     13 C          -6.3317    4.4554   20.8813 C.ar    1  UNL1        0.0981
     14 N          -6.0854    4.0364   22.3004 N.ar    1  UNL1       -0.2462
     15 C          -6.9715    4.3333   23.4738 C.3     1  UNL1        0.1538
     16 N          -4.7975    3.2685   22.3401 N.ar    1  UNL1       -0.1539
     17 C           2.8880    0.6495   20.7199 C.3     1  UNL1        0.1340
     18 C           3.4723   -0.4581   19.8941 C.ar    1  UNL1        0.0004
     19 C           4.3231   -0.1359   18.7015 C.ar    1  UNL1       -0.0024
     20 C           4.9073   -1.2434   17.8758 C.ar    1  UNL1       -0.0003
     21 C           4.6408   -2.6732   18.2426 C.ar    1  UNL1        0.0038
     22 C           3.7899   -2.9955   19.4351 C.ar    1  UNL1        0.0712
     23 C           3.2057   -1.8879   20.2609 C.ar    1  UNL1        0.0015
     24 C           3.5234   -4.4253   19.8019 C.3     1  UNL1        0.4186
     25 F           3.2568   -5.8552   20.1687 F       1  UNL1       -0.1659
     26 F           2.6794   -4.5835   18.5720 F       1  UNL1       -0.1659
     27 F           4.3673   -4.2672   21.0318 F       1  UNL1       -0.1659
@<TRIPOS>BOND
     1     1     2    1
     2     2     3   ar
     3     3     7    1
     4     7     8    2
     5     7     9   am
     6     9    11    1
     7    11    12   ar
     8    12    13   ar
     9    13    14   ar
    10    14    15    1
    11    14    16   ar
    12     3     4   ar
    13     4     5   ar
    14     5     6   ar
    15     6    17    1
    16    17    18    1
    17    18    19   ar
    18    19    20   ar
    19    20    21   ar
    20    21    22   ar
    21    22    24    1
    22    24    25    1
    23    24    26    1
    24    24    27    1
    25    22    23   ar
    26     6     2   ar
    27    23    18   ar
    28    16    11   ar
    29     9    10    1
@<TRIPOS>MOLECULE
*****
 27 29 0 0 0
SMALL
GASTEIGER

@<TRIPOS>ATOM
      1 C          -0.5657    3.5503   18.2395 C.3     1  UNL1        0.0518
      2 C          -0.1499    2.7250   19.4211 C.ar    1  UNL1        0.0612
      3 C          -0.8870    2.6152   20.7229 C.ar    1  UNL1        0.1481
      4 N          -0.1167    1.6870   21.6147 N.ar    1  UNL1       -0.2196
      5 C           1.0963    1.2232   20.8640 C.ar    1  UNL1        0.1787
      6 N           1.0758    1.8647   19.5083 N.ar    1  UNL1       -0.3082
      7 C          -2.1691    3.3112   21.0717 C.2     1  UNL1        0.2695
      8 O          -2.1360    4.6412   21.7643 O.2     1  UNL1       -0.2681
      9 N          -3.4843    2.6772   20.7278 N.am    1  UNL1       -0.2631
     10 H          -3.5060    1.8043   20.2732 H       1  UNL1        0.1567
     11 C          -4.7664    3.3733   21.0766 C.ar    1  UNL1        0.1557
     12 C          -5.6235    4.1662   20.1350 C.ar    1  UNL1        0.0564
     13 C          -6.8033    4.6816   20.9047 C.ar    1  UNL1        0.0981
     14 N          -6.6753    4.2072   22.3219 N.ar    1  UNL1       -0.2462
     15 C          -7.6373    4.4916   23.4372 C.3     1  UNL1        0.1538
     16 N          -5.4164    3.3986   22.4282 N.ar    1  UNL1       -0.1539
     17 C           2.1010    1.6787   18.4292 C.3     1  UNL1        0.1340
     18 C           3.2742    0.7723   18.6576 C.ar    1  UNL1        0.0004
     19 C           4.6253    1.3539   18.9513 C.ar    1  UNL1       -0.0024
     20 C           5.7984    0.4475   19.1796 C.ar    1  UNL1       -0.0003
     21 C           5.6204   -1.0405   19.1142 C.ar    1  UNL1        0.0038
     22 C           4.2694   -1.6221   18.8204 C.ar    1  UNL1        0.0712
     23 C           3.0962   -0.7157   18.5921 C.ar    1  UNL1        0.0015
     24 C           4.0914   -3.1100   18.7550 C.3     1  UNL1        0.4186
     25 F           3.9135   -4.5980   18.6895 F       1  UNL1       -0.1659
     26 F           5.3037   -3.2164   17.8780 F       1  UNL1       -0.1659
     27 F           2.8792   -3.0037   19.6320 F       1  UNL1       -0.1659
@<TRIPOS>BOND
     1     1     2    1
     2     2     3   ar
     3     3     7    1
     4     7     8    2
     5     7     9   am
     6     9    11    1
     7    11    12   ar
     8    12    13   ar
     9    13    14   ar
    10    14    15    1
    11    14    16   ar
    12     3     4   ar
    13     4     5   ar
    14     5     6   ar
    15     6    17    1
    16    17    18    1
    17    18    19   ar
    18    19    20   ar
    19    20    21   ar
    20    21    22   ar
    21    22    24    1
    22    24    25    1
    23    24    26    1
    24    24    27    1
    25    22    23   ar
    26     6     2   ar
    27    23    18   ar
    28    16    11   ar
    29     9    10    1
