@<TRIPOS>MOLECULE
*****
 43 46 0 0 0
SMALL
GASTEIGER

@<TRIPOS>ATOM
      1 C           5.6658   -1.5279   30.8944 C.2     1  UNL1        0.2672
      2 O           4.6891   -1.0124   29.8794 O.2     1  UNL1       -0.2682
      3 N           6.7917   -2.4215   30.4657 N.am    1  UNL1       -0.2791
      4 H           7.4327   -2.7598   31.1319 H       1  UNL1        0.1552
      5 C           5.2181   -0.3935   35.2261 C.ar    1  UNL1        0.1575
      6 C           4.2583   -1.3624   34.6014 C.ar    1  UNL1        0.0402
      7 C           4.4075   -1.7405   33.1576 C.ar    1  UNL1        0.0269
      8 C           5.5166   -1.1498   32.3384 C.ar    1  UNL1        0.1350
      9 N           6.4763   -0.1810   32.9630 N.ar    1  UNL1       -0.2361
     10 C           6.3271    0.1972   34.4069 C.ar    1  UNL1        0.1357
     11 O           5.0688   -0.0155   36.6700 O.3     1  UNL1       -0.4775
     12 C           0.6273    3.6430   38.3695 C.3     1  UNL1        0.0895
     13 N           1.7377    2.7284   37.9446 N.3     1  UNL1       -0.2763
     14 C           2.6826    3.1500   36.8587 C.3     1  UNL1        0.0489
     15 C           1.7932    4.3567   36.9129 C.3     1  UNL1        0.0161
     16 C           3.3187    3.9907   35.7916 C.3     1  UNL1        0.0161
     17 C           3.7930    2.2354   36.4338 C.3     1  UNL1        0.0582
     18 C           3.9584    0.8992   37.0948 C.3     1  UNL1        0.1686
     19 C           3.0135    0.4775   38.1808 C.3     1  UNL1        0.0582
     20 C           1.9031    1.3922   38.6057 C.3     1  UNL1        0.0489
     21 C           1.6528    0.2338   39.5252 C.3     1  UNL1        0.0161
     22 C           0.7058    1.9044   39.3499 C.3     1  UNL1        0.0161
     23 C           6.9408   -2.7995   29.0218 C.ar    1  UNL1        0.0507
     24 C           6.5544   -4.1743   28.5627 C.ar    1  UNL1        0.0160
     25 C           6.7036   -4.5524   27.1188 C.ar    1  UNL1        0.0160
     26 C           7.2392   -3.5558   26.1340 C.ar    1  UNL1        0.0517
     27 C           7.6256   -2.1811   26.5931 C.ar    1  UNL1        0.0160
     28 C           7.4764   -1.8029   28.0370 C.ar    1  UNL1        0.0160
     29 N           7.3883   -3.9339   24.6902 N.am    1  UNL1       -0.2680
     30 C           6.3169   -3.5706   23.7052 C.2     1  UNL1        0.3093
     31 O           5.0963   -2.8293   24.1641 O.2     1  UNL1       -0.2521
     32 N           6.4661   -3.9487   22.2613 N.am    1  UNL1       -0.2508
     33 H           8.1895   -4.4204   24.3890 H       1  UNL1        0.1564
     34 H           7.2672   -4.4353   21.9601 H       1  UNL1        0.1579
     35 C           5.3946   -3.5855   21.2763 C.ar    1  UNL1        0.1771
     36 C           5.1083   -2.2094   20.7526 C.ar    1  UNL1        0.0734
     37 C           3.9581   -2.3081   19.7947 C.ar    1  UNL1        0.1549
     38 O           3.5336   -3.7452   19.7265 O.2     1  UNL1       -0.3565
     39 N           4.4215   -4.5347   20.6423 N.ar    1  UNL1       -0.0621
     40 C           3.3408   -1.1695   19.0379 C.3     1  UNL1        0.0539
     41 C           2.3063   -1.0158   20.1132 C.3     1  UNL1        0.0076
     42 C           4.3753   -1.3234   17.9627 C.3     1  UNL1        0.0076
     43 C           2.7236   -0.0311   18.2812 C.3     1  UNL1        0.0076
@<TRIPOS>BOND
     1    12    13    1
     2    13    14    1
     3    14    15    1
     4    14    16    1
     5    14    17    1
     6    17    18    1
     7    18    11    1
     8    11     5    1
     9     5     6   ar
    10     6     7   ar
    11     7     8   ar
    12     8     1    1
    13     1     2    2
    14     1     3   am
    15     3    23    1
    16    23    24   ar
    17    24    25   ar
    18    25    26   ar
    19    26    29    1
    20    29    30   am
    21    30    31    2
    22    30    32   am
    23    32    35    1
    24    35    36   ar
    25    36    37   ar
    26    37    40    1
    27    40    41    1
    28    40    42    1
    29    40    43    1
    30    37    38   ar
    31    38    39   ar
    32    26    27   ar
    33    27    28   ar
    34     8     9   ar
    35     9    10   ar
    36    18    19    1
    37    19    20    1
    38    20    21    1
    39    20    22    1
    40    20    13    1
    41    10     5   ar
    42    28    23   ar
    43    39    35   ar
    44     3     4    1
    45    29    33    1
    46    32    34    1
@<TRIPOS>MOLECULE
*****
 43 46 0 0 0
SMALL
GASTEIGER

@<TRIPOS>ATOM
      1 C           5.6928   -1.5499   30.8862 C.2     1  UNL1        0.2672
      2 O           4.7377   -1.0114   29.8627 O.2     1  UNL1       -0.2682
      3 N           6.8012   -2.4696   30.4672 N.am    1  UNL1       -0.2791
      4 H           7.4281   -2.8230   31.1391 H       1  UNL1        0.1552
      5 C           5.2329   -0.4063   35.2142 C.ar    1  UNL1        0.1575
      6 C           4.3228   -1.4338   34.6091 C.ar    1  UNL1        0.0402
      7 C           4.4761   -1.8150   33.1665 C.ar    1  UNL1        0.0269
      8 C           5.5395   -1.1687   32.3289 C.ar    1  UNL1        0.1350
      9 N           6.4495   -0.1412   32.9339 N.ar    1  UNL1       -0.2361
     10 C           6.2962    0.2400   34.3766 C.ar    1  UNL1        0.1357
     11 O           5.0795   -0.0251   36.6568 O.3     1  UNL1       -0.4775
     12 C           0.6359    3.6406   38.3353 C.3     1  UNL1        0.0895
     13 N           1.7468    2.7242   37.9156 N.3     1  UNL1       -0.2763
     14 C           1.9370    1.4088   38.6109 C.3     1  UNL1        0.0489
     15 C           0.7488    1.9313   39.3627 C.3     1  UNL1        0.0161
     16 C           1.7145    0.2748   39.5673 C.3     1  UNL1        0.0161
     17 C           3.0479    0.4924   38.1913 C.3     1  UNL1        0.0582
     18 C           3.9686    0.8913   37.0764 C.3     1  UNL1        0.1686
     19 C           3.7785    2.2068   36.3811 C.3     1  UNL1        0.0582
     20 C           2.6676    3.1232   36.8008 C.3     1  UNL1        0.0489
     21 C           3.2759    3.9389   35.6987 C.3     1  UNL1        0.0161
     22 C           1.7680    4.3229   36.8376 C.3     1  UNL1        0.0161
     23 C           6.9545   -2.8507   29.0246 C.ar    1  UNL1        0.0507
     24 C           6.5491   -4.2193   28.5633 C.ar    1  UNL1        0.0160
     25 C           6.7024   -4.6005   27.1207 C.ar    1  UNL1        0.0160
     26 C           7.2610   -3.6132   26.1393 C.ar    1  UNL1        0.0517
     27 C           7.6664   -2.2446   26.6006 C.ar    1  UNL1        0.0160
     28 C           7.5131   -1.8634   28.0433 C.ar    1  UNL1        0.0160
     29 N           7.4143   -3.9943   24.6967 N.am    1  UNL1       -0.2680
     30 C           6.3490   -3.6269   23.7066 C.2     1  UNL1        0.3093
     31 O           5.1305   -2.8783   24.1592 O.2     1  UNL1       -0.2521
     32 N           6.5023   -4.0081   22.2640 N.am    1  UNL1       -0.2508
     33 H           8.2140   -4.4857   24.3997 H       1  UNL1        0.1564
     34 H           7.3020   -4.4994   21.9670 H       1  UNL1        0.1579
     35 C           5.4370   -3.6406   21.2739 C.ar    1  UNL1        0.1771
     36 C           5.1355   -2.2584   20.7755 C.ar    1  UNL1        0.0734
     37 C           3.9984   -2.3545   19.8019 C.ar    1  UNL1        0.1549
     38 O           3.5971   -3.7961   19.6986 O.2     1  UNL1       -0.3565
     39 N           4.4863   -4.5911   20.6084 N.ar    1  UNL1       -0.0621
     40 C           3.3724   -1.2098   19.0616 C.3     1  UNL1        0.0539
     41 C           2.4256   -0.9890   20.2039 C.3     1  UNL1        0.0076
     42 C           4.3193   -1.4308   17.9194 C.3     1  UNL1        0.0076
     43 C           2.7465   -0.0653   18.3214 C.3     1  UNL1        0.0076
@<TRIPOS>BOND
     1    12    13    1
     2    13    14    1
     3    14    15    1
     4    14    16    1
     5    14    17    1
     6    17    18    1
     7    18    11    1
     8    11     5    1
     9     5     6   ar
    10     6     7   ar
    11     7     8   ar
    12     8     1    1
    13     1     2    2
    14     1     3   am
    15     3    23    1
    16    23    24   ar
    17    24    25   ar
    18    25    26   ar
    19    26    29    1
    20    29    30   am
    21    30    31    2
    22    30    32   am
    23    32    35    1
    24    35    36   ar
    25    36    37   ar
    26    37    40    1
    27    40    41    1
    28    40    42    1
    29    40    43    1
    30    37    38   ar
    31    38    39   ar
    32    26    27   ar
    33    27    28   ar
    34     8     9   ar
    35     9    10   ar
    36    18    19    1
    37    19    20    1
    38    20    21    1
    39    20    22    1
    40    20    13    1
    41    10     5   ar
    42    28    23   ar
    43    39    35   ar
    44     3     4    1
    45    29    33    1
    46    32    34    1
@<TRIPOS>MOLECULE
*****
 43 46 0 0 0
SMALL
GASTEIGER

@<TRIPOS>ATOM
      1 C          -2.1309    3.1304   20.8316 C.2     1  UNL1        0.2672
      2 O          -3.3292    3.5316   20.0234 O.2     1  UNL1       -0.2682
      3 N          -2.0977    3.3978   22.3071 N.am    1  UNL1       -0.2791
      4 H          -1.3112    3.1345   22.8376 H       1  UNL1        0.1552
      5 C           1.3645    1.1246   18.8292 C.ar    1  UNL1        0.1575
      6 C           0.8792    2.4552   18.3349 C.ar    1  UNL1        0.0402
      7 C          -0.2859    3.1237   19.0023 C.ar    1  UNL1        0.0269
      8 C          -0.9657    2.4618   20.1641 C.ar    1  UNL1        0.1350
      9 N          -0.4805    1.1314   20.6584 N.ar    1  UNL1       -0.2361
     10 C           0.6847    0.4627   19.9910 C.ar    1  UNL1        0.1357
     11 O           2.5296    0.4561   18.1617 O.3     1  UNL1       -0.4775
     12 C           6.4015   -2.7740   21.4136 C.3     1  UNL1        0.0895
     13 N           5.4335   -1.9665   20.6007 N.3     1  UNL1       -0.2763
     14 C           4.3967   -2.6572   19.7654 C.3     1  UNL1        0.0489
     15 C           5.0878   -3.8483   20.3599 C.3     1  UNL1        0.0161
     16 C           3.5998   -3.7615   19.1365 C.3     1  UNL1        0.0161
     17 C           3.4287   -1.8496   18.9524 C.3     1  UNL1        0.0582
     18 C           3.4976   -0.3514   18.9747 C.3     1  UNL1        0.1686
     19 C           4.5345    0.3393   19.8100 C.3     1  UNL1        0.0582
     20 C           5.5024   -0.4682   20.6230 C.3     1  UNL1        0.0489
     21 C           5.9631    0.9166   20.9694 C.3     1  UNL1        0.0161
     22 C           6.6304   -0.7947   21.5563 C.3     1  UNL1        0.0161
     23 C          -3.2628    4.0664   22.9745 C.ar    1  UNL1        0.0507
     24 C          -4.2371    3.2531   23.7741 C.ar    1  UNL1        0.0160
     25 C          -5.4022    3.9217   24.4415 C.ar    1  UNL1        0.0160
     26 C          -5.5931    5.4036   24.3094 C.ar    1  UNL1        0.0517
     27 C          -4.6189    6.2169   23.5098 C.ar    1  UNL1        0.0160
     28 C          -3.4537    5.5483   22.8424 C.ar    1  UNL1        0.0160
     29 N          -6.7582    6.0722   24.9768 N.am    1  UNL1       -0.2680
     30 C          -8.1320    5.9495   24.3870 C.2     1  UNL1        0.3093
     31 O          -8.3406    5.1582   23.1299 O.2     1  UNL1       -0.2521
     32 N          -9.2971    6.6181   25.0544 N.am    1  UNL1       -0.2508
     33 H          -6.6213    6.5915   25.8019 H       1  UNL1        0.1564
     34 H          -9.1602    7.1374   25.8795 H       1  UNL1        0.1579
     35 C         -10.6709    6.4954   24.4647 C.ar    1  UNL1        0.1771
     36 C         -11.7535    5.5705   24.9363 C.ar    1  UNL1        0.0734
     37 C         -12.9550    5.7797   24.0629 C.ar    1  UNL1        0.1549
     38 O         -12.6148    6.8338   23.0514 O.2     1  UNL1       -0.3565
     39 N         -11.2032    7.2762   23.2997 N.ar    1  UNL1       -0.0621
     40 C         -14.2663    5.0608   24.1803 C.3     1  UNL1        0.0539
     41 C         -14.1459    5.0857   25.6753 C.3     1  UNL1        0.0076
     42 C         -14.3865    5.0359   22.6853 C.3     1  UNL1        0.0076
     43 C         -15.5775    4.3420   24.2977 C.3     1  UNL1        0.0076
@<TRIPOS>BOND
     1    12    13    1
     2    13    14    1
     3    14    15    1
     4    14    16    1
     5    14    17    1
     6    17    18    1
     7    18    11    1
     8    11     5    1
     9     5     6   ar
    10     6     7   ar
    11     7     8   ar
    12     8     1    1
    13     1     2    2
    14     1     3   am
    15     3    23    1
    16    23    24   ar
    17    24    25   ar
    18    25    26   ar
    19    26    29    1
    20    29    30   am
    21    30    31    2
    22    30    32   am
    23    32    35    1
    24    35    36   ar
    25    36    37   ar
    26    37    40    1
    27    40    41    1
    28    40    42    1
    29    40    43    1
    30    37    38   ar
    31    38    39   ar
    32    26    27   ar
    33    27    28   ar
    34     8     9   ar
    35     9    10   ar
    36    18    19    1
    37    19    20    1
    38    20    21    1
    39    20    22    1
    40    20    13    1
    41    10     5   ar
    42    28    23   ar
    43    39    35   ar
    44     3     4    1
    45    29    33    1
    46    32    34    1
@<TRIPOS>MOLECULE
*****
 43 46 0 0 0
SMALL
GASTEIGER

@<TRIPOS>ATOM
      1 C           6.8273   -2.6881   27.4898 C.2     1  UNL1        0.2672
      2 O           8.2528   -2.6735   27.9564 O.2     1  UNL1       -0.2682
      3 N           5.7244   -2.3174   28.4365 N.am    1  UNL1       -0.2791
      4 H           4.7888   -2.3270   28.1303 H       1  UNL1        0.1552
      5 C           5.8594   -3.8443   23.2499 C.ar    1  UNL1        0.1575
      6 C           6.8568   -4.6426   24.0360 C.ar    1  UNL1        0.0402
      7 C           7.1794   -4.2573   25.4492 C.ar    1  UNL1        0.0269
      8 C           6.5046   -3.0735   26.0765 C.ar    1  UNL1        0.1350
      9 N           5.5073   -2.2751   25.2905 N.ar    1  UNL1       -0.2361
     10 C           5.1846   -2.6605   23.8771 C.ar    1  UNL1        0.1357
     11 O           5.5368   -4.2297   21.8366 O.3     1  UNL1       -0.4775
     12 C           4.9289    0.0103   17.6350 C.3     1  UNL1        0.0895
     13 N           5.0809   -1.0497   18.6854 N.3     1  UNL1       -0.2763
     14 C           3.9067   -1.4386   19.5339 C.3     1  UNL1        0.0489
     15 C           3.2700   -0.3869   18.6745 C.3     1  UNL1        0.0161
     16 C           2.5113   -1.4623   20.0839 C.3     1  UNL1        0.0161
     17 C           4.0586   -2.4986   20.5843 C.3     1  UNL1        0.0582
     18 C           5.3848   -3.1697   20.7862 C.3     1  UNL1        0.1686
     19 C           6.5590   -2.7807   19.9378 C.3     1  UNL1        0.0582
     20 C           6.4071   -1.7208   18.8874 C.3     1  UNL1        0.0489
     21 C           7.8552   -2.0653   18.7022 C.3     1  UNL1        0.0161
     22 C           6.7581   -0.7804   17.7727 C.3     1  UNL1        0.0161
     23 C           6.0471   -1.9320   29.8498 C.ar    1  UNL1        0.0507
     24 C           6.2648   -0.4905   30.2031 C.ar    1  UNL1        0.0160
     25 C           6.5875   -0.1052   31.6163 C.ar    1  UNL1        0.0160
     26 C           6.6925   -1.1613   32.6763 C.ar    1  UNL1        0.0517
     27 C           6.4747   -2.6027   32.3231 C.ar    1  UNL1        0.0160
     28 C           6.1520   -2.9881   30.9098 C.ar    1  UNL1        0.0160
     29 N           7.0151   -0.7759   34.0896 N.am    1  UNL1       -0.2680
     30 C           6.0139   -0.0141   34.9065 C.2     1  UNL1        0.3093
     31 O           4.6901    0.3623   34.3101 O.2     1  UNL1       -0.2521
     32 N           6.3366    0.3712   36.3198 N.am    1  UNL1       -0.2508
     33 H           7.8840   -1.0230   34.4810 H       1  UNL1        0.1564
     34 H           7.2055    0.1241   36.7112 H       1  UNL1        0.1579
     35 C           5.3354    1.1331   37.1367 C.ar    1  UNL1        0.1771
     36 C           3.9219    0.7145   37.4137 C.ar    1  UNL1        0.0734
     37 C           3.2849    1.7699   38.2682 C.ar    1  UNL1        0.1549
     38 O           4.3048    2.8409   38.5194 O.2     1  UNL1       -0.3565
     39 N           5.5721    2.4473   37.8200 N.ar    1  UNL1       -0.0621
     40 C           1.8755    1.7568   38.7815 C.3     1  UNL1        0.0539
     41 C           1.6642    3.1381   38.2363 C.3     1  UNL1        0.0076
     42 C           2.0870    0.3755   39.3267 C.3     1  UNL1        0.0076
     43 C           0.4662    1.7436   39.2948 C.3     1  UNL1        0.0076
@<TRIPOS>BOND
     1    12    13    1
     2    13    14    1
     3    14    15    1
     4    14    16    1
     5    14    17    1
     6    17    18    1
     7    18    11    1
     8    11     5    1
     9     5     6   ar
    10     6     7   ar
    11     7     8   ar
    12     8     1    1
    13     1     2    2
    14     1     3   am
    15     3    23    1
    16    23    24   ar
    17    24    25   ar
    18    25    26   ar
    19    26    29    1
    20    29    30   am
    21    30    31    2
    22    30    32   am
    23    32    35    1
    24    35    36   ar
    25    36    37   ar
    26    37    40    1
    27    40    41    1
    28    40    42    1
    29    40    43    1
    30    37    38   ar
    31    38    39   ar
    32    26    27   ar
    33    27    28   ar
    34     8     9   ar
    35     9    10   ar
    36    18    19    1
    37    19    20    1
    38    20    21    1
    39    20    22    1
    40    20    13    1
    41    10     5   ar
    42    28    23   ar
    43    39    35   ar
    44     3     4    1
    45    29    33    1
    46    32    34    1
@<TRIPOS>MOLECULE
*****
 43 46 0 0 0
SMALL
GASTEIGER

@<TRIPOS>ATOM
      1 C           5.8510   -2.0551   27.5802 C.2     1  UNL1        0.2672
      2 O           4.9269   -0.9811   28.0728 O.2     1  UNL1       -0.2682
      3 N           6.8770   -2.6430   28.5030 N.am    1  UNL1       -0.2791
      4 H           7.4836   -3.3479   28.1798 H       1  UNL1        0.1552
      5 C           5.5452   -3.5131   23.3339 C.ar    1  UNL1        0.1575
      6 C           4.6654   -2.3945   23.8081 C.ar    1  UNL1        0.0402
      7 C           4.7674   -1.9085   25.2235 C.ar    1  UNL1        0.0269
      8 C           5.7491   -2.5411   26.1648 C.ar    1  UNL1        0.1350
      9 N           6.6288   -3.6597   25.6907 N.ar    1  UNL1       -0.2361
     10 C           6.5269   -4.1457   24.2752 C.ar    1  UNL1        0.1357
     11 O           5.4432   -3.9991   21.9185 O.3     1  UNL1       -0.4775
     12 C           4.8203   -0.0634   17.4328 C.3     1  UNL1        0.0895
     13 N           4.9760   -1.0473   18.5542 N.3     1  UNL1       -0.2763
     14 C           6.3105   -1.6796   18.8173 C.3     1  UNL1        0.0489
     15 C           6.6605   -0.8105   17.6459 C.3     1  UNL1        0.0161
     16 C           7.7665   -2.0101   18.6735 C.3     1  UNL1        0.0161
     17 C           6.4662   -2.6636   19.9387 C.3     1  UNL1        0.0582
     18 C           5.2875   -3.0152   20.7971 C.3     1  UNL1        0.1686
     19 C           3.9530   -2.3828   20.5340 C.3     1  UNL1        0.0582
     20 C           3.7973   -1.3989   19.4126 C.3     1  UNL1        0.0489
     21 C           2.3953   -1.4102   19.9458 C.3     1  UNL1        0.0161
     22 C           3.1546   -0.4189   18.4764 C.3     1  UNL1        0.0161
     23 C           6.9789   -2.1570   29.9184 C.ar    1  UNL1        0.0507
     24 C           7.7081   -0.8819   30.2229 C.ar    1  UNL1        0.0160
     25 C           7.8100   -0.3958   31.6383 C.ar    1  UNL1        0.0160
     26 C           7.1828   -1.1848   32.7492 C.ar    1  UNL1        0.0517
     27 C           6.4537   -2.4598   32.4448 C.ar    1  UNL1        0.0160
     28 C           6.3517   -2.9459   31.0293 C.ar    1  UNL1        0.0160
     29 N           7.2847   -0.6988   34.1646 N.am    1  UNL1       -0.2680
     30 C           6.1726    0.1122   34.7610 C.2     1  UNL1        0.3093
     31 O           4.9587    0.4372   33.9420 O.2     1  UNL1       -0.2521
     32 N           6.2745    0.5983   36.1764 N.am    1  UNL1       -0.2508
     33 H           8.0814   -0.9120   34.7021 H       1  UNL1        0.1564
     34 H           7.0712    0.3850   36.7139 H       1  UNL1        0.1579
     35 C           5.1624    1.4093   36.7728 C.ar    1  UNL1        0.1771
     36 C           3.9558    0.8661   37.4792 C.ar    1  UNL1        0.0734
     37 C           3.1094    2.0269   37.9105 C.ar    1  UNL1        0.1549
     38 O           3.7930    3.2877   37.4707 O.2     1  UNL1       -0.3565
     39 N           5.0619    2.9059   36.7675 N.ar    1  UNL1       -0.0621
     40 C           1.8080    1.9420   38.6515 C.3     1  UNL1        0.0539
     41 C           2.1401    0.5416   39.0740 C.3     1  UNL1        0.0076
     42 C           1.4760    3.3425   38.2289 C.3     1  UNL1        0.0076
     43 C           0.5066    1.8572   39.3925 C.3     1  UNL1        0.0076
@<TRIPOS>BOND
     1    12    13    1
     2    13    14    1
     3    14    15    1
     4    14    16    1
     5    14    17    1
     6    17    18    1
     7    18    11    1
     8    11     5    1
     9     5     6   ar
    10     6     7   ar
    11     7     8   ar
    12     8     1    1
    13     1     2    2
    14     1     3   am
    15     3    23    1
    16    23    24   ar
    17    24    25   ar
    18    25    26   ar
    19    26    29    1
    20    29    30   am
    21    30    31    2
    22    30    32   am
    23    32    35    1
    24    35    36   ar
    25    36    37   ar
    26    37    40    1
    27    40    41    1
    28    40    42    1
    29    40    43    1
    30    37    38   ar
    31    38    39   ar
    32    26    27   ar
    33    27    28   ar
    34     8     9   ar
    35     9    10   ar
    36    18    19    1
    37    19    20    1
    38    20    21    1
    39    20    22    1
    40    20    13    1
    41    10     5   ar
    42    28    23   ar
    43    39    35   ar
    44     3     4    1
    45    29    33    1
    46    32    34    1
@<TRIPOS>MOLECULE
*****
 43 46 0 0 0
SMALL
GASTEIGER

@<TRIPOS>ATOM
      1 C           1.8173    1.4468   26.3314 C.2     1  UNL1        0.2672
      2 O           3.0581    1.1612   27.1242 O.2     1  UNL1       -0.2682
      3 N           0.6293    2.0748   26.9979 N.am    1  UNL1       -0.2791
      4 H          -0.1851    2.2622   26.4775 H       1  UNL1        0.1552
      5 C           1.6587    0.4195   21.9530 C.ar    1  UNL1        0.1575
      6 C           2.6994   -0.2070   22.8332 C.ar    1  UNL1        0.0402
      7 C           2.7522    0.1355   24.2926 C.ar    1  UNL1        0.0269
      8 C           1.7644    1.1043   24.8719 C.ar    1  UNL1        0.1350
      9 N           0.7238    1.7308   23.9917 N.ar    1  UNL1       -0.2361
     10 C           0.6709    1.3883   22.5323 C.ar    1  UNL1        0.1357
     11 O           1.6059    0.0770   20.4936 O.3     1  UNL1       -0.4775
     12 C           6.4199   -2.2669   17.7859 C.3     1  UNL1        0.0895
     13 N           5.2164   -1.6809   18.4628 N.3     1  UNL1       -0.2763
     14 C           4.1712   -2.5837   19.0480 C.3     1  UNL1        0.0489
     15 C           5.1269   -3.6067   18.5094 C.3     1  UNL1        0.0161
     16 C           3.4578   -3.8418   19.4461 C.3     1  UNL1        0.0161
     17 C           2.9677   -1.9977   19.7249 C.3     1  UNL1        0.0582
     18 C           2.8094   -0.5089   19.8167 C.3     1  UNL1        0.1686
     19 C           3.8546    0.3938   19.2315 C.3     1  UNL1        0.0582
     20 C           5.0581   -0.1922   18.5546 C.3     1  UNL1        0.0489
     21 C           5.3534    1.2694   18.3915 C.3     1  UNL1        0.0161
     22 C           6.3641   -0.2705   17.8210 C.3     1  UNL1        0.0161
     23 C           0.6822    2.4171   28.4573 C.ar    1  UNL1        0.0507
     24 C           0.2053    1.4266   29.4779 C.ar    1  UNL1        0.0160
     25 C           0.2582    1.7690   30.9373 C.ar    1  UNL1        0.0160
     26 C           0.7880    3.1019   31.3762 C.ar    1  UNL1        0.0517
     27 C           1.2649    4.0924   30.3557 C.ar    1  UNL1        0.0160
     28 C           1.2120    3.7501   28.8962 C.ar    1  UNL1        0.0160
     29 N           0.8409    3.4443   32.8356 N.am    1  UNL1       -0.2680
     30 C           1.8073    2.7355   33.7377 C.2     1  UNL1        0.3093
     31 O           2.7208    1.6844   33.1804 O.2     1  UNL1       -0.2521
     32 N           1.8602    3.0779   35.1971 N.am    1  UNL1       -0.2508
     33 H           0.2413    4.1342   33.2014 H       1  UNL1        0.1564
     34 H           1.2607    3.7678   35.5630 H       1  UNL1        0.1579
     35 C           2.8266    2.3691   36.0993 C.ar    1  UNL1        0.1771
     36 C           4.3106    2.2749   35.9017 C.ar    1  UNL1        0.0734
     37 C           4.8798    1.4777   37.0376 C.ar    1  UNL1        0.1549
     38 O           3.7476    1.0792   37.9374 O.2     1  UNL1       -0.3565
     39 N           2.4786    1.6302   37.3574 N.ar    1  UNL1       -0.0621
     40 C           6.3271    1.1386   37.2386 C.3     1  UNL1        0.0539
     41 C           6.1085   -0.1879   36.5734 C.3     1  UNL1        0.0076
     42 C           6.5455    2.4651   37.9039 C.3     1  UNL1        0.0076
     43 C           7.7742    0.7995   37.4396 C.3     1  UNL1        0.0076
@<TRIPOS>BOND
     1    12    13    1
     2    13    14    1
     3    14    15    1
     4    14    16    1
     5    14    17    1
     6    17    18    1
     7    18    11    1
     8    11     5    1
     9     5     6   ar
    10     6     7   ar
    11     7     8   ar
    12     8     1    1
    13     1     2    2
    14     1     3   am
    15     3    23    1
    16    23    24   ar
    17    24    25   ar
    18    25    26   ar
    19    26    29    1
    20    29    30   am
    21    30    31    2
    22    30    32   am
    23    32    35    1
    24    35    36   ar
    25    36    37   ar
    26    37    40    1
    27    40    41    1
    28    40    42    1
    29    40    43    1
    30    37    38   ar
    31    38    39   ar
    32    26    27   ar
    33    27    28   ar
    34     8     9   ar
    35     9    10   ar
    36    18    19    1
    37    19    20    1
    38    20    21    1
    39    20    22    1
    40    20    13    1
    41    10     5   ar
    42    28    23   ar
    43    39    35   ar
    44     3     4    1
    45    29    33    1
    46    32    34    1
@<TRIPOS>MOLECULE
*****
 43 46 0 0 0
SMALL
GASTEIGER

@<TRIPOS>ATOM
      1 C          -7.7171    5.1830   24.1504 C.2     1  UNL1        0.2672
      2 O          -6.8752    6.3157   24.6587 O.2     1  UNL1       -0.2682
      3 N          -7.0723    4.0272   23.4445 N.am    1  UNL1       -0.2791
      4 H          -7.6249    3.2839   23.1109 H       1  UNL1        0.1552
      5 C         -12.1774    5.2527   24.7432 C.ar    1  UNL1        0.1575
      6 C         -11.4055    6.5384   24.7062 C.ar    1  UNL1        0.0402
      7 C          -9.9188    6.5151   24.5086 C.ar    1  UNL1        0.0269
      8 C          -9.2039    5.2063   24.3480 C.ar    1  UNL1        0.1350
      9 N          -9.9757    3.9206   24.3851 N.ar    1  UNL1       -0.2361
     10 C         -11.4625    3.9439   24.5827 C.ar    1  UNL1        0.1357
     11 O         -13.6641    5.2760   24.9408 O.3     1  UNL1       -0.4775
     12 C         -17.3261    4.4705   20.2567 C.3     1  UNL1        0.0895
     13 N         -16.4106    4.6719   21.4277 N.3     1  UNL1       -0.2763
     14 C         -15.1638    5.4912   21.2728 C.3     1  UNL1        0.0489
     15 C         -15.7124    5.5859   19.8799 C.3     1  UNL1        0.0161
     16 C         -14.1075    6.3435   20.6341 C.3     1  UNL1        0.0161
     17 C         -14.2483    5.6926   22.4438 C.3     1  UNL1        0.0582
     18 C         -14.5796    5.0746   23.7698 C.3     1  UNL1        0.1686
     19 C         -15.8264    4.2553   23.9248 C.3     1  UNL1        0.0582
     20 C         -16.7419    4.0539   22.7537 C.3     1  UNL1        0.0489
     21 C         -17.4803    3.2716   23.7991 C.3     1  UNL1        0.0161
     22 C         -17.9139    3.5808   21.9458 C.3     1  UNL1        0.0161
     23 C          -5.5856    4.0041   23.2470 C.ar    1  UNL1        0.0507
     24 C          -4.9743    4.7057   22.0704 C.ar    1  UNL1        0.0160
     25 C          -3.4876    4.6825   21.8728 C.ar    1  UNL1        0.0160
     26 C          -2.6121    3.9578   22.8517 C.ar    1  UNL1        0.0517
     27 C          -3.2233    3.2562   24.0282 C.ar    1  UNL1        0.0160
     28 C          -4.7101    3.2794   24.2259 C.ar    1  UNL1        0.0160
     29 N          -1.1253    3.9346   22.6542 N.am    1  UNL1       -0.2680
     30 C          -0.5231    3.0606   21.5942 C.2     1  UNL1        0.3093
     31 O          -1.4077    2.2098   20.7318 O.2     1  UNL1       -0.2521
     32 N           0.9636    3.0374   21.3966 N.am    1  UNL1       -0.2508
     33 H          -0.5448    4.4930   23.2202 H       1  UNL1        0.1564
     34 H           1.5442    3.5958   21.9626 H       1  UNL1        0.1579
     35 C           1.5658    2.1634   20.3366 C.ar    1  UNL1        0.1771
     36 C           2.1576    0.8014   20.5481 C.ar    1  UNL1        0.0734
     37 C           2.6395    0.2942   19.2213 C.ar    1  UNL1        0.1549
     38 O           2.3456    1.3428   18.1897 O.2     1  UNL1       -0.3565
     39 N           1.6820    2.4981   18.8790 N.ar    1  UNL1       -0.0621
     40 C           3.2995   -1.0292   18.9700 C.3     1  UNL1        0.0539
     41 C           2.8651   -1.5029   20.3254 C.3     1  UNL1        0.0076
     42 C           3.7338   -0.5553   17.6147 C.3     1  UNL1        0.0076
     43 C           3.9594   -2.3525   18.7188 C.3     1  UNL1        0.0076
@<TRIPOS>BOND
     1    12    13    1
     2    13    14    1
     3    14    15    1
     4    14    16    1
     5    14    17    1
     6    17    18    1
     7    18    11    1
     8    11     5    1
     9     5     6   ar
    10     6     7   ar
    11     7     8   ar
    12     8     1    1
    13     1     2    2
    14     1     3   am
    15     3    23    1
    16    23    24   ar
    17    24    25   ar
    18    25    26   ar
    19    26    29    1
    20    29    30   am
    21    30    31    2
    22    30    32   am
    23    32    35    1
    24    35    36   ar
    25    36    37   ar
    26    37    40    1
    27    40    41    1
    28    40    42    1
    29    40    43    1
    30    37    38   ar
    31    38    39   ar
    32    26    27   ar
    33    27    28   ar
    34     8     9   ar
    35     9    10   ar
    36    18    19    1
    37    19    20    1
    38    20    21    1
    39    20    22    1
    40    20    13    1
    41    10     5   ar
    42    28    23   ar
    43    39    35   ar
    44     3     4    1
    45    29    33    1
    46    32    34    1
@<TRIPOS>MOLECULE
*****
 43 46 0 0 0
SMALL
GASTEIGER

@<TRIPOS>ATOM
      1 C           2.9637    0.0838   30.4849 C.2     1  UNL1        0.2672
      2 O           3.4171   -0.8438   29.3968 O.2     1  UNL1       -0.2682
      3 N           1.9745    1.1697   30.1810 N.am    1  UNL1       -0.2791
      4 H           1.6769    1.7785   30.8951 H       1  UNL1        0.1552
      5 C           4.5711   -0.3910   34.6612 C.ar    1  UNL1        0.1575
      6 C           4.3194    0.9794   34.1057 C.ar    1  UNL1        0.0402
      7 C           3.7836    1.1377   32.7137 C.ar    1  UNL1        0.0269
      8 C           3.4995   -0.0745   31.8771 C.ar    1  UNL1        0.1350
      9 N           3.7511   -1.4449   32.4325 N.ar    1  UNL1       -0.2361
     10 C           4.2869   -1.6032   33.8246 C.ar    1  UNL1        0.1357
     11 O           5.1068   -0.5493   36.0533 O.3     1  UNL1       -0.4775
     12 C           4.6514    3.9689   39.9749 C.3     1  UNL1        0.0895
     13 N           4.7652    2.8393   38.9945 N.3     1  UNL1       -0.2763
     14 C           6.1066    2.4584   38.4416 C.3     1  UNL1        0.0489
     15 C           6.5069    3.5924   39.3381 C.3     1  UNL1        0.0161
     16 C           7.5869    2.4713   38.2001 C.3     1  UNL1        0.0161
     17 C           6.2204    1.3289   37.4612 C.3     1  UNL1        0.0582
     18 C           4.9930    0.5803   37.0337 C.3     1  UNL1        0.1686
     19 C           3.6516    0.9612   37.5865 C.3     1  UNL1        0.0582
     20 C           3.5378    2.0907   38.5669 C.3     1  UNL1        0.0489
     21 C           2.0970    1.6855   38.4679 C.3     1  UNL1        0.0161
     22 C           2.9234    3.0795   39.5129 C.3     1  UNL1        0.0161
     23 C           1.4388    1.3279   28.7889 C.ar    1  UNL1        0.0507
     24 C           0.1259    0.7059   28.4153 C.ar    1  UNL1        0.0160
     25 C          -0.4099    0.8642   27.0233 C.ar    1  UNL1        0.0160
     26 C           0.3672    1.6444   26.0047 C.ar    1  UNL1        0.0517
     27 C           1.6800    2.2664   26.3783 C.ar    1  UNL1        0.0160
     28 C           2.2158    2.1082   27.7704 C.ar    1  UNL1        0.0160
     29 N          -0.1686    1.8027   24.6127 N.am    1  UNL1       -0.2680
     30 C           0.6489    1.3516   23.4386 C.2     1  UNL1        0.3093
     31 O           2.0021    0.7423   23.6567 O.2     1  UNL1       -0.2521
     32 N           0.1132    1.5099   22.0466 N.am    1  UNL1       -0.2508
     33 H          -1.0567    2.2026   24.4696 H       1  UNL1        0.1564
     34 H          -0.7750    1.9098   21.9034 H       1  UNL1        0.1579
     35 C           0.9306    1.0588   20.8725 C.ar    1  UNL1        0.1771
     36 C           1.7926   -0.1675   20.8173 C.ar    1  UNL1        0.0734
     37 C           2.4243   -0.2293   19.4582 C.ar    1  UNL1        0.1549
     38 O           1.9528    0.9589   18.6734 O.2     1  UNL1       -0.3565
     39 N           1.0296    1.7551   19.5475 N.ar    1  UNL1       -0.0621
     40 C           3.3628   -1.2926   18.9696 C.3     1  UNL1        0.0539
     41 C           3.5395   -0.5446   17.6815 C.3     1  UNL1        0.0076
     42 C           3.1860   -2.0405   20.2578 C.3     1  UNL1        0.0076
     43 C           4.3012   -2.3558   18.4811 C.3     1  UNL1        0.0076
@<TRIPOS>BOND
     1    12    13    1
     2    13    14    1
     3    14    15    1
     4    14    16    1
     5    14    17    1
     6    17    18    1
     7    18    11    1
     8    11     5    1
     9     5     6   ar
    10     6     7   ar
    11     7     8   ar
    12     8     1    1
    13     1     2    2
    14     1     3   am
    15     3    23    1
    16    23    24   ar
    17    24    25   ar
    18    25    26   ar
    19    26    29    1
    20    29    30   am
    21    30    31    2
    22    30    32   am
    23    32    35    1
    24    35    36   ar
    25    36    37   ar
    26    37    40    1
    27    40    41    1
    28    40    42    1
    29    40    43    1
    30    37    38   ar
    31    38    39   ar
    32    26    27   ar
    33    27    28   ar
    34     8     9   ar
    35     9    10   ar
    36    18    19    1
    37    19    20    1
    38    20    21    1
    39    20    22    1
    40    20    13    1
    41    10     5   ar
    42    28    23   ar
    43    39    35   ar
    44     3     4    1
    45    29    33    1
    46    32    34    1
@<TRIPOS>MOLECULE
*****
 43 46 0 0 0
SMALL
GASTEIGER

@<TRIPOS>ATOM
      1 C           2.9337    0.0677   30.4963 C.2     1  UNL1        0.2672
      2 O           3.3657   -0.9138   29.4474 O.2     1  UNL1       -0.2682
      3 N           2.0358    1.2116   30.1287 N.am    1  UNL1       -0.2791
      4 H           1.7523    1.8557   30.8171 H       1  UNL1        0.1552
      5 C           4.3315   -0.4199   34.7459 C.ar    1  UNL1        0.1575
      6 C           3.9107    0.9299   34.2449 C.ar    1  UNL1        0.0402
      7 C           3.4448    1.0924   32.8284 C.ar    1  UNL1        0.0269
      8 C           3.3996   -0.0949   31.9128 C.ar    1  UNL1        0.1350
      9 N           3.8203   -1.4447   32.4137 N.ar    1  UNL1       -0.2361
     10 C           4.2863   -1.6073   33.8303 C.ar    1  UNL1        0.1357
     11 O           4.7974   -0.5824   36.1623 O.3     1  UNL1       -0.4775
     12 C           4.6538    4.0909   39.9226 C.3     1  UNL1        0.0895
     13 N           4.6897    2.9226   38.9825 N.3     1  UNL1       -0.2763
     14 C           3.4277    2.1769   38.6643 C.3     1  UNL1        0.0489
     15 C           2.8884    3.2110   39.6076 C.3     1  UNL1        0.0161
     16 C           1.9784    1.7904   38.6736 C.3     1  UNL1        0.0161
     17 C           3.4636    1.0086   37.7242 C.3     1  UNL1        0.0582
     18 C           4.7615    0.5859   37.1024 C.3     1  UNL1        0.1686
     19 C           6.0235    1.3315   37.4206 C.3     1  UNL1        0.0582
     20 C           5.9876    2.4999   38.3607 C.3     1  UNL1        0.0489
     21 C           7.4494    2.4806   38.0248 C.3     1  UNL1        0.0161
     22 C           6.4594    3.6615   39.1841 C.3     1  UNL1        0.0161
     23 C           1.5699    1.3741   28.7122 C.ar    1  UNL1        0.0507
     24 C           2.4217    2.1125   27.7225 C.ar    1  UNL1        0.0160
     25 C           1.9558    2.2750   26.3060 C.ar    1  UNL1        0.0160
     26 C           0.6381    1.6992   25.8791 C.ar    1  UNL1        0.0517
     27 C          -0.2136    0.9608   26.8687 C.ar    1  UNL1        0.0160
     28 C           0.2523    0.7983   28.2853 C.ar    1  UNL1        0.0160
     29 N           0.1722    1.8617   24.4626 N.am    1  UNL1       -0.2680
     30 C           0.9408    1.2252   23.3426 C.2     1  UNL1        0.3093
     31 O           2.1752    0.4262   23.6392 O.2     1  UNL1       -0.2521
     32 N           0.4749    1.3877   21.9261 N.am    1  UNL1       -0.2508
     33 H          -0.6379    2.3860   24.2680 H       1  UNL1        0.1564
     34 H          -0.3353    1.9121   21.7315 H       1  UNL1        0.1579
     35 C           1.2434    0.7512   20.8061 C.ar    1  UNL1        0.1771
     36 C           2.4908    1.2930   20.1733 C.ar    1  UNL1        0.0734
     37 C           2.9177    0.3379   19.0984 C.ar    1  UNL1        0.1549
     38 O           1.9341   -0.7943   19.0668 O.2     1  UNL1       -0.3565
     39 N           0.8993   -0.5388   20.1223 N.ar    1  UNL1       -0.0621
     40 C           4.1176    0.4884   18.2108 C.3     1  UNL1        0.0539
     41 C           3.5790   -0.5768   17.3023 C.3     1  UNL1        0.0076
     42 C           4.6560    1.5536   19.1194 C.3     1  UNL1        0.0076
     43 C           5.3173    0.6389   17.3233 C.3     1  UNL1        0.0076
@<TRIPOS>BOND
     1    12    13    1
     2    13    14    1
     3    14    15    1
     4    14    16    1
     5    14    17    1
     6    17    18    1
     7    18    11    1
     8    11     5    1
     9     5     6   ar
    10     6     7   ar
    11     7     8   ar
    12     8     1    1
    13     1     2    2
    14     1     3   am
    15     3    23    1
    16    23    24   ar
    17    24    25   ar
    18    25    26   ar
    19    26    29    1
    20    29    30   am
    21    30    31    2
    22    30    32   am
    23    32    35    1
    24    35    36   ar
    25    36    37   ar
    26    37    40    1
    27    40    41    1
    28    40    42    1
    29    40    43    1
    30    37    38   ar
    31    38    39   ar
    32    26    27   ar
    33    27    28   ar
    34     8     9   ar
    35     9    10   ar
    36    18    19    1
    37    19    20    1
    38    20    21    1
    39    20    22    1
    40    20    13    1
    41    10     5   ar
    42    28    23   ar
    43    39    35   ar
    44     3     4    1
    45    29    33    1
    46    32    34    1
