@<TRIPOS>MOLECULE
*****
 13 14 0 0 0
SMALL
GASTEIGER

@<TRIPOS>ATOM
      1 N           4.7679  -12.1285   29.5822 N.pl3   1  UNL1       -0.3255
      2 C           4.9160  -12.8040   28.2511 C.ar    1  UNL1        0.2415
      3 O           6.1748  -12.8865   27.4394 O.2     1  UNL1       -0.3370
      4 N           5.8681  -13.6490   26.1846 N.ar    1  UNL1       -0.0721
      5 C           4.4198  -14.0377   26.2207 C.ar    1  UNL1        0.1643
      6 C           3.8314  -13.5155   27.4978 C.ar    1  UNL1        0.1562
      7 H           5.5425  -11.6859   29.9985 H       1  UNL1        0.1452
      8 H           3.8961  -12.1278   30.0395 H       1  UNL1        0.1452
      9 N           2.4082  -13.6765   27.9435 N.ar    1  UNL1       -0.2221
     10 C           1.6364  -14.9621   27.9816 C.ar    1  UNL1        0.1023
     11 C           0.2581  -14.6603   28.4909 C.ar    1  UNL1        0.0431
     12 C           0.1781  -13.1882   28.7675 C.ar    1  UNL1        0.1221
     13 N           1.5070  -12.5801   28.4292 N.ar    1  UNL1       -0.1633
@<TRIPOS>BOND
     1     1     2    1
     2     2     3   ar
     3     3     4   ar
     4     4     5   ar
     5     5     6   ar
     6     6     9    1
     7     9    10   ar
     8    10    11   ar
     9    11    12   ar
    10    12    13   ar
    11     6     2   ar
    12    13     9   ar
    13     1     7    1
    14     1     8    1
@<TRIPOS>MOLECULE
*****
 13 14 0 0 0
SMALL
GASTEIGER

@<TRIPOS>ATOM
      1 N           3.8546  -14.0094   25.3774 N.pl3   1  UNL1       -0.3255
      2 C           4.6869  -13.5181   26.5245 C.ar    1  UNL1        0.2415
      3 O           6.1699  -13.2939   26.5054 O.2     1  UNL1       -0.3370
      4 N           6.5819  -12.8019   27.8612 N.ar    1  UNL1       -0.0721
      5 C           5.3535  -12.7220   28.7183 C.ar    1  UNL1        0.1643
      6 C           4.1823  -13.1646   27.8921 C.ar    1  UNL1        0.1562
      7 H           4.2797  -14.2161   24.5138 H       1  UNL1        0.1452
      8 H           2.8833  -14.1252   25.4881 H       1  UNL1        0.1452
      9 N           2.7568  -13.2405   28.3528 N.ar    1  UNL1       -0.2221
     10 C           2.2617  -12.9517   29.7390 C.ar    1  UNL1        0.1023
     11 C           0.7751  -13.1512   29.7511 C.ar    1  UNL1        0.0431
     12 C           0.3514  -13.5632   28.3724 C.ar    1  UNL1        0.1221
     13 N           1.5762  -13.6183   27.5082 N.ar    1  UNL1       -0.1633
@<TRIPOS>BOND
     1     1     2    1
     2     2     3   ar
     3     3     4   ar
     4     4     5   ar
     5     5     6   ar
     6     6     9    1
     7     9    10   ar
     8    10    11   ar
     9    11    12   ar
    10    12    13   ar
    11     6     2   ar
    12    13     9   ar
    13     1     7    1
    14     1     8    1
@<TRIPOS>MOLECULE
*****
 13 14 0 0 0
SMALL
GASTEIGER

@<TRIPOS>ATOM
      1 N          -3.5282  -16.9098   18.3352 N.pl3   1  UNL1       -0.3255
      2 C          -2.6164  -17.7885   19.1393 C.ar    1  UNL1        0.2415
      3 O          -1.1253  -17.8736   19.0002 O.2     1  UNL1       -0.3370
      4 N          -0.6229  -18.8740   19.9987 N.ar    1  UNL1       -0.0721
      5 C          -1.8036  -19.4072   20.7548 C.ar    1  UNL1        0.1643
      6 C          -3.0356  -18.7363   20.2237 C.ar    1  UNL1        0.1562
      7 H          -3.1563  -16.3185   17.6415 H       1  UNL1        0.1452
      8 H          -4.4985  -16.9245   18.5011 H       1  UNL1        0.1452
      9 N          -4.4402  -18.9718   20.6944 N.ar    1  UNL1       -0.2221
     10 C          -4.8427  -19.4919   22.0426 C.ar    1  UNL1        0.1023
     11 C          -6.3402  -19.5702   22.0810 C.ar    1  UNL1        0.0431
     12 C          -6.8632  -19.0985   20.7566 C.ar    1  UNL1        0.1221
     13 N          -5.6889  -18.7286   19.8996 N.ar    1  UNL1       -0.1633
@<TRIPOS>BOND
     1     1     2    1
     2     2     3   ar
     3     3     4   ar
     4     4     5   ar
     5     5     6   ar
     6     6     9    1
     7     9    10   ar
     8    10    11   ar
     9    11    12   ar
    10    12    13   ar
    11     6     2   ar
    12    13     9   ar
    13     1     7    1
    14     1     8    1
@<TRIPOS>MOLECULE
*****
 13 14 0 0 0
SMALL
GASTEIGER

@<TRIPOS>ATOM
      1 N          -8.8778  -15.5480   21.7032 N.pl3   1  UNL1       -0.3255
      2 C         -10.1810  -16.0665   21.1713 C.ar    1  UNL1        0.2415
      3 O         -10.8876  -15.5793   19.9411 O.2     1  UNL1       -0.3370
      4 N         -12.1497  -16.3750   19.7857 N.ar    1  UNL1       -0.0721
      5 C         -12.2230  -17.3540   20.9198 C.ar    1  UNL1        0.1643
      6 C         -11.0063  -17.1634   21.7761 C.ar    1  UNL1        0.1562
      7 H          -8.4085  -14.8213   21.2331 H       1  UNL1        0.1452
      8 H          -8.4918  -15.9343   22.5223 H       1  UNL1        0.1452
      9 N         -10.6733  -17.9342   23.0190 N.ar    1  UNL1       -0.2221
     10 C         -11.0253  -19.3673   23.2885 C.ar    1  UNL1        0.1023
     11 C         -10.4995  -19.7262   24.6467 C.ar    1  UNL1        0.0431
     12 C          -9.8226  -18.5150   25.2167 C.ar    1  UNL1        0.1221
     13 N          -9.9300  -17.4075   24.2107 N.ar    1  UNL1       -0.1633
@<TRIPOS>BOND
     1     1     2    1
     2     2     3   ar
     3     3     4   ar
     4     4     5   ar
     5     5     6   ar
     6     6     9    1
     7     9    10   ar
     8    10    11   ar
     9    11    12   ar
    10    12    13   ar
    11     6     2   ar
    12    13     9   ar
    13     1     7    1
    14     1     8    1
@<TRIPOS>MOLECULE
*****
 13 14 0 0 0
SMALL
GASTEIGER

@<TRIPOS>ATOM
      1 N          -7.8609  -14.4746   23.7422 N.pl3   1  UNL1       -0.3255
      2 C          -7.4399  -15.7968   23.1724 C.ar    1  UNL1        0.2415
      3 O          -6.0677  -16.3967   23.2570 O.2     1  UNL1       -0.3370
      4 N          -6.0970  -17.7218   22.5547 N.ar    1  UNL1       -0.0721
      5 C          -7.4873  -17.9409   22.0361 C.ar    1  UNL1        0.1643
      6 C          -8.3173  -16.7512   22.4178 C.ar    1  UNL1        0.1562
      7 H          -7.2088  -13.9162   24.2241 H       1  UNL1        0.1452
      8 H          -8.7893  -14.1653   23.6344 H       1  UNL1        0.1452
      9 N          -9.7696  -16.5510   22.1006 N.ar    1  UNL1       -0.2221
     10 C         -10.8955  -16.5426   23.0918 C.ar    1  UNL1        0.1023
     11 C         -12.1728  -16.3105   22.3404 C.ar    1  UNL1        0.0431
     12 C         -11.8364  -16.1755   20.8848 C.ar    1  UNL1        0.1221
     13 N         -10.3511  -16.3241   20.7366 N.ar    1  UNL1       -0.1633
@<TRIPOS>BOND
     1     1     2    1
     2     2     3   ar
     3     3     4   ar
     4     4     5   ar
     5     5     6   ar
     6     6     9    1
     7     9    10   ar
     8    10    11   ar
     9    11    12   ar
    10    12    13   ar
    11     6     2   ar
    12    13     9   ar
    13     1     7    1
    14     1     8    1
@<TRIPOS>MOLECULE
*****
 13 14 0 0 0
SMALL
GASTEIGER

@<TRIPOS>ATOM
      1 N          -9.6314  -15.1166   20.8948 N.pl3   1  UNL1       -0.3255
      2 C         -10.6609  -16.2043   20.9787 C.ar    1  UNL1        0.2415
      3 O         -12.1358  -16.0412   20.7596 O.2     1  UNL1       -0.3370
      4 N         -12.7827  -17.3822   20.9419 N.ar    1  UNL1       -0.0721
      5 C         -11.7075  -18.3742   21.2736 C.ar    1  UNL1        0.1643
      6 C         -10.3962  -17.6462   21.2964 C.ar    1  UNL1        0.1562
      7 H          -9.9047  -14.1958   20.6787 H       1  UNL1        0.1452
      8 H          -8.6825  -15.3235   21.0558 H       1  UNL1        0.1452
      9 N          -9.0556  -18.2535   21.5860 N.ar    1  UNL1       -0.2221
     10 C          -8.8117  -19.6070   22.1849 C.ar    1  UNL1        0.1023
     11 C          -7.3289  -19.8040   22.2966 C.ar    1  UNL1        0.0431
     12 C          -6.6563  -18.5722   21.7668 C.ar    1  UNL1        0.1221
     13 N          -7.7236  -17.6140   21.3276 N.ar    1  UNL1       -0.1633
@<TRIPOS>BOND
     1     1     2    1
     2     2     3   ar
     3     3     4   ar
     4     4     5   ar
     5     5     6   ar
     6     6     9    1
     7     9    10   ar
     8    10    11   ar
     9    11    12   ar
    10    12    13   ar
    11     6     2   ar
    12    13     9   ar
    13     1     7    1
    14     1     8    1
@<TRIPOS>MOLECULE
*****
 13 14 0 0 0
SMALL
GASTEIGER

@<TRIPOS>ATOM
      1 N          -7.8377  -14.7986   21.5614 N.pl3   1  UNL1       -0.3255
      2 C          -8.0820  -15.4219   22.9037 C.ar    1  UNL1        0.2415
      3 O          -7.2685  -15.1935   24.1431 O.2     1  UNL1       -0.3370
      4 N          -7.8664  -16.0134   25.2477 N.ar    1  UNL1       -0.0721
      5 C          -9.0495  -16.7486   24.6910 C.ar    1  UNL1        0.1643
      6 C          -9.1827  -16.3830   23.2424 C.ar    1  UNL1        0.1562
      7 H          -7.0851  -14.1762   21.4373 H       1  UNL1        0.1452
      8 H          -8.4299  -15.0120   20.8045 H       1  UNL1        0.1452
      9 N         -10.2323  -16.8897   22.2981 N.ar    1  UNL1       -0.2221
     10 C         -11.5755  -17.4351   22.6834 C.ar    1  UNL1        0.1023
     11 C         -12.2964  -17.8223   21.4263 C.ar    1  UNL1        0.0431
     12 C         -11.3988  -17.5162   20.2641 C.ar    1  UNL1        0.1221
     13 N         -10.1231  -16.9398   20.8030 N.ar    1  UNL1       -0.1633
@<TRIPOS>BOND
     1     1     2    1
     2     2     3   ar
     3     3     4   ar
     4     4     5   ar
     5     5     6   ar
     6     6     9    1
     7     9    10   ar
     8    10    11   ar
     9    11    12   ar
    10    12    13   ar
    11     6     2   ar
    12    13     9   ar
    13     1     7    1
    14     1     8    1
@<TRIPOS>MOLECULE
*****
 13 14 0 0 0
SMALL
GASTEIGER

@<TRIPOS>ATOM
      1 N          -9.3174  -18.4980   20.1818 N.pl3   1  UNL1       -0.3255
      2 C         -10.4866  -17.6617   20.6101 C.ar    1  UNL1        0.2415
      3 O         -11.8428  -17.6481   19.9693 O.2     1  UNL1       -0.3370
      4 N         -12.6993  -16.6700   20.7176 N.ar    1  UNL1       -0.0721
      5 C         -11.8724  -16.0792   21.8209 C.ar    1  UNL1        0.1643
      6 C         -10.5050  -16.6920   21.7544 C.ar    1  UNL1        0.1562
      7 H          -9.4037  -19.1084   19.4141 H       1  UNL1        0.1452
      8 H          -8.4637  -18.4367   20.6683 H       1  UNL1        0.1452
      9 N          -9.3573  -16.3885   22.6713 N.ar    1  UNL1       -0.2221
     10 C          -9.4374  -16.2274   24.1605 C.ar    1  UNL1        0.1023
     11 C          -8.0577  -15.9321   24.6696 C.ar    1  UNL1        0.0431
     12 C          -7.1248  -15.9108   23.4951 C.ar    1  UNL1        0.1221
     13 N          -7.9281  -16.1929   22.2601 N.ar    1  UNL1       -0.1633
@<TRIPOS>BOND
     1     1     2    1
     2     2     3   ar
     3     3     4   ar
     4     4     5   ar
     5     5     6   ar
     6     6     9    1
     7     9    10   ar
     8    10    11   ar
     9    11    12   ar
    10    12    13   ar
    11     6     2   ar
    12    13     9   ar
    13     1     7    1
    14     1     8    1
@<TRIPOS>MOLECULE
*****
 13 14 0 0 0
SMALL
GASTEIGER

@<TRIPOS>ATOM
      1 N         -12.2366  -18.2253   23.4948 N.pl3   1  UNL1       -0.3255
      2 C         -12.0441  -17.4608   22.2187 C.ar    1  UNL1        0.2415
      3 O         -12.9844  -17.4446   21.0501 O.2     1  UNL1       -0.3370
      4 N         -12.3990  -16.5520   19.9963 N.ar    1  UNL1       -0.0721
      5 C         -11.0968  -16.0165   20.5136 C.ar    1  UNL1        0.1643
      6 C         -10.8775  -16.5781   21.8871 C.ar    1  UNL1        0.1562
      7 H         -13.0399  -18.7806   23.6195 H       1  UNL1        0.1452
      8 H         -11.5596  -18.1718   24.2076 H       1  UNL1        0.1452
      9 N          -9.6985  -16.3051   22.7733 N.ar    1  UNL1       -0.2221
     10 C          -8.3303  -15.8919   22.3181 C.ar    1  UNL1        0.1023
     11 C          -7.4669  -15.7287   23.5338 C.ar    1  UNL1        0.0431
     12 C          -8.3015  -16.0411   24.7404 C.ar    1  UNL1        0.1221
     13 N          -9.6808  -16.3973   24.2704 N.ar    1  UNL1       -0.1633
@<TRIPOS>BOND
     1     1     2    1
     2     2     3   ar
     3     3     4   ar
     4     4     5   ar
     5     5     6   ar
     6     6     9    1
     7     9    10   ar
     8    10    11   ar
     9    11    12   ar
    10    12    13   ar
    11     6     2   ar
    12    13     9   ar
    13     1     7    1
    14     1     8    1
