@<TRIPOS>MOLECULE
*****
 35 38 0 0 0
SMALL
GASTEIGER

@<TRIPOS>ATOM
      1 N           2.9449   -0.4310   26.1940 N.am    1  UNL1       -0.2627
      2 C           3.6339    0.6690   26.9460 C.2     1  UNL1        0.2478
      3 O           4.9254    1.2335   26.4330 O.2     1  UNL1       -0.2729
      4 H           2.0972   -0.8015   26.5308 H       1  UNL1        0.1568
      5 C           3.9988   -1.3738   22.5794 C.ar    1  UNL1        0.0527
      6 C           4.9508   -2.2069   23.3855 C.ar    1  UNL1        0.1074
      7 N           4.6719   -1.9551   24.8377 N.ar    1  UNL1       -0.2224
      8 C           3.5475   -0.9664   24.9291 C.ar    1  UNL1        0.1656
      9 S           3.1316   -0.6072   23.5334 S.2     1  UNL1       -0.0513
     10 N           3.7105   -1.1479   16.5906 N.pl3   1  UNL1       -0.3426
     11 C           3.7826   -1.2044   18.0878 C.ar    1  UNL1        0.1254
     12 C           3.8295   -2.5306   18.7869 C.ar    1  UNL1        0.0339
     13 C           3.9016   -2.5871   20.2841 C.ar    1  UNL1        0.0049
     14 C           3.9267   -1.3174   21.0822 C.ar    1  UNL1        0.0269
     15 C           3.8798    0.0089   20.3831 C.ar    1  UNL1        0.1008
     16 N           3.8078    0.0654   18.8859 N.ar    1  UNL1       -0.2296
     17 H           3.6940   -1.9813   16.0667 H       1  UNL1        0.1437
     18 H           3.6798   -0.2774   16.1317 H       1  UNL1        0.1437
     19 C           3.0312    1.2043   28.2110 C.3     1  UNL1        0.1799
     20 N           2.0233    0.3887   28.9652 N.am    1  UNL1       -0.2636
     21 C           0.5572    0.6208   28.7486 C.2     1  UNL1        0.2497
     22 O          -0.4507   -0.1948   29.5029 O.2     1  UNL1       -0.2699
     23 C           0.0991    1.6684   27.7778 C.ar    1  UNL1        0.0567
     24 C          -0.2938    1.2785   26.3837 C.ar    1  UNL1        0.0252
     25 C          -0.7519    2.3261   25.4128 C.ar    1  UNL1        0.0990
     26 N          -0.8171    3.7637   25.8361 N.ar    1  UNL1       -0.2423
     27 C          -0.4241    4.1537   27.2301 C.ar    1  UNL1        0.0990
     28 C           0.0340    3.1060   28.2010 C.ar    1  UNL1        0.0252
     29 C           2.4814   -0.6589   29.9361 C.3     1  UNL1        0.1209
     30 C           2.9627   -0.2589   31.2994 C.ar    1  UNL1       -0.0023
     31 C           3.9156   -1.1433   32.0477 C.ar    1  UNL1       -0.0026
     32 C           4.3969   -0.7434   33.4109 C.ar    1  UNL1       -0.0003
     33 C           3.9252    0.5410   34.0259 C.ar    1  UNL1       -0.0000
     34 C           2.9723    1.4253   33.2776 C.ar    1  UNL1       -0.0003
     35 C           2.4911    1.0253   31.9143 C.ar    1  UNL1       -0.0026
@<TRIPOS>BOND
     1    10    11    1
     2    11    12   ar
     3    12    13   ar
     4    13    14   ar
     5    14     5    1
     6     5     6   ar
     7     6     7   ar
     8     7     8   ar
     9     8     1    1
    10     1     2   am
    11     2     3    2
    12     2    19    1
    13    19    20    1
    14    20    29    1
    15    29    30    1
    16    30    31   ar
    17    31    32   ar
    18    32    33   ar
    19    33    34   ar
    20    34    35   ar
    21    20    21   am
    22    21    22    2
    23    21    23    1
    24    23    24   ar
    25    24    25   ar
    26    25    26   ar
    27    26    27   ar
    28    27    28   ar
    29     8     9   ar
    30    14    15   ar
    31    15    16   ar
    32    16    11   ar
    33     9     5   ar
    34    35    30   ar
    35    28    23   ar
    36    10    17    1
    37    10    18    1
    38     1     4    1
@<TRIPOS>MOLECULE
*****
 35 38 0 0 0
SMALL
GASTEIGER

@<TRIPOS>ATOM
      1 N           5.7104   -0.3955   23.8298 N.am    1  UNL1       -0.2627
      2 C           5.4949   -0.0945   22.3762 C.2     1  UNL1        0.2478
      3 O           4.4279    0.8746   21.9611 O.2     1  UNL1       -0.2729
      4 H           6.4107   -1.0316   24.1022 H       1  UNL1        0.1568
      5 C           3.0474    0.7451   26.4130 C.ar    1  UNL1        0.0527
      6 C           4.0494    1.8562   26.5198 C.ar    1  UNL1        0.1074
      7 N           5.1689    1.5642   25.5651 N.ar    1  UNL1       -0.2224
      8 C           4.8588    0.2726   24.8683 C.ar    1  UNL1        0.1656
      9 S           3.5477   -0.2336   25.3924 S.2     1  UNL1       -0.0513
     10 N          -2.0641    0.2946   29.5227 N.pl3   1  UNL1       -0.3426
     11 C          -0.7862    0.4072   28.7453 C.ar    1  UNL1        0.1254
     12 C          -0.7531    1.1895   27.4658 C.ar    1  UNL1        0.0339
     13 C           0.5247    1.3021   26.6884 C.ar    1  UNL1        0.0049
     14 C           1.7695    0.6325   27.1904 C.ar    1  UNL1        0.0269
     15 C           1.7364   -0.1498   28.4699 C.ar    1  UNL1        0.1008
     16 N           0.4586   -0.2624   29.2473 N.ar    1  UNL1       -0.2296
     17 H          -2.8811    0.7341   29.1932 H       1  UNL1        0.1437
     18 H          -2.0858   -0.2188   30.3624 H       1  UNL1        0.1437
     19 C           6.3465   -0.7626   21.3378 C.3     1  UNL1        0.1799
     20 N           5.7760   -1.8658   20.4965 N.am    1  UNL1       -0.2636
     21 C           5.9074   -3.2925   20.9409 C.2     1  UNL1        0.2497
     22 O           5.3370   -4.3956   20.0996 O.2     1  UNL1       -0.2699
     23 C           6.6091   -3.6160   22.2265 C.ar    1  UNL1        0.0567
     24 C           5.8231   -3.7486   23.4972 C.ar    1  UNL1        0.0252
     25 C           6.5249   -4.0721   24.7828 C.ar    1  UNL1        0.0990
     26 N           8.0126   -4.2630   24.7977 N.ar    1  UNL1       -0.2423
     27 C           8.7986   -4.1303   23.5271 C.ar    1  UNL1        0.0990
     28 C           8.0969   -3.8068   22.2415 C.ar    1  UNL1        0.0252
     29 C           5.0743   -1.5422   19.2108 C.3     1  UNL1        0.1209
     30 C           3.7114   -0.9163   19.2372 C.ar    1  UNL1       -0.0023
     31 C           3.4041    0.2495   18.3447 C.ar    1  UNL1       -0.0026
     32 C           2.0412    0.8755   18.3710 C.ar    1  UNL1       -0.0003
     33 C           0.9856    0.3357   19.2900 C.ar    1  UNL1       -0.0000
     34 C           1.2929   -0.8301   20.1825 C.ar    1  UNL1       -0.0003
     35 C           2.6558   -1.4561   20.1561 C.ar    1  UNL1       -0.0026
@<TRIPOS>BOND
     1    10    11    1
     2    11    12   ar
     3    12    13   ar
     4    13    14   ar
     5    14     5    1
     6     5     6   ar
     7     6     7   ar
     8     7     8   ar
     9     8     1    1
    10     1     2   am
    11     2     3    2
    12     2    19    1
    13    19    20    1
    14    20    29    1
    15    29    30    1
    16    30    31   ar
    17    31    32   ar
    18    32    33   ar
    19    33    34   ar
    20    34    35   ar
    21    20    21   am
    22    21    22    2
    23    21    23    1
    24    23    24   ar
    25    24    25   ar
    26    25    26   ar
    27    26    27   ar
    28    27    28   ar
    29     8     9   ar
    30    14    15   ar
    31    15    16   ar
    32    16    11   ar
    33     9     5   ar
    34    35    30   ar
    35    28    23   ar
    36    10    17    1
    37    10    18    1
    38     1     4    1
@<TRIPOS>MOLECULE
*****
 35 38 0 0 0
SMALL
GASTEIGER

@<TRIPOS>ATOM
      1 N          -2.0392    4.9248   22.9920 N.am    1  UNL1       -0.2627
      2 C          -2.8099    4.3783   21.8268 C.2     1  UNL1        0.2478
      3 O          -3.5730    3.0947   21.9680 O.2     1  UNL1       -0.2729
      4 H          -1.5384    5.7673   22.8993 H       1  UNL1        0.1568
      5 C          -1.3311    2.7969   26.1600 C.ar    1  UNL1        0.0527
      6 C          -2.7091    3.3097   26.4572 C.ar    1  UNL1        0.1074
      7 N          -3.1421    4.1692   25.3067 N.ar    1  UNL1       -0.2224
      8 C          -2.0317    4.1877   24.2983 C.ar    1  UNL1        0.1656
      9 S          -0.9125    3.3396   24.8257 S.2     1  UNL1       -0.0513
     10 N           1.9330   -0.7940   29.6885 N.pl3   1  UNL1       -0.3426
     11 C           1.1170    0.1037   28.8064 C.ar    1  UNL1        0.1254
     12 C          -0.3771    0.1270   28.9369 C.ar    1  UNL1        0.0339
     13 C          -1.1932    1.0247   28.0548 C.ar    1  UNL1        0.0049
     14 C          -0.5151    1.8992   27.0421 C.ar    1  UNL1        0.0269
     15 C           0.9790    1.8759   26.9116 C.ar    1  UNL1        0.1008
     16 N           1.7950    0.9781   27.7937 N.ar    1  UNL1       -0.2296
     17 H           1.4879   -1.3680   30.3532 H       1  UNL1        0.1437
     18 H           2.9136   -0.8093   29.6028 H       1  UNL1        0.1437
     19 C          -2.8173    5.1155   20.5206 C.3     1  UNL1        0.1799
     20 N          -2.1614    4.5110   19.3145 N.am    1  UNL1       -0.2636
     21 C          -2.9879    4.1363   18.1200 C.2     1  UNL1        0.2497
     22 O          -2.3320    3.5318   16.9140 O.2     1  UNL1       -0.2699
     23 C          -4.4701    4.3662   18.1316 C.ar    1  UNL1        0.0567
     24 C          -5.0431    5.5975   17.4949 C.ar    1  UNL1        0.0252
     25 C          -6.5253    5.8274   17.5065 C.ar    1  UNL1        0.0990
     26 N          -7.4346    4.8258   18.1547 N.ar    1  UNL1       -0.2423
     27 C          -6.8616    3.5944   18.7914 C.ar    1  UNL1        0.0990
     28 C          -5.3794    3.3646   18.7799 C.ar    1  UNL1        0.0252
     29 C          -0.6792    4.2812   19.3030 C.3     1  UNL1        0.1209
     30 C          -0.1350    2.8892   19.4314 C.ar    1  UNL1       -0.0023
     31 C           0.5988    2.2620   18.2834 C.ar    1  UNL1       -0.0026
     32 C           1.1430    0.8701   18.4117 C.ar    1  UNL1       -0.0003
     33 C           0.9533    0.1054   19.6883 C.ar    1  UNL1       -0.0000
     34 C           0.2195    0.7327   20.8363 C.ar    1  UNL1       -0.0003
     35 C          -0.3247    2.1246   20.7079 C.ar    1  UNL1       -0.0026
@<TRIPOS>BOND
     1    10    11    1
     2    11    12   ar
     3    12    13   ar
     4    13    14   ar
     5    14     5    1
     6     5     6   ar
     7     6     7   ar
     8     7     8   ar
     9     8     1    1
    10     1     2   am
    11     2     3    2
    12     2    19    1
    13    19    20    1
    14    20    29    1
    15    29    30    1
    16    30    31   ar
    17    31    32   ar
    18    32    33   ar
    19    33    34   ar
    20    34    35   ar
    21    20    21   am
    22    21    22    2
    23    21    23    1
    24    23    24   ar
    25    24    25   ar
    26    25    26   ar
    27    26    27   ar
    28    27    28   ar
    29     8     9   ar
    30    14    15   ar
    31    15    16   ar
    32    16    11   ar
    33     9     5   ar
    34    35    30   ar
    35    28    23   ar
    36    10    17    1
    37    10    18    1
    38     1     4    1
@<TRIPOS>MOLECULE
*****
 35 38 0 0 0
SMALL
GASTEIGER

@<TRIPOS>ATOM
      1 N           5.2303   -2.3440   25.3581 N.am    1  UNL1       -0.2627
      2 C           6.2894   -1.7681   24.4656 C.2     1  UNL1        0.2478
      3 O           7.2838   -0.7895   25.0165 O.2     1  UNL1       -0.2729
      4 H           4.5776   -2.9863   24.9965 H       1  UNL1        0.1568
      5 C           4.4270   -0.9518   28.8911 C.ar    1  UNL1        0.0527
      6 C           5.7049   -1.6917   29.1548 C.ar    1  UNL1        0.1074
      7 N           6.1614   -2.3033   27.8634 N.ar    1  UNL1       -0.2224
      8 C           5.1656   -1.9414   26.8016 C.ar    1  UNL1        0.1656
      9 S           4.0937   -1.1061   27.4368 S.2     1  UNL1       -0.0513
     10 N           1.2130    2.0908   32.9424 N.pl3   1  UNL1       -0.3426
     11 C           2.0165    1.3302   31.9296 C.ar    1  UNL1        0.1254
     12 C           3.5004    1.1924   32.0995 C.ar    1  UNL1        0.0339
     13 C           4.3039    0.4318   31.0867 C.ar    1  UNL1        0.0049
     14 C           3.6235   -0.1912   29.9039 C.ar    1  UNL1        0.0269
     15 C           2.1396   -0.0534   29.7340 C.ar    1  UNL1        0.1008
     16 N           1.3361    0.7072   30.7468 N.ar    1  UNL1       -0.2296
     17 H           1.6596    2.4997   33.7187 H       1  UNL1        0.1437
     18 H           0.2390    2.1812   32.8308 H       1  UNL1        0.1437
     19 C           6.3541   -2.1707   23.0222 C.3     1  UNL1        0.1799
     20 N           7.2129   -3.3273   22.6039 N.am    1  UNL1       -0.2636
     21 C           7.0229   -3.9529   21.2538 C.2     1  UNL1        0.2497
     22 O           7.8817   -5.1094   20.8356 O.2     1  UNL1       -0.2699
     23 C           5.9742   -3.4220   20.3221 C.ar    1  UNL1        0.0567
     24 C           4.5858   -3.9888   20.3545 C.ar    1  UNL1        0.0252
     25 C           3.5370   -3.4579   19.4227 C.ar    1  UNL1        0.0990
     26 N           3.8767   -2.3601   18.4585 N.ar    1  UNL1       -0.2423
     27 C           5.2651   -1.7933   18.4261 C.ar    1  UNL1        0.0990
     28 C           6.3138   -2.3242   19.3579 C.ar    1  UNL1        0.0252
     29 C           8.2616   -3.8582   23.5357 C.3     1  UNL1        0.1209
     30 C           8.0188   -5.1311   24.2911 C.ar    1  UNL1       -0.0023
     31 C           8.5678   -6.4272   23.7728 C.ar    1  UNL1       -0.0026
     32 C           8.3250   -7.7002   24.5281 C.ar    1  UNL1       -0.0003
     33 C           7.5331   -7.6771   25.8019 C.ar    1  UNL1       -0.0000
     34 C           6.9841   -6.3809   26.3202 C.ar    1  UNL1       -0.0003
     35 C           7.2269   -5.1080   25.5648 C.ar    1  UNL1       -0.0026
@<TRIPOS>BOND
     1    10    11    1
     2    11    12   ar
     3    12    13   ar
     4    13    14   ar
     5    14     5    1
     6     5     6   ar
     7     6     7   ar
     8     7     8   ar
     9     8     1    1
    10     1     2   am
    11     2     3    2
    12     2    19    1
    13    19    20    1
    14    20    29    1
    15    29    30    1
    16    30    31   ar
    17    31    32   ar
    18    32    33   ar
    19    33    34   ar
    20    34    35   ar
    21    20    21   am
    22    21    22    2
    23    21    23    1
    24    23    24   ar
    25    24    25   ar
    26    25    26   ar
    27    26    27   ar
    28    27    28   ar
    29     8     9   ar
    30    14    15   ar
    31    15    16   ar
    32    16    11   ar
    33     9     5   ar
    34    35    30   ar
    35    28    23   ar
    36    10    17    1
    37    10    18    1
    38     1     4    1
@<TRIPOS>MOLECULE
*****
 35 38 0 0 0
SMALL
GASTEIGER

@<TRIPOS>ATOM
      1 N           4.6999    0.5369   26.7131 N.am    1  UNL1       -0.2627
      2 C           4.6976   -0.3253   27.9406 C.2     1  UNL1        0.2478
      3 O           4.0622   -1.6835   27.9020 O.2     1  UNL1       -0.2729
      4 H           5.1170    1.4283   26.7385 H       1  UNL1        0.1568
      5 C           3.6914   -1.1543   23.3682 C.ar    1  UNL1        0.0527
      6 C           2.4932   -0.2905   23.6291 C.ar    1  UNL1        0.1074
      7 N           2.7251    0.4482   24.9139 N.ar    1  UNL1       -0.2224
      8 C           4.0667    0.0409   25.4470 C.ar    1  UNL1        0.1656
      9 S           4.6639   -0.9495   24.4918 S.2     1  UNL1       -0.0513
     10 N           4.4596   -4.7904   18.6577 N.pl3   1  UNL1       -0.3426
     11 C           4.2675   -3.8814   19.8354 C.ar    1  UNL1        0.1254
     12 C           3.5638   -2.5681   19.6622 C.ar    1  UNL1        0.0339
     13 C           3.3717   -1.6591   20.8398 C.ar    1  UNL1        0.0049
     14 C           3.8835   -2.0633   22.1906 C.ar    1  UNL1        0.0269
     15 C           4.5872   -3.3766   22.3638 C.ar    1  UNL1        0.1008
     16 N           4.7793   -4.2856   21.1862 N.ar    1  UNL1       -0.2296
     17 H           4.1237   -4.5251   17.7712 H       1  UNL1        0.1437
     18 H           4.9215   -5.6523   18.7714 H       1  UNL1        0.1437
     19 C           5.3308    0.1707   29.2066 C.3     1  UNL1        0.1799
     20 N           5.1956   -0.6215   30.4732 N.am    1  UNL1       -0.2636
     21 C           3.8823   -0.6604   31.1969 C.2     1  UNL1        0.2497
     22 O           3.7471   -1.4527   32.4635 O.2     1  UNL1       -0.2699
     23 C           2.7042    0.0928   30.6541 C.ar    1  UNL1        0.0567
     24 C           2.4823    1.5231   31.0480 C.ar    1  UNL1        0.0252
     25 C           1.3042    2.2763   30.5052 C.ar    1  UNL1        0.0990
     26 N           0.3481    1.5994   29.5684 N.ar    1  UNL1       -0.2423
     27 C           0.5700    0.1692   29.1745 C.ar    1  UNL1        0.0990
     28 C           1.7480   -0.5841   29.7173 C.ar    1  UNL1        0.0252
     29 C           6.3737   -1.3748   31.0160 C.3     1  UNL1        0.1209
     30 C           6.5468   -2.8296   30.6940 C.ar    1  UNL1       -0.0023
     31 C           6.6797   -3.8323   31.8017 C.ar    1  UNL1       -0.0026
     32 C           6.8529   -5.2871   31.4798 C.ar    1  UNL1       -0.0003
     33 C           6.8931   -5.7392   30.0500 C.ar    1  UNL1       -0.0000
     34 C           6.7601   -4.7365   28.9423 C.ar    1  UNL1       -0.0003
     35 C           6.5870   -3.2817   29.2643 C.ar    1  UNL1       -0.0026
@<TRIPOS>BOND
     1    10    11    1
     2    11    12   ar
     3    12    13   ar
     4    13    14   ar
     5    14     5    1
     6     5     6   ar
     7     6     7   ar
     8     7     8   ar
     9     8     1    1
    10     1     2   am
    11     2     3    2
    12     2    19    1
    13    19    20    1
    14    20    29    1
    15    29    30    1
    16    30    31   ar
    17    31    32   ar
    18    32    33   ar
    19    33    34   ar
    20    34    35   ar
    21    20    21   am
    22    21    22    2
    23    21    23    1
    24    23    24   ar
    25    24    25   ar
    26    25    26   ar
    27    26    27   ar
    28    27    28   ar
    29     8     9   ar
    30    14    15   ar
    31    15    16   ar
    32    16    11   ar
    33     9     5   ar
    34    35    30   ar
    35    28    23   ar
    36    10    17    1
    37    10    18    1
    38     1     4    1
@<TRIPOS>MOLECULE
*****
 35 38 0 0 0
SMALL
GASTEIGER

@<TRIPOS>ATOM
      1 N          -1.7186    2.7911   21.0403 N.am    1  UNL1       -0.2627
      2 C          -1.8209    4.2087   21.5198 C.2     1  UNL1        0.2478
      3 O          -0.7501    5.1985   21.1681 O.2     1  UNL1       -0.2729
      4 H          -2.4215    2.1414   21.2712 H       1  UNL1        0.1568
      5 C           1.2685    1.0431   19.2833 C.ar    1  UNL1        0.0527
      6 C           1.2506    2.3662   18.5770 C.ar    1  UNL1        0.1074
      7 N           0.1295    3.1821   19.1492 N.ar    1  UNL1       -0.2224
      8 C          -0.5456    2.3632   20.2092 C.ar    1  UNL1        0.1656
      9 S           0.1584    1.0412   20.2921 S.2     1  UNL1       -0.0513
     10 N           5.1065   -3.4525   18.2544 N.pl3   1  UNL1       -0.3426
     11 C           4.1470   -2.3286   18.5116 C.ar    1  UNL1        0.1254
     12 C           3.2941   -2.3382   19.7455 C.ar    1  UNL1        0.0339
     13 C           2.3346   -1.2143   20.0027 C.ar    1  UNL1        0.0049
     14 C           2.2280   -0.0808   19.0261 C.ar    1  UNL1        0.0269
     15 C           3.0809   -0.0713   17.7922 C.ar    1  UNL1        0.1008
     16 N           4.0404   -1.1952   17.5350 N.ar    1  UNL1       -0.2296
     17 H           5.1765   -4.1965   18.8954 H       1  UNL1        0.1437
     18 H           5.6663   -3.4463   17.4446 H       1  UNL1        0.1437
     19 C          -2.9939    4.6365   22.3509 C.3     1  UNL1        0.1799
     20 N          -2.8045    4.9666   23.8019 N.am    1  UNL1       -0.2636
     21 C          -3.9755    5.4053   24.6303 C.2     1  UNL1        0.2497
     22 O          -3.7861    5.7355   26.0813 O.2     1  UNL1       -0.2699
     23 C          -5.3359    5.5139   24.0079 C.ar    1  UNL1        0.0567
     24 C          -5.7278    6.7627   23.2750 C.ar    1  UNL1        0.0252
     25 C          -7.0883    6.8713   22.6526 C.ar    1  UNL1        0.0990
     26 N          -8.0568    5.7311   22.7630 N.ar    1  UNL1       -0.2423
     27 C          -7.6648    4.4824   23.4959 C.ar    1  UNL1        0.0990
     28 C          -6.3044    4.3738   24.1183 C.ar    1  UNL1        0.0252
     29 C          -1.4441    4.8580   24.4243 C.3     1  UNL1        0.1209
     30 C          -1.0484    3.6053   25.1483 C.ar    1  UNL1       -0.0023
     31 C          -0.2918    2.5294   24.4271 C.ar    1  UNL1       -0.0026
     32 C           0.1040    1.2767   25.1510 C.ar    1  UNL1       -0.0003
     33 C          -0.2569    1.0998   26.5963 C.ar    1  UNL1       -0.0000
     34 C          -1.0135    2.1757   27.3174 C.ar    1  UNL1       -0.0003
     35 C          -1.4093    3.4284   26.5934 C.ar    1  UNL1       -0.0026
@<TRIPOS>BOND
     1    10    11    1
     2    11    12   ar
     3    12    13   ar
     4    13    14   ar
     5    14     5    1
     6     5     6   ar
     7     6     7   ar
     8     7     8   ar
     9     8     1    1
    10     1     2   am
    11     2     3    2
    12     2    19    1
    13    19    20    1
    14    20    29    1
    15    29    30    1
    16    30    31   ar
    17    31    32   ar
    18    32    33   ar
    19    33    34   ar
    20    34    35   ar
    21    20    21   am
    22    21    22    2
    23    21    23    1
    24    23    24   ar
    25    24    25   ar
    26    25    26   ar
    27    26    27   ar
    28    27    28   ar
    29     8     9   ar
    30    14    15   ar
    31    15    16   ar
    32    16    11   ar
    33     9     5   ar
    34    35    30   ar
    35    28    23   ar
    36    10    17    1
    37    10    18    1
    38     1     4    1
@<TRIPOS>MOLECULE
*****
 35 38 0 0 0
SMALL
GASTEIGER

@<TRIPOS>ATOM
      1 N          -1.0417    1.8705   20.4624 N.am    1  UNL1       -0.2627
      2 C          -1.2430    3.3352   20.2090 C.2     1  UNL1        0.2478
      3 O          -0.2412    4.1003   19.3961 O.2     1  UNL1       -0.2729
      4 H          -1.6993    1.3683   20.9959 H       1  UNL1        0.1568
      5 C           2.1502   -0.2075   19.7143 C.ar    1  UNL1        0.0527
      6 C           1.8754    0.3962   18.3690 C.ar    1  UNL1        0.1074
      7 N           0.6462    1.2481   18.4854 N.ar    1  UNL1       -0.2224
      8 C           0.1614    1.1709   19.9027 C.ar    1  UNL1        0.1656
      9 S           1.0908    0.2713   20.6623 S.2     1  UNL1       -0.0513
     10 N           6.6895   -3.8906   21.0667 N.pl3   1  UNL1       -0.3426
     11 C           5.5547   -2.9698   20.7286 C.ar    1  UNL1        0.1254
     12 C           4.2969   -3.5200   20.1242 C.ar    1  UNL1        0.0339
     13 C           3.1621   -2.5993   19.7861 C.ar    1  UNL1        0.0049
     14 C           3.2850   -1.1282   20.0524 C.ar    1  UNL1        0.0269
     15 C           4.5427   -0.5780   20.6568 C.ar    1  UNL1        0.1008
     16 N           5.6776   -1.4988   20.9949 N.ar    1  UNL1       -0.2296
     17 H           6.6088   -4.8561   20.8919 H       1  UNL1        0.1437
     18 H           7.5150   -3.5295   21.4634 H       1  UNL1        0.1437
     19 C          -2.4461    4.0346   20.7687 C.3     1  UNL1        0.1799
     20 N          -3.8217    3.5183   20.4667 N.am    1  UNL1       -0.2636
     21 C          -4.4464    3.7858   19.1294 C.2     1  UNL1        0.2497
     22 O          -5.8221    3.2695   18.8275 O.2     1  UNL1       -0.2699
     23 C          -3.6955    4.5696   18.0941 C.ar    1  UNL1        0.0567
     24 C          -3.7071    6.0690   18.1342 C.ar    1  UNL1        0.0252
     25 C          -2.9562    6.8527   17.0989 C.ar    1  UNL1        0.0990
     26 N          -2.1938    6.1371   16.0235 N.ar    1  UNL1       -0.2423
     27 C          -2.1822    4.6376   15.9834 C.ar    1  UNL1        0.0990
     28 C          -2.9331    3.8539   17.0187 C.ar    1  UNL1        0.0252
     29 C          -4.5726    2.7346   21.5020 C.3     1  UNL1        0.1209
     30 C          -5.3018    3.4493   22.6009 C.ar    1  UNL1       -0.0023
     31 C          -4.7952    3.3727   24.0107 C.ar    1  UNL1       -0.0026
     32 C          -5.5243    4.0874   25.1096 C.ar    1  UNL1       -0.0003
     33 C          -6.7601    4.8788   24.7986 C.ar    1  UNL1       -0.0000
     34 C          -7.2667    4.9554   23.3888 C.ar    1  UNL1       -0.0003
     35 C          -6.5375    4.2407   22.2900 C.ar    1  UNL1       -0.0026
@<TRIPOS>BOND
     1    10    11    1
     2    11    12   ar
     3    12    13   ar
     4    13    14   ar
     5    14     5    1
     6     5     6   ar
     7     6     7   ar
     8     7     8   ar
     9     8     1    1
    10     1     2   am
    11     2     3    2
    12     2    19    1
    13    19    20    1
    14    20    29    1
    15    29    30    1
    16    30    31   ar
    17    31    32   ar
    18    32    33   ar
    19    33    34   ar
    20    34    35   ar
    21    20    21   am
    22    21    22    2
    23    21    23    1
    24    23    24   ar
    25    24    25   ar
    26    25    26   ar
    27    26    27   ar
    28    27    28   ar
    29     8     9   ar
    30    14    15   ar
    31    15    16   ar
    32    16    11   ar
    33     9     5   ar
    34    35    30   ar
    35    28    23   ar
    36    10    17    1
    37    10    18    1
    38     1     4    1
@<TRIPOS>MOLECULE
*****
 35 38 0 0 0
SMALL
GASTEIGER

@<TRIPOS>ATOM
      1 N           4.6981   -1.2841   27.4780 N.am    1  UNL1       -0.2627
      2 C           5.5861   -0.2605   28.1212 C.2     1  UNL1        0.2478
      3 O           6.8716    0.1391   27.4596 O.2     1  UNL1       -0.2729
      4 H           3.8543   -1.5464   27.9122 H       1  UNL1        0.1568
      5 C           5.1864   -2.4608   23.8116 C.ar    1  UNL1        0.0527
      6 C           6.2283   -3.2758   24.5188 C.ar    1  UNL1        0.1074
      7 N           6.1722   -2.9343   25.9783 N.ar    1  UNL1       -0.2224
      8 C           5.0956   -1.9081   26.1731 C.ar    1  UNL1        0.1656
      9 S           4.4864   -1.6155   24.8340 S.2     1  UNL1       -0.0513
     10 N           4.0232   -2.5637   17.9263 N.pl3   1  UNL1       -0.3426
     11 C           4.3140   -2.5380   19.3976 C.ar    1  UNL1        0.1254
     12 C           4.2471   -3.8050   20.1976 C.ar    1  UNL1        0.0339
     13 C           4.5379   -3.7793   21.6689 C.ar    1  UNL1        0.0049
     14 C           4.8956   -2.4865   22.3402 C.ar    1  UNL1        0.0269
     15 C           4.9625   -1.2195   21.5402 C.ar    1  UNL1        0.1008
     16 N           4.6717   -1.2452   20.0689 N.ar    1  UNL1       -0.2296
     17 H           3.7884   -3.4122   17.4857 H       1  UNL1        0.1437
     18 H           4.0671   -1.7321   17.4012 H       1  UNL1        0.1437
     19 C           5.1885    0.3634   29.4260 C.3     1  UNL1        0.1799
     20 N           5.0706   -0.4845   30.6577 N.am    1  UNL1       -0.2636
     21 C           3.7387   -0.6550   31.3263 C.2     1  UNL1        0.2497
     22 O           3.6209   -1.5029   32.5580 O.2     1  UNL1       -0.2699
     23 C           2.5246    0.0225   30.7632 C.ar    1  UNL1        0.0567
     24 C           1.8296   -0.5569   29.5669 C.ar    1  UNL1        0.0252
     25 C           0.6155    0.1206   29.0038 C.ar    1  UNL1        0.0990
     26 N           0.0966    1.3774   29.6370 N.ar    1  UNL1       -0.2423
     27 C           0.7916    1.9569   30.8333 C.ar    1  UNL1        0.0990
     28 C           2.0057    1.2794   31.3964 C.ar    1  UNL1        0.0252
     29 C           6.2847   -1.1620   31.2208 C.3     1  UNL1        0.1209
     30 C           6.4941   -2.6308   31.0000 C.ar    1  UNL1       -0.0023
     31 C           6.6520   -3.1649   29.6073 C.ar    1  UNL1       -0.0026
     32 C           6.8614   -4.6337   29.3864 C.ar    1  UNL1       -0.0003
     33 C           6.9129   -5.5685   30.5585 C.ar    1  UNL1       -0.0000
     34 C           6.7550   -5.0344   31.9513 C.ar    1  UNL1       -0.0003
     35 C           6.5456   -3.5655   32.1720 C.ar    1  UNL1       -0.0026
@<TRIPOS>BOND
     1    10    11    1
     2    11    12   ar
     3    12    13   ar
     4    13    14   ar
     5    14     5    1
     6     5     6   ar
     7     6     7   ar
     8     7     8   ar
     9     8     1    1
    10     1     2   am
    11     2     3    2
    12     2    19    1
    13    19    20    1
    14    20    29    1
    15    29    30    1
    16    30    31   ar
    17    31    32   ar
    18    32    33   ar
    19    33    34   ar
    20    34    35   ar
    21    20    21   am
    22    21    22    2
    23    21    23    1
    24    23    24   ar
    25    24    25   ar
    26    25    26   ar
    27    26    27   ar
    28    27    28   ar
    29     8     9   ar
    30    14    15   ar
    31    15    16   ar
    32    16    11   ar
    33     9     5   ar
    34    35    30   ar
    35    28    23   ar
    36    10    17    1
    37    10    18    1
    38     1     4    1
@<TRIPOS>MOLECULE
*****
 35 38 0 0 0
SMALL
GASTEIGER

@<TRIPOS>ATOM
      1 N           3.6304    0.0769   34.0338 N.am    1  UNL1       -0.2627
      2 C           3.4900    1.5441   33.7551 C.2     1  UNL1        0.2478
      3 O           4.4976    2.2432   32.8914 O.2     1  UNL1       -0.2729
      4 H           2.9690   -0.3819   34.6007 H       1  UNL1        0.1568
      5 C           6.0635   -2.2917   32.1537 C.ar    1  UNL1        0.0527
      6 C           7.0259   -1.4549   32.9433 C.ar    1  UNL1        0.1074
      7 N           6.2316   -0.4657   33.7437 N.ar    1  UNL1       -0.2224
      8 C           4.7783   -0.6912   33.4488 C.ar    1  UNL1        0.1656
      9 S           4.6744   -1.8197   32.4661 S.2     1  UNL1       -0.0513
     10 N           7.5153   -6.7450   28.4039 N.pl3   1  UNL1       -0.3426
     11 C           7.1523   -5.6317   29.3414 C.ar    1  UNL1        0.1254
     12 C           7.1851   -5.8586   30.8237 C.ar    1  UNL1        0.0339
     13 C           6.8222   -4.7453   31.7611 C.ar    1  UNL1        0.0049
     14 C           6.4264   -3.4050   31.2162 C.ar    1  UNL1        0.0269
     15 C           6.3936   -3.1780   29.7339 C.ar    1  UNL1        0.1008
     16 N           6.7566   -4.2914   28.7965 N.ar    1  UNL1       -0.2296
     17 H           7.7750   -7.6247   28.7616 H       1  UNL1        0.1437
     18 H           7.4938   -6.5960   27.4310 H       1  UNL1        0.1437
     19 C           2.3421    2.3122   34.3402 C.3     1  UNL1        0.1799
     20 N           2.6021    3.4263   35.3103 N.am    1  UNL1       -0.2636
     21 C           2.2555    4.8383   34.9413 C.2     1  UNL1        0.2497
     22 O           2.5154    5.9525   35.9114 O.2     1  UNL1       -0.2699
     23 C           1.6490    5.1362   33.6021 C.ar    1  UNL1        0.0567
     24 C           0.1577    5.1614   33.4431 C.ar    1  UNL1        0.0252
     25 C          -0.4488    5.4592   32.1039 C.ar    1  UNL1        0.0990
     26 N           0.4360    5.7319   30.9238 N.ar    1  UNL1       -0.2423
     27 C           1.9273    5.7068   31.0828 C.ar    1  UNL1        0.0990
     28 C           2.5338    5.4089   32.4219 C.ar    1  UNL1        0.0252
     29 C           3.2086    3.1284   36.6495 C.3     1  UNL1        0.1209
     30 C           2.3998    2.4263   37.6997 C.ar    1  UNL1       -0.0023
     31 C           1.1849    3.0889   38.2784 C.ar    1  UNL1       -0.0026
     32 C           0.3760    2.3868   39.3285 C.ar    1  UNL1       -0.0003
     33 C           0.7823    1.0219   39.8001 C.ar    1  UNL1       -0.0000
     34 C           1.9972    0.3593   39.2214 C.ar    1  UNL1       -0.0003
     35 C           2.8060    1.0615   38.1712 C.ar    1  UNL1       -0.0026
@<TRIPOS>BOND
     1    10    11    1
     2    11    12   ar
     3    12    13   ar
     4    13    14   ar
     5    14     5    1
     6     5     6   ar
     7     6     7   ar
     8     7     8   ar
     9     8     1    1
    10     1     2   am
    11     2     3    2
    12     2    19    1
    13    19    20    1
    14    20    29    1
    15    29    30    1
    16    30    31   ar
    17    31    32   ar
    18    32    33   ar
    19    33    34   ar
    20    34    35   ar
    21    20    21   am
    22    21    22    2
    23    21    23    1
    24    23    24   ar
    25    24    25   ar
    26    25    26   ar
    27    26    27   ar
    28    27    28   ar
    29     8     9   ar
    30    14    15   ar
    31    15    16   ar
    32    16    11   ar
    33     9     5   ar
    34    35    30   ar
    35    28    23   ar
    36    10    17    1
    37    10    18    1
    38     1     4    1
