@<TRIPOS>MOLECULE
*****
 33 37 0 0 0
SMALL
GASTEIGER

@<TRIPOS>ATOM
      1 C          -1.3893    3.5052   19.8481 C.2     1  UNL1        0.2354
      2 O          -2.2397    2.6000   20.6892 O.2     1  UNL1       -0.2741
      3 N          -0.0383    3.0476   19.3838 N.am    1  UNL1       -0.2582
      4 C           0.9191    3.8380   18.5421 C.3     1  UNL1        0.1030
      5 C           2.1415    2.9980   18.3179 C.3     1  UNL1        0.0518
      6 C           1.9395    1.6885   19.0210 C.ar    1  UNL1        0.0207
      7 C           0.5923    1.7191   19.6798 C.ar    1  UNL1        0.0520
      8 C           0.1138    0.5334   20.4641 C.ar    1  UNL1        0.0147
      9 C           0.9825   -0.6830   20.5896 C.ar    1  UNL1        0.0035
     10 C           2.3298   -0.7136   19.9308 C.ar    1  UNL1        0.0289
     11 C           2.8082    0.4722   19.1465 C.ar    1  UNL1        0.1374
     12 F           4.1555    0.4415   18.4877 F       1  UNL1       -0.2045
     13 C           3.1985   -1.9299   20.0563 C.ar    1  UNL1        0.0250
     14 C           3.4660   -2.9375   18.9777 C.ar    1  UNL1        0.0772
     15 N           4.3851   -3.9825   19.5371 N.ar    1  UNL1       -0.3094
     16 C           4.9113   -5.1791   18.8014 C.3     1  UNL1        0.1319
     17 C           4.6857   -3.6209   20.9616 C.ar    1  UNL1        0.1483
     18 N           5.5324   -4.2828   22.0080 N.ar    1  UNL1       -0.2065
     19 C           5.6457   -3.6763   23.3751 C.ar    1  UNL1        0.2014
     20 N           4.9124   -2.4077   23.6960 N.ar    1  UNL1       -0.2094
     21 C           4.0656   -1.7457   22.6496 C.ar    1  UNL1        0.1300
     22 N           3.3322   -0.4771   22.9704 N.pl3   1  UNL1       -0.3425
     23 C           3.9523   -2.3523   21.2824 C.ar    1  UNL1        0.0669
     24 H           3.4066   -0.0790   23.8677 H       1  UNL1        0.1437
     25 H           2.7765   -0.0427   22.2836 H       1  UNL1        0.1437
     26 C          -1.8898    4.8681   19.4713 C.3     1  UNL1        0.1312
     27 C          -6.9744    4.1180   18.7073 C.3     1  UNL1        0.0521
     28 C          -5.6504    4.6323   18.2253 C.ar    1  UNL1        0.0590
     29 C          -5.5445    5.2859   16.8794 C.ar    1  UNL1        0.0147
     30 C          -4.2205    5.8002   16.3974 C.ar    1  UNL1        0.0024
     31 C          -3.0022    5.6609   17.2613 C.ar    1  UNL1        0.0152
     32 C          -3.1080    5.0074   18.6073 C.ar    1  UNL1        0.0678
     33 N          -4.4321    4.4931   19.0893 N.ar    1  UNL1       -0.2535
@<TRIPOS>BOND
     1    27    28    1
     2    28    29   ar
     3    29    30   ar
     4    30    31   ar
     5    31    32   ar
     6    32    26    1
     7    26     1    1
     8     1     2    2
     9     1     3   am
    10     3     4    1
    11     4     5    1
    12     5     6    1
    13     6     7   ar
    14     7     8   ar
    15     8     9   ar
    16     9    10   ar
    17    10    13    1
    18    13    14   ar
    19    14    15   ar
    20    15    16    1
    21    15    17   ar
    22    17    18   ar
    23    18    19   ar
    24    19    20   ar
    25    20    21   ar
    26    21    22    1
    27    21    23   ar
    28    10    11   ar
    29    11    12    1
    30    32    33   ar
    31    33    28   ar
    32     7     3    1
    33    23    13   ar
    34    11     6   ar
    35    23    17   ar
    36    22    24    1
    37    22    25    1
@<TRIPOS>MOLECULE
*****
 33 37 0 0 0
SMALL
GASTEIGER

@<TRIPOS>ATOM
      1 C           7.8618   -5.6230   30.9902 C.2     1  UNL1        0.2354
      2 O           6.8556   -6.3562   31.8268 O.2     1  UNL1       -0.2741
      3 N           7.8449   -4.1239   30.9390 N.am    1  UNL1       -0.2582
      4 C           8.7829   -3.2581   30.1513 C.3     1  UNL1        0.1030
      5 C           8.4047   -1.8266   30.3920 C.3     1  UNL1        0.0518
      6 C           7.2331   -1.8078   31.3284 C.ar    1  UNL1        0.0207
      7 C           6.8871   -3.2276   31.6665 C.ar    1  UNL1        0.0520
      8 C           5.7447   -3.5210   32.5931 C.ar    1  UNL1        0.0147
      9 C           4.9481   -2.3944   33.1817 C.ar    1  UNL1        0.0035
     10 C           5.2941   -0.9745   32.8436 C.ar    1  UNL1        0.0289
     11 C           6.4366   -0.6812   31.9170 C.ar    1  UNL1        0.1374
     12 F           6.7826    0.7386   31.5789 F       1  UNL1       -0.2045
     13 C           4.4976    0.1520   33.4322 C.ar    1  UNL1        0.0250
     14 C           4.7754    0.8419   34.7349 C.ar    1  UNL1        0.0772
     15 N           3.7329    1.9028   34.9292 N.ar    1  UNL1       -0.3094
     16 C           3.6305    2.8342   36.1004 C.3     1  UNL1        0.1319
     17 C           2.8108    1.8686   33.7465 C.ar    1  UNL1        0.1483
     18 N           1.6019    2.6829   33.3925 N.ar    1  UNL1       -0.2065
     19 C           0.8655    2.4154   32.1134 C.ar    1  UNL1        0.2014
     20 N           1.3381    1.3333   31.1882 N.ar    1  UNL1       -0.2094
     21 C           2.5471    0.5189   31.5422 C.ar    1  UNL1        0.1300
     22 N           3.0197   -0.5631   30.6170 N.pl3   1  UNL1       -0.3425
     23 C           3.2834    0.7866   32.8213 C.ar    1  UNL1        0.0669
     24 H           2.5364   -0.7387   29.7775 H       1  UNL1        0.1437
     25 H           3.8132   -1.0975   30.8494 H       1  UNL1        0.1437
     26 C           8.8849   -6.3888   30.2049 C.3     1  UNL1        0.1312
     27 C           7.0982   -5.2792   25.4534 C.3     1  UNL1        0.0521
     28 C           7.6932   -6.2582   26.4216 C.ar    1  UNL1        0.0590
     29 C           7.9900   -7.6613   25.9824 C.ar    1  UNL1        0.0147
     30 C           8.5851   -8.6404   26.9506 C.ar    1  UNL1        0.0024
     31 C           8.8834   -8.2162   28.3581 C.ar    1  UNL1        0.0152
     32 C           8.5866   -6.8130   28.7973 C.ar    1  UNL1        0.0678
     33 N           7.9916   -5.8340   27.8291 N.ar    1  UNL1       -0.2535
@<TRIPOS>BOND
     1    27    28    1
     2    28    29   ar
     3    29    30   ar
     4    30    31   ar
     5    31    32   ar
     6    32    26    1
     7    26     1    1
     8     1     2    2
     9     1     3   am
    10     3     4    1
    11     4     5    1
    12     5     6    1
    13     6     7   ar
    14     7     8   ar
    15     8     9   ar
    16     9    10   ar
    17    10    13    1
    18    13    14   ar
    19    14    15   ar
    20    15    16    1
    21    15    17   ar
    22    17    18   ar
    23    18    19   ar
    24    19    20   ar
    25    20    21   ar
    26    21    22    1
    27    21    23   ar
    28    10    11   ar
    29    11    12    1
    30    32    33   ar
    31    33    28   ar
    32     7     3    1
    33    23    13   ar
    34    11     6   ar
    35    23    17   ar
    36    22    24    1
    37    22    25    1
@<TRIPOS>MOLECULE
*****
 33 37 0 0 0
SMALL
GASTEIGER

@<TRIPOS>ATOM
      1 C          -1.1448    3.7124   19.1060 C.2     1  UNL1        0.2354
      2 O          -0.8258    3.6546   17.6415 O.2     1  UNL1       -0.2741
      3 N          -0.4725    2.7679   20.0579 N.am    1  UNL1       -0.2582
      4 C          -0.6894    2.7079   21.5409 C.3     1  UNL1        0.1030
      5 C           0.1837    1.6205   22.0934 C.3     1  UNL1        0.0518
      6 C           0.9402    1.0085   20.9518 C.ar    1  UNL1        0.0207
      7 C           0.5346    1.7176   19.6938 C.ar    1  UNL1        0.0520
      8 C           1.1348    1.3153   18.3793 C.ar    1  UNL1        0.0147
      9 C           2.1406    0.2039   18.3228 C.ar    1  UNL1        0.0035
     10 C           2.5462   -0.5052   19.5808 C.ar    1  UNL1        0.0289
     11 C           1.9460   -0.1029   20.8953 C.ar    1  UNL1        0.1374
     12 F           2.3516   -0.8120   22.1534 F       1  UNL1       -0.2045
     13 C           3.5519   -1.6166   19.5243 C.ar    1  UNL1        0.0250
     14 C           3.2658   -3.0479   19.1786 C.ar    1  UNL1        0.0772
     15 N           4.5574   -3.8078   19.2443 N.ar    1  UNL1       -0.3094
     16 C           4.7337   -5.2722   18.9715 C.3     1  UNL1        0.1319
     17 C           5.6418   -2.8460   19.6305 C.ar    1  UNL1        0.1483
     18 N           7.1149   -3.0284   19.8470 N.ar    1  UNL1       -0.2065
     19 C           7.9665   -1.8567   20.2366 C.ar    1  UNL1        0.2014
     20 N           7.3451   -0.5025   20.4097 N.ar    1  UNL1       -0.2094
     21 C           5.8719   -0.3200   20.1932 C.ar    1  UNL1        0.1300
     22 N           5.2505    1.0341   20.3662 N.pl3   1  UNL1       -0.3425
     23 C           5.0204   -1.4918   19.8036 C.ar    1  UNL1        0.0669
     24 H           5.8094    1.8032   20.6219 H       1  UNL1        0.1437
     25 H           4.2837    1.1538   20.2241 H       1  UNL1        0.1437
     26 C          -2.1360    4.7146   19.6187 C.3     1  UNL1        0.1312
     27 C          -6.7331    4.4736   22.0288 C.3     1  UNL1        0.0521
     28 C          -5.9012    4.2806   20.7957 C.ar    1  UNL1        0.0590
     29 C          -6.5358    3.7741   19.5344 C.ar    1  UNL1        0.0147
     30 C          -5.7039    3.5812   18.3013 C.ar    1  UNL1        0.0024
     31 C          -4.2373    3.8946   18.3293 C.ar    1  UNL1        0.0152
     32 C          -3.6027    4.4011   19.5905 C.ar    1  UNL1        0.0678
     33 N          -4.4346    4.5941   20.8237 N.ar    1  UNL1       -0.2535
@<TRIPOS>BOND
     1    27    28    1
     2    28    29   ar
     3    29    30   ar
     4    30    31   ar
     5    31    32   ar
     6    32    26    1
     7    26     1    1
     8     1     2    2
     9     1     3   am
    10     3     4    1
    11     4     5    1
    12     5     6    1
    13     6     7   ar
    14     7     8   ar
    15     8     9   ar
    16     9    10   ar
    17    10    13    1
    18    13    14   ar
    19    14    15   ar
    20    15    16    1
    21    15    17   ar
    22    17    18   ar
    23    18    19   ar
    24    19    20   ar
    25    20    21   ar
    26    21    22    1
    27    21    23   ar
    28    10    11   ar
    29    11    12    1
    30    32    33   ar
    31    33    28   ar
    32     7     3    1
    33    23    13   ar
    34    11     6   ar
    35    23    17   ar
    36    22    24    1
    37    22    25    1
@<TRIPOS>MOLECULE
*****
 33 37 0 0 0
SMALL
GASTEIGER

@<TRIPOS>ATOM
      1 C          -1.0868    3.3997   21.4967 C.2     1  UNL1        0.2354
      2 O          -0.9340    2.8532   22.8852 O.2     1  UNL1       -0.2741
      3 N          -0.3203    2.7885   20.3614 N.am    1  UNL1       -0.2582
      4 C          -0.3706    3.2253   18.9273 C.3     1  UNL1        0.1030
      5 C           0.5497    2.3398   18.1406 C.3     1  UNL1        0.0518
      6 C           1.1687    1.3558   19.0884 C.ar    1  UNL1        0.0207
      7 C           0.6310    1.6331   20.4610 C.ar    1  UNL1        0.0520
      8 C           1.0772    0.7976   21.6242 C.ar    1  UNL1        0.0147
      9 C           2.0611   -0.3151   21.4148 C.ar    1  UNL1        0.0035
     10 C           2.5988   -0.5924   20.0422 C.ar    1  UNL1        0.0289
     11 C           2.1526    0.2431   18.8790 C.ar    1  UNL1        0.1374
     12 F           2.6903   -0.0342   17.5064 F       1  UNL1       -0.2045
     13 C           3.5826   -1.7051   19.8327 C.ar    1  UNL1        0.0250
     14 C           3.2653   -3.0770   19.3156 C.ar    1  UNL1        0.0772
     15 N           4.5431   -3.8611   19.2669 N.ar    1  UNL1       -0.3094
     16 C           4.6883   -5.2828   18.8112 C.3     1  UNL1        0.1319
     17 C           5.6502   -2.9738   19.7540 C.ar    1  UNL1        0.1483
     18 N           7.1221   -3.2070   19.9242 N.ar    1  UNL1       -0.2065
     19 C           8.0005   -2.1079   20.4441 C.ar    1  UNL1        0.2014
     20 N           7.4069   -0.7754   20.7938 N.ar    1  UNL1       -0.2094
     21 C           5.9349   -0.5422   20.6236 C.ar    1  UNL1        0.1300
     22 N           5.3412    0.7902   20.9732 N.pl3   1  UNL1       -0.3425
     23 C           5.0565   -1.6414   20.1036 C.ar    1  UNL1        0.0669
     24 H           5.9177    1.5117   21.3145 H       1  UNL1        0.1437
     25 H           4.3751    0.9433   20.8615 H       1  UNL1        0.1437
     26 C          -2.0062    4.5576   21.2435 C.3     1  UNL1        0.1312
     27 C          -7.0266    4.3336   22.5647 C.3     1  UNL1        0.0521
     28 C          -5.9482    4.1989   21.5309 C.ar    1  UNL1        0.0590
     29 C          -6.3013    3.8175   20.1239 C.ar    1  UNL1        0.0147
     30 C          -5.2229    3.6827   19.0900 C.ar    1  UNL1        0.0024
     31 C          -3.7912    3.9294   19.4632 C.ar    1  UNL1        0.0152
     32 C          -3.4380    4.3109   20.8702 C.ar    1  UNL1        0.0678
     33 N          -4.5164    4.4456   21.9040 N.ar    1  UNL1       -0.2535
@<TRIPOS>BOND
     1    27    28    1
     2    28    29   ar
     3    29    30   ar
     4    30    31   ar
     5    31    32   ar
     6    32    26    1
     7    26     1    1
     8     1     2    2
     9     1     3   am
    10     3     4    1
    11     4     5    1
    12     5     6    1
    13     6     7   ar
    14     7     8   ar
    15     8     9   ar
    16     9    10   ar
    17    10    13    1
    18    13    14   ar
    19    14    15   ar
    20    15    16    1
    21    15    17   ar
    22    17    18   ar
    23    18    19   ar
    24    19    20   ar
    25    20    21   ar
    26    21    22    1
    27    21    23   ar
    28    10    11   ar
    29    11    12    1
    30    32    33   ar
    31    33    28   ar
    32     7     3    1
    33    23    13   ar
    34    11     6   ar
    35    23    17   ar
    36    22    24    1
    37    22    25    1
@<TRIPOS>MOLECULE
*****
 33 37 0 0 0
SMALL
GASTEIGER

@<TRIPOS>ATOM
      1 C         -16.0374    2.0897   19.6858 C.2     1  UNL1        0.2354
      2 O         -16.6822    1.4653   20.8876 O.2     1  UNL1       -0.2741
      3 N         -15.1818    1.2582   18.7766 N.am    1  UNL1       -0.2582
      4 C         -14.4762    1.7411   17.5442 C.3     1  UNL1        0.1030
      5 C         -13.7399    0.5791   16.9463 C.3     1  UNL1        0.0518
      6 C         -13.9905   -0.6221   17.8091 C.ar    1  UNL1        0.0207
      7 C         -14.8817   -0.2024   18.9404 C.ar    1  UNL1        0.0520
      8 C         -15.3047   -1.2043   19.9734 C.ar    1  UNL1        0.0147
      9 C         -14.8365   -2.6260   19.8752 C.ar    1  UNL1        0.0035
     10 C         -13.9454   -3.0457   18.7439 C.ar    1  UNL1        0.0289
     11 C         -13.5224   -2.0437   17.7109 C.ar    1  UNL1        0.1374
     12 F         -12.6312   -2.4634   16.5796 F       1  UNL1       -0.2045
     13 C         -13.4772   -4.4674   18.6457 C.ar    1  UNL1        0.0250
     14 C         -14.3432   -5.6652   18.3899 C.ar    1  UNL1        0.0772
     15 N         -13.4621   -6.8790   18.3721 N.ar    1  UNL1       -0.3094
     16 C         -13.9124   -8.2922   18.1487 C.3     1  UNL1        0.1319
     17 C         -12.0515   -6.4313   18.6169 C.ar    1  UNL1        0.1483
     18 N         -10.7597   -7.1883   18.7076 N.ar    1  UNL1       -0.2065
     19 C          -9.4773   -6.4550   18.9674 C.ar    1  UNL1        0.2014
     20 N          -9.4866   -4.9645   19.1365 N.ar    1  UNL1       -0.2094
     21 C         -10.7784   -4.2075   19.0458 C.ar    1  UNL1        0.1300
     22 N         -10.7878   -2.7171   19.2148 N.pl3   1  UNL1       -0.3425
     23 C         -12.0609   -4.9409   18.7859 C.ar    1  UNL1        0.0669
     24 H          -9.9461   -2.2357   19.3854 H       1  UNL1        0.1437
     25 H         -11.6357   -2.2202   19.1553 H       1  UNL1        0.1437
     26 C         -16.2482    3.5457   19.3931 C.3     1  UNL1        0.1312
     27 C         -13.6933    5.1083   23.6393 C.3     1  UNL1        0.0521
     28 C         -14.1579    5.3621   22.2359 C.ar    1  UNL1        0.0590
     29 C         -13.8096    6.6508   21.5520 C.ar    1  UNL1        0.0147
     30 C         -14.2741    6.9046   20.1485 C.ar    1  UNL1        0.0024
     31 C         -15.0870    5.8696   19.4288 C.ar    1  UNL1        0.0152
     32 C         -15.4353    4.5808   20.1127 C.ar    1  UNL1        0.0678
     33 N         -14.9707    4.3270   21.5162 N.ar    1  UNL1       -0.2535
@<TRIPOS>BOND
     1    27    28    1
     2    28    29   ar
     3    29    30   ar
     4    30    31   ar
     5    31    32   ar
     6    32    26    1
     7    26     1    1
     8     1     2    2
     9     1     3   am
    10     3     4    1
    11     4     5    1
    12     5     6    1
    13     6     7   ar
    14     7     8   ar
    15     8     9   ar
    16     9    10   ar
    17    10    13    1
    18    13    14   ar
    19    14    15   ar
    20    15    16    1
    21    15    17   ar
    22    17    18   ar
    23    18    19   ar
    24    19    20   ar
    25    20    21   ar
    26    21    22    1
    27    21    23   ar
    28    10    11   ar
    29    11    12    1
    30    32    33   ar
    31    33    28   ar
    32     7     3    1
    33    23    13   ar
    34    11     6   ar
    35    23    17   ar
    36    22    24    1
    37    22    25    1
@<TRIPOS>MOLECULE
*****
 33 37 0 0 0
SMALL
GASTEIGER

@<TRIPOS>ATOM
      1 C          -0.9426    3.2300   22.4105 C.2     1  UNL1        0.2354
      2 O          -0.5294    2.6403   23.7264 O.2     1  UNL1       -0.2741
      3 N          -0.3486    2.7088   21.1355 N.am    1  UNL1       -0.2582
      4 C          -0.6628    3.1967   19.7524 C.3     1  UNL1        0.1030
      5 C           0.1555    2.3976   18.7820 C.3     1  UNL1        0.0518
      6 C           0.9755    1.4158   19.5653 C.ar    1  UNL1        0.0207
      7 C           0.6640    1.6081   21.0200 C.ar    1  UNL1        0.0520
      8 C           1.3425    0.7562   22.0513 C.ar    1  UNL1        0.0147
      9 C           2.3327   -0.2881   21.6281 C.ar    1  UNL1        0.0035
     10 C           2.6442   -0.4805   20.1735 C.ar    1  UNL1        0.0289
     11 C           1.9656    0.3715   19.1421 C.ar    1  UNL1        0.1374
     12 F           2.2772    0.1792   17.6875 F       1  UNL1       -0.2045
     13 C           3.6343   -1.5247   19.7502 C.ar    1  UNL1        0.0250
     14 C           3.3281   -2.9644   19.4612 C.ar    1  UNL1        0.0772
     15 N           4.6090   -3.6421   19.0740 N.ar    1  UNL1       -0.3094
     16 C           4.7647   -5.0870   18.7024 C.3     1  UNL1        0.1319
     17 C           5.7069   -2.6212   19.1237 C.ar    1  UNL1        0.1483
     18 N           7.1774   -2.7141   18.8424 N.ar    1  UNL1       -0.2065
     19 C           8.0455   -1.4986   18.9790 C.ar    1  UNL1        0.2014
     20 N           7.4431   -0.1899   19.3969 N.ar    1  UNL1       -0.2094
     21 C           5.9726   -0.0969   19.6782 C.ar    1  UNL1        0.1300
     22 N           5.3701    1.2117   20.0961 N.pl3   1  UNL1       -0.3425
     23 C           5.1045   -1.3126   19.5416 C.ar    1  UNL1        0.0669
     24 H           5.9399    2.0095   20.1858 H       1  UNL1        0.1437
     25 H           4.4050    1.2727   20.2808 H       1  UNL1        0.1437
     26 C          -1.9497    4.3408   22.3696 C.3     1  UNL1        0.1312
     27 C          -4.5735    4.6615   26.8431 C.3     1  UNL1        0.0521
     28 C          -4.5464    4.3773   25.3706 C.ar    1  UNL1        0.0590
     29 C          -5.8040    3.9693   24.6622 C.ar    1  UNL1        0.0147
     30 C          -5.7769    3.6852   23.1896 C.ar    1  UNL1        0.0024
     31 C          -4.4922    3.8090   22.4253 C.ar    1  UNL1        0.0152
     32 C          -3.2345    4.2170   23.1337 C.ar    1  UNL1        0.0678
     33 N          -3.2616    4.5011   24.6063 N.ar    1  UNL1       -0.2535
@<TRIPOS>BOND
     1    27    28    1
     2    28    29   ar
     3    29    30   ar
     4    30    31   ar
     5    31    32   ar
     6    32    26    1
     7    26     1    1
     8     1     2    2
     9     1     3   am
    10     3     4    1
    11     4     5    1
    12     5     6    1
    13     6     7   ar
    14     7     8   ar
    15     8     9   ar
    16     9    10   ar
    17    10    13    1
    18    13    14   ar
    19    14    15   ar
    20    15    16    1
    21    15    17   ar
    22    17    18   ar
    23    18    19   ar
    24    19    20   ar
    25    20    21   ar
    26    21    22    1
    27    21    23   ar
    28    10    11   ar
    29    11    12    1
    30    32    33   ar
    31    33    28   ar
    32     7     3    1
    33    23    13   ar
    34    11     6   ar
    35    23    17   ar
    36    22    24    1
    37    22    25    1
@<TRIPOS>MOLECULE
*****
 33 37 0 0 0
SMALL
GASTEIGER

@<TRIPOS>ATOM
      1 C         -15.2084    2.5740   18.8884 C.2     1  UNL1        0.2354
      2 O         -14.0743    2.8108   17.9356 O.2     1  UNL1       -0.2741
      3 N         -15.5531    1.1769   19.3117 N.am    1  UNL1       -0.2582
      4 C         -16.6541    0.7871   20.2529 C.3     1  UNL1        0.1030
      5 C         -16.6388   -0.7064   20.3909 C.3     1  UNL1        0.0518
      6 C         -15.5284   -1.2397   19.5350 C.ar    1  UNL1        0.0207
      7 C         -14.8574   -0.0757   18.8680 C.ar    1  UNL1        0.0520
      8 C         -13.6995   -0.3068   17.9428 C.ar    1  UNL1        0.0147
      9 C         -13.2126   -1.7020   17.6846 C.ar    1  UNL1        0.0035
     10 C         -13.8836   -2.8660   18.3516 C.ar    1  UNL1        0.0289
     11 C         -15.0415   -2.6348   19.2768 C.ar    1  UNL1        0.1374
     12 F         -15.7125   -3.7988   19.9438 F       1  UNL1       -0.2045
     13 C         -13.3968   -4.2610   18.0935 C.ar    1  UNL1        0.0250
     14 C         -14.2133   -5.3918   17.5414 C.ar    1  UNL1        0.0772
     15 N         -13.3291   -6.5999   17.4488 N.ar    1  UNL1       -0.3094
     16 C         -13.7363   -7.9543   16.9491 C.3     1  UNL1        0.1319
     17 C         -11.9661   -6.2158   17.9436 C.ar    1  UNL1        0.1483
     18 N         -10.6923   -6.9956   18.0829 N.ar    1  UNL1       -0.2065
     19 C          -9.4604   -6.3299   18.6206 C.ar    1  UNL1        0.2014
     20 N          -9.5022   -4.8844   19.0190 N.ar    1  UNL1       -0.2094
     21 C         -10.7761   -4.1046   18.8798 C.ar    1  UNL1        0.1300
     22 N         -10.8179   -2.6591   19.2782 N.pl3   1  UNL1       -0.3425
     23 C         -12.0080   -4.7703   18.3421 C.ar    1  UNL1        0.0669
     24 H         -10.0094   -2.2221   19.6311 H       1  UNL1        0.1437
     25 H         -11.6540   -2.1473   19.1868 H       1  UNL1        0.1437
     26 C         -15.9977    3.7344   19.4180 C.3     1  UNL1        0.1312
     27 C         -13.3670    5.0542   23.7003 C.3     1  UNL1        0.0521
     28 C         -14.6615    4.7088   23.0257 C.ar    1  UNL1        0.0590
     29 C         -15.9350    4.6779   23.8175 C.ar    1  UNL1        0.0147
     30 C         -17.2295    4.3326   23.1429 C.ar    1  UNL1        0.0024
     31 C         -17.2504    4.0181   21.6764 C.ar    1  UNL1        0.0152
     32 C         -15.9768    4.0489   20.8846 C.ar    1  UNL1        0.0678
     33 N         -14.6824    4.3943   21.5592 N.ar    1  UNL1       -0.2535
@<TRIPOS>BOND
     1    27    28    1
     2    28    29   ar
     3    29    30   ar
     4    30    31   ar
     5    31    32   ar
     6    32    26    1
     7    26     1    1
     8     1     2    2
     9     1     3   am
    10     3     4    1
    11     4     5    1
    12     5     6    1
    13     6     7   ar
    14     7     8   ar
    15     8     9   ar
    16     9    10   ar
    17    10    13    1
    18    13    14   ar
    19    14    15   ar
    20    15    16    1
    21    15    17   ar
    22    17    18   ar
    23    18    19   ar
    24    19    20   ar
    25    20    21   ar
    26    21    22    1
    27    21    23   ar
    28    10    11   ar
    29    11    12    1
    30    32    33   ar
    31    33    28   ar
    32     7     3    1
    33    23    13   ar
    34    11     6   ar
    35    23    17   ar
    36    22    24    1
    37    22    25    1
@<TRIPOS>MOLECULE
*****
 33 37 0 0 0
SMALL
GASTEIGER

@<TRIPOS>ATOM
      1 C          -1.7511    3.3229   21.8462 C.2     1  UNL1        0.2354
      2 O          -2.1945    3.2567   20.4148 O.2     1  UNL1       -0.2741
      3 N          -0.5785    2.5086   22.3066 N.am    1  UNL1       -0.2582
      4 C          -0.0227    2.4722   23.6993 C.3     1  UNL1        0.1030
      5 C           1.1433    1.5287   23.7085 C.3     1  UNL1        0.0518
      6 C           1.3082    0.9820   22.3214 C.ar    1  UNL1        0.0207
      7 C           0.2440    1.5876   21.4550 C.ar    1  UNL1        0.0520
      8 C           0.1615    1.2222   20.0025 C.ar    1  UNL1        0.0147
      9 C           1.1432    0.2511   19.4165 C.ar    1  UNL1        0.0035
     10 C           2.2074   -0.3545   20.2829 C.ar    1  UNL1        0.0289
     11 C           2.2899    0.0110   21.7354 C.ar    1  UNL1        0.1374
     12 F           3.3541   -0.5946   22.6019 F       1  UNL1       -0.2045
     13 C           3.1891   -1.3255   19.6969 C.ar    1  UNL1        0.0250
     14 C           3.0692   -2.8206   19.7166 C.ar    1  UNL1        0.0772
     15 N           4.2690   -3.3910   19.0202 N.ar    1  UNL1       -0.3094
     16 C           4.5569   -4.8481   18.8106 C.3     1  UNL1        0.1319
     17 C           5.1305   -2.2484   18.5702 C.ar    1  UNL1        0.1483
     18 N           6.4364   -2.2055   17.8335 N.ar    1  UNL1       -0.2065
     19 C           7.0750   -0.8861   17.5151 C.ar    1  UNL1        0.2014
     20 N           6.4075    0.3905   17.9334 N.ar    1  UNL1       -0.2094
     21 C           5.1015    0.3476   18.6701 C.ar    1  UNL1        0.1300
     22 N           4.4340    1.6241   19.0883 N.pl3   1  UNL1       -0.3425
     23 C           4.4630   -0.9719   18.9884 C.ar    1  UNL1        0.0669
     24 H           4.8531    2.4901   18.8794 H       1  UNL1        0.1437
     25 H           3.5769    1.5959   19.5718 H       1  UNL1        0.1437
     26 C          -2.4801    4.2036   22.8172 C.3     1  UNL1        0.1312
     27 C          -6.9385    4.8942   20.2392 C.3     1  UNL1        0.0521
     28 C          -6.2084    4.5990   21.5158 C.ar    1  UNL1        0.0590
     29 C          -6.9774    4.3539   22.7802 C.ar    1  UNL1        0.0147
     30 C          -6.2474    4.0587   24.0568 C.ar    1  UNL1        0.0024
     31 C          -4.7483    4.0086   24.0692 C.ar    1  UNL1        0.0152
     32 C          -3.9793    4.2537   22.8049 C.ar    1  UNL1        0.0678
     33 N          -4.7093    4.5489   21.5282 N.ar    1  UNL1       -0.2535
@<TRIPOS>BOND
     1    27    28    1
     2    28    29   ar
     3    29    30   ar
     4    30    31   ar
     5    31    32   ar
     6    32    26    1
     7    26     1    1
     8     1     2    2
     9     1     3   am
    10     3     4    1
    11     4     5    1
    12     5     6    1
    13     6     7   ar
    14     7     8   ar
    15     8     9   ar
    16     9    10   ar
    17    10    13    1
    18    13    14   ar
    19    14    15   ar
    20    15    16    1
    21    15    17   ar
    22    17    18   ar
    23    18    19   ar
    24    19    20   ar
    25    20    21   ar
    26    21    22    1
    27    21    23   ar
    28    10    11   ar
    29    11    12    1
    30    32    33   ar
    31    33    28   ar
    32     7     3    1
    33    23    13   ar
    34    11     6   ar
    35    23    17   ar
    36    22    24    1
    37    22    25    1
@<TRIPOS>MOLECULE
*****
 33 37 0 0 0
SMALL
GASTEIGER

@<TRIPOS>ATOM
      1 C           3.7508   -1.8986   22.0524 C.2     1  UNL1        0.2354
      2 O           2.9171   -0.9443   22.8550 O.2     1  UNL1       -0.2741
      3 N           4.9122   -2.6004   22.6915 N.am    1  UNL1       -0.2582
      4 C           5.8312   -3.5766   22.0189 C.3     1  UNL1        0.1030
      5 C           6.8455   -4.0287   23.0272 C.3     1  UNL1        0.0518
      6 C           6.5534   -3.3319   24.3231 C.ar    1  UNL1        0.0207
      7 C           5.3585   -2.4492   24.1156 C.ar    1  UNL1        0.0520
      8 C           4.8313   -1.6218   25.2502 C.ar    1  UNL1        0.0147
      9 C           5.4989   -1.6771   26.5923 C.ar    1  UNL1        0.0035
     10 C           6.6938   -2.5598   26.7998 C.ar    1  UNL1        0.0289
     11 C           7.2210   -3.3873   25.6651 C.ar    1  UNL1        0.1374
     12 F           8.4159   -4.2700   25.8726 F       1  UNL1       -0.2045
     13 C           7.3614   -2.6151   28.1419 C.ar    1  UNL1        0.0250
     14 C           8.2051   -1.5354   28.7521 C.ar    1  UNL1        0.0772
     15 N           8.6677   -2.0128   30.0967 N.ar    1  UNL1       -0.3094
     16 C           9.5357   -1.2495   31.0527 C.3     1  UNL1        0.1319
     17 C           8.1098   -3.3877   30.3175 C.ar    1  UNL1        0.1483
     18 N           8.2327   -4.3487   31.4626 N.ar    1  UNL1       -0.2065
     19 C           7.5483   -5.6819   31.3997 C.ar    1  UNL1        0.2014
     20 N           6.7409   -6.0542   30.1915 N.ar    1  UNL1       -0.2094
     21 C           6.6180   -5.0931   29.0463 C.ar    1  UNL1        0.1300
     22 N           5.8107   -5.4653   27.8381 N.pl3   1  UNL1       -0.3425
     23 C           7.3025   -3.7599   29.1094 C.ar    1  UNL1        0.0669
     24 H           5.3614   -6.3403   27.7967 H       1  UNL1        0.1437
     25 H           5.7300   -4.8345   27.0865 H       1  UNL1        0.1437
     26 C           3.4230   -2.1511   20.6105 C.3     1  UNL1        0.1312
     27 C           5.6223    2.3577   19.2564 C.3     1  UNL1        0.0521
     28 C           5.0412    1.0290   18.8732 C.ar    1  UNL1        0.0590
     29 C           4.9786    0.6260   17.4297 C.ar    1  UNL1        0.0147
     30 C           4.3975   -0.7027   17.0465 C.ar    1  UNL1        0.0024
     31 C           3.8790   -1.6284   18.1068 C.ar    1  UNL1        0.0152
     32 C           3.9416   -1.2254   19.5502 C.ar    1  UNL1        0.0678
     33 N           4.5226    0.1033   19.9334 N.ar    1  UNL1       -0.2535
@<TRIPOS>BOND
     1    27    28    1
     2    28    29   ar
     3    29    30   ar
     4    30    31   ar
     5    31    32   ar
     6    32    26    1
     7    26     1    1
     8     1     2    2
     9     1     3   am
    10     3     4    1
    11     4     5    1
    12     5     6    1
    13     6     7   ar
    14     7     8   ar
    15     8     9   ar
    16     9    10   ar
    17    10    13    1
    18    13    14   ar
    19    14    15   ar
    20    15    16    1
    21    15    17   ar
    22    17    18   ar
    23    18    19   ar
    24    19    20   ar
    25    20    21   ar
    26    21    22    1
    27    21    23   ar
    28    10    11   ar
    29    11    12    1
    30    32    33   ar
    31    33    28   ar
    32     7     3    1
    33    23    13   ar
    34    11     6   ar
    35    23    17   ar
    36    22    24    1
    37    22    25    1
