@<TRIPOS>MOLECULE
*****
 28 30 0 0 0
SMALL
GASTEIGER

@<TRIPOS>ATOM
      1 C          -8.1465  -16.3660   24.6151 C.ar    1  UNL1        0.0303
      2 C          -7.0036  -16.4580   23.6480 C.ar    1  UNL1        0.0147
      3 C          -5.6269  -16.0398   24.0720 C.ar    1  UNL1        0.0505
      4 C          -5.3931  -15.5297   25.4630 C.ar    1  UNL1        0.0170
      5 C          -6.5359  -15.4378   26.4302 C.ar    1  UNL1        0.0307
      6 C          -7.9126  -15.8559   26.0062 C.ar    1  UNL1        0.1383
      7 F          -9.0556  -15.7640   26.9734 F       1  UNL1       -0.2044
      8 C          -9.4828  -15.3995   23.6158 C.3     1  UNL1        0.0336
      9 C          -9.5233  -16.7842   24.1912 C.3     1  UNL1        0.1262
     10 C          -9.0856  -18.0236   24.9138 C.2     1  UNL1        0.0068
     11 C         -10.0106  -19.2003   25.0127 C.2     1  UNL1        0.0357
     12 S         -11.3733  -19.1375   24.3889 S.3     1  UNL1       -0.0536
     13 C         -11.8110  -17.8981   23.6663 C.2     1  UNL1        0.1526
     14 N         -13.1737  -17.8353   23.0425 N.pl3   1  UNL1       -0.3378
     15 N         -10.8860  -16.7214   23.5674 N.2     1  UNL1       -0.2464
     16 H         -13.7809  -18.6076   23.1074 H       1  UNL1        0.1442
     17 H         -13.4610  -17.0219   22.5682 H       1  UNL1        0.1442
     18 N          -4.4840  -16.1318   23.1048 N.am    1  UNL1       -0.2791
     19 C          -3.8504  -17.4605   22.8167 C.2     1  UNL1        0.2672
     20 O          -4.3598  -18.6973   23.4957 O.2     1  UNL1       -0.2682
     21 H          -4.1497  -15.3200   22.6592 H       1  UNL1        0.1552
     22 C          -2.7075  -17.5525   21.8496 C.ar    1  UNL1        0.1349
     23 C          -1.8719  -16.3412   21.5586 C.ar    1  UNL1        0.0261
     24 C          -0.7290  -16.4333   20.5914 C.ar    1  UNL1        0.0329
     25 C          -0.4217  -17.7365   19.9153 C.ar    1  UNL1        0.1592
     26 F           0.7212  -17.8285   18.9483 F       1  UNL1       -0.2025
     27 C          -1.2573  -18.9477   20.2063 C.ar    1  UNL1        0.1285
     28 N          -2.4002  -18.8558   21.1734 N.ar    1  UNL1       -0.2369
@<TRIPOS>BOND
     1     9     8    1
     2     9     1    1
     3     1     2   ar
     4     2     3   ar
     5     3    18    1
     6    18    19   am
     7    19    20    2
     8    19    22    1
     9    22    23   ar
    10    23    24   ar
    11    24    25   ar
    12    25    26    1
    13    25    27   ar
    14    27    28   ar
    15     3     4   ar
    16     4     5   ar
    17     5     6   ar
    18     6     7    1
    19     9    10    1
    20    10    11    2
    21    11    12    1
    22    12    13    1
    23    13    14    1
    24    13    15    2
    25    15     9    1
    26     6     1   ar
    27    28    22   ar
    28    18    21    1
    29    14    16    1
    30    14    17    1
@<TRIPOS>MOLECULE
*****
 28 30 0 0 0
SMALL
GASTEIGER

@<TRIPOS>ATOM
      1 C          -8.5036  -16.6137   23.9762 C.ar    1  UNL1        0.0303
      2 C          -7.3610  -17.2540   23.2451 C.ar    1  UNL1        0.0147
      3 C          -5.9524  -16.8276   23.5346 C.ar    1  UNL1        0.0505
      4 C          -5.6863  -15.7610   24.5552 C.ar    1  UNL1        0.0170
      5 C          -6.8289  -15.1208   25.2863 C.ar    1  UNL1        0.0307
      6 C          -8.2376  -15.5471   24.9967 C.ar    1  UNL1        0.1383
      7 F          -9.3802  -14.9068   25.7278 F       1  UNL1       -0.2044
      8 C          -9.6781  -17.7723   24.9747 C.3     1  UNL1        0.0336
      9 C          -9.9124  -17.0401   23.6867 C.3     1  UNL1        0.1262
     10 C          -9.6574  -16.1598   22.4993 C.2     1  UNL1        0.0068
     11 C         -10.7298  -15.9601   21.4696 C.2     1  UNL1        0.0357
     12 S         -12.0572  -16.6408   21.6275 S.3     1  UNL1       -0.0536
     13 C         -12.3121  -17.5211   22.8149 C.2     1  UNL1        0.1526
     14 N         -13.6395  -18.2017   22.9728 N.pl3   1  UNL1       -0.3378
     15 N         -11.2397  -17.7207   23.8446 N.2     1  UNL1       -0.2464
     16 H         -14.3433  -18.0707   22.2971 H       1  UNL1        0.1442
     17 H         -13.8068  -18.7795   23.7522 H       1  UNL1        0.1442
     18 N          -4.8097  -17.4679   22.8036 N.am    1  UNL1       -0.2791
     19 C          -3.6813  -16.6240   22.2893 C.2     1  UNL1        0.2672
     20 O          -3.6956  -15.1397   22.5061 O.2     1  UNL1       -0.2682
     21 H          -4.8003  -18.4420   22.6613 H       1  UNL1        0.1552
     22 C          -2.5386  -17.2642   21.5583 C.ar    1  UNL1        0.1349
     23 C          -2.4615  -18.7581   21.4482 C.ar    1  UNL1        0.0261
     24 C          -1.3188  -19.3983   20.7171 C.ar    1  UNL1        0.0329
     25 C          -0.2533  -18.5445   20.0961 C.ar    1  UNL1        0.1592
     26 F           0.8894  -19.1847   19.3651 F       1  UNL1       -0.2025
     27 C          -0.3304  -17.0506   20.2062 C.ar    1  UNL1        0.1285
     28 N          -1.4730  -16.4104   20.9372 N.ar    1  UNL1       -0.2369
@<TRIPOS>BOND
     1     9     8    1
     2     9     1    1
     3     1     2   ar
     4     2     3   ar
     5     3    18    1
     6    18    19   am
     7    19    20    2
     8    19    22    1
     9    22    23   ar
    10    23    24   ar
    11    24    25   ar
    12    25    26    1
    13    25    27   ar
    14    27    28   ar
    15     3     4   ar
    16     4     5   ar
    17     5     6   ar
    18     6     7    1
    19     9    10    1
    20    10    11    2
    21    11    12    1
    22    12    13    1
    23    13    14    1
    24    13    15    2
    25    15     9    1
    26     6     1   ar
    27    28    22   ar
    28    18    21    1
    29    14    16    1
    30    14    17    1
@<TRIPOS>MOLECULE
*****
 28 30 0 0 0
SMALL
GASTEIGER

@<TRIPOS>ATOM
      1 C           3.1464    0.6668   18.5308 C.ar    1  UNL1        0.0303
      2 C           1.6912    1.0286   18.5689 C.ar    1  UNL1        0.0147
      3 C           1.2763    2.4700   18.5587 C.ar    1  UNL1        0.0505
      4 C           2.3165    3.5496   18.5104 C.ar    1  UNL1        0.0170
      5 C           3.7717    3.1878   18.4723 C.ar    1  UNL1        0.0307
      6 C           4.1867    1.7464   18.4825 C.ar    1  UNL1        0.1383
      7 F           5.6419    1.3845   18.4444 F       1  UNL1       -0.2044
      8 C           3.5564   -0.5154   17.0635 C.3     1  UNL1        0.0336
      9 C           3.5614   -0.7747   18.5409 C.3     1  UNL1        0.1262
     10 C           3.4223   -0.5333   20.0148 C.2     1  UNL1        0.0068
     11 C           3.6964   -1.6433   20.9858 C.2     1  UNL1        0.0357
     12 S           4.1097   -2.9947   20.4828 S.3     1  UNL1       -0.0536
     13 C           4.2488   -3.2361   19.0089 C.2     1  UNL1        0.1526
     14 N           4.6620   -4.5875   18.5060 N.pl3   1  UNL1       -0.3378
     15 N           3.9747   -2.1261   18.0380 N.2     1  UNL1       -0.2464
     16 H           4.8420   -5.3160   19.1432 H       1  UNL1        0.1442
     17 H           4.7534   -4.7459   17.5386 H       1  UNL1        0.1442
     18 N          -0.1790    2.8319   18.5968 N.am    1  UNL1       -0.2791
     19 C          -0.8911    2.9385   19.9127 C.2     1  UNL1        0.2672
     20 O          -0.1479    2.6832   21.1904 O.2     1  UNL1       -0.2682
     21 H          -0.6667    2.9994   17.7581 H       1  UNL1        0.1552
     22 C          -2.3462    3.3003   19.9508 C.ar    1  UNL1        0.1349
     23 C          -2.9694    4.0250   18.7948 C.ar    1  UNL1        0.0261
     24 C          -4.4247    4.3868   18.8330 C.ar    1  UNL1        0.0329
     25 C          -5.2567    4.0240   20.0271 C.ar    1  UNL1        0.1592
     26 F          -6.7118    4.3858   20.0653 F       1  UNL1       -0.2025
     27 C          -4.6335    3.2993   21.1832 C.ar    1  UNL1        0.1285
     28 N          -3.1783    2.9374   21.1450 N.ar    1  UNL1       -0.2369
@<TRIPOS>BOND
     1     9     8    1
     2     9     1    1
     3     1     2   ar
     4     2     3   ar
     5     3    18    1
     6    18    19   am
     7    19    20    2
     8    19    22    1
     9    22    23   ar
    10    23    24   ar
    11    24    25   ar
    12    25    26    1
    13    25    27   ar
    14    27    28   ar
    15     3     4   ar
    16     4     5   ar
    17     5     6   ar
    18     6     7    1
    19     9    10    1
    20    10    11    2
    21    11    12    1
    22    12    13    1
    23    13    14    1
    24    13    15    2
    25    15     9    1
    26     6     1   ar
    27    28    22   ar
    28    18    21    1
    29    14    16    1
    30    14    17    1
@<TRIPOS>MOLECULE
*****
 28 30 0 0 0
SMALL
GASTEIGER

@<TRIPOS>ATOM
      1 C         -11.9453   -6.0026   18.3595 C.ar    1  UNL1        0.0303
      2 C         -12.3373   -4.6200   17.9298 C.ar    1  UNL1        0.0147
      3 C         -11.3515   -3.4944   18.0346 C.ar    1  UNL1        0.0505
      4 C          -9.9737   -3.7513   18.5690 C.ar    1  UNL1        0.0170
      5 C          -9.5817   -5.1339   18.9987 C.ar    1  UNL1        0.0307
      6 C         -10.5675   -6.2596   18.8940 C.ar    1  UNL1        0.1383
      7 F         -10.1755   -7.6423   19.3237 F       1  UNL1       -0.2044
      8 C         -11.8289   -7.6662   17.3911 C.3     1  UNL1        0.0336
      9 C         -12.9311   -7.1284   18.2548 C.3     1  UNL1        0.1262
     10 C         -13.6909   -6.1997   19.1549 C.2     1  UNL1        0.0068
     11 C         -15.0537   -6.5835   19.6503 C.2     1  UNL1        0.0357
     12 S         -15.6567   -7.8960   19.2455 S.3     1  UNL1       -0.0536
     13 C         -14.8969   -8.8247   18.3455 C.2     1  UNL1        0.1526
     14 N         -15.4999  -10.1372   17.9407 N.pl3   1  UNL1       -0.3378
     15 N         -13.5341   -8.4409   17.8501 N.2     1  UNL1       -0.2464
     16 H         -16.3944  -10.3891   18.2659 H       1  UNL1        0.1442
     17 H         -15.0012  -10.7467   17.3500 H       1  UNL1        0.1442
     18 N         -11.7434   -2.1117   17.6048 N.am    1  UNL1       -0.2791
     19 C         -12.7514   -1.3365   18.4005 C.2     1  UNL1        0.2672
     20 O         -13.3674   -1.9440   19.6259 O.2     1  UNL1       -0.2682
     21 H         -11.3391   -1.7130   16.8006 H       1  UNL1        0.1552
     22 C         -13.1434    0.0461   17.9709 C.ar    1  UNL1        0.1349
     23 C         -14.3937    0.6735   18.5122 C.ar    1  UNL1        0.0261
     24 C         -14.7856    2.0563   18.0825 C.ar    1  UNL1        0.0329
     25 C         -13.9273    2.8114   17.1115 C.ar    1  UNL1        0.1592
     26 F         -14.3193    4.1941   16.6818 F       1  UNL1       -0.2025
     27 C         -12.6770    2.1840   16.5701 C.ar    1  UNL1        0.1285
     28 N         -12.2850    0.8014   16.9998 N.ar    1  UNL1       -0.2369
@<TRIPOS>BOND
     1     9     8    1
     2     9     1    1
     3     1     2   ar
     4     2     3   ar
     5     3    18    1
     6    18    19   am
     7    19    20    2
     8    19    22    1
     9    22    23   ar
    10    23    24   ar
    11    24    25   ar
    12    25    26    1
    13    25    27   ar
    14    27    28   ar
    15     3     4   ar
    16     4     5   ar
    17     5     6   ar
    18     6     7    1
    19     9    10    1
    20    10    11    2
    21    11    12    1
    22    12    13    1
    23    13    14    1
    24    13    15    2
    25    15     9    1
    26     6     1   ar
    27    28    22   ar
    28    18    21    1
    29    14    16    1
    30    14    17    1
@<TRIPOS>MOLECULE
*****
 28 30 0 0 0
SMALL
GASTEIGER

@<TRIPOS>ATOM
      1 C         -11.6574   -5.0916   17.5109 C.ar    1  UNL1        0.0303
      2 C         -12.2747   -3.7383   17.3177 C.ar    1  UNL1        0.0147
      3 C         -11.4341   -2.5919   16.8393 C.ar    1  UNL1        0.0505
      4 C          -9.9760   -2.7988   16.5542 C.ar    1  UNL1        0.0170
      5 C          -9.3587   -4.1521   16.7473 C.ar    1  UNL1        0.0307
      6 C         -10.1994   -5.2985   17.2257 C.ar    1  UNL1        0.1383
      7 F          -9.5820   -6.6519   17.4189 F       1  UNL1       -0.2044
      8 C         -11.9069   -5.7873   19.2921 C.3     1  UNL1        0.0336
      9 C         -12.4981   -6.2382   17.9893 C.3     1  UNL1        0.1262
     10 C         -12.7973   -6.2909   16.5204 C.2     1  UNL1        0.0068
     11 C         -13.7319   -7.3335   15.9823 C.2     1  UNL1        0.0357
     12 S         -14.3673   -8.3234   16.9132 S.3     1  UNL1       -0.0536
     13 C         -14.0680   -8.2707   18.3821 C.2     1  UNL1        0.1526
     14 N         -14.7034   -9.2606   19.3129 N.pl3   1  UNL1       -0.3378
     15 N         -13.1335   -7.2281   18.9201 N.2     1  UNL1       -0.2464
     16 H         -15.3168   -9.9449   18.9598 H       1  UNL1        0.1442
     17 H         -14.5070   -9.2260   20.2770 H       1  UNL1        0.1442
     18 N         -12.0514   -1.2385   16.6461 N.am    1  UNL1       -0.2791
     19 C         -12.3662   -0.3810   17.8359 C.2     1  UNL1        0.2672
     20 O         -12.0638   -0.8770   19.2189 O.2     1  UNL1       -0.2682
     21 H         -12.2499   -0.9130   15.7385 H       1  UNL1        0.1552
     22 C         -12.9835    0.9723   17.6428 C.ar    1  UNL1        0.1349
     23 C         -12.2702    2.0133   16.8319 C.ar    1  UNL1        0.0261
     24 C         -12.8876    3.3667   16.6387 C.ar    1  UNL1        0.0329
     25 C         -14.2182    3.6791   17.2565 C.ar    1  UNL1        0.1592
     26 F         -14.8355    5.0324   17.0634 F       1  UNL1       -0.2025
     27 C         -14.9315    2.6382   18.0675 C.ar    1  UNL1        0.1285
     28 N         -14.3143    1.2848   18.2606 N.ar    1  UNL1       -0.2369
@<TRIPOS>BOND
     1     9     8    1
     2     9     1    1
     3     1     2   ar
     4     2     3   ar
     5     3    18    1
     6    18    19   am
     7    19    20    2
     8    19    22    1
     9    22    23   ar
    10    23    24   ar
    11    24    25   ar
    12    25    26    1
    13    25    27   ar
    14    27    28   ar
    15     3     4   ar
    16     4     5   ar
    17     5     6   ar
    18     6     7    1
    19     9    10    1
    20    10    11    2
    21    11    12    1
    22    12    13    1
    23    13    14    1
    24    13    15    2
    25    15     9    1
    26     6     1   ar
    27    28    22   ar
    28    18    21    1
    29    14    16    1
    30    14    17    1
@<TRIPOS>MOLECULE
*****
 28 30 0 0 0
SMALL
GASTEIGER

@<TRIPOS>ATOM
      1 C           3.7092   -1.0585   19.8164 C.ar    1  UNL1        0.0303
      2 C           4.1185   -1.8701   21.0096 C.ar    1  UNL1        0.0147
      3 C           4.8152   -3.1847   20.8192 C.ar    1  UNL1        0.0505
      4 C           5.1026   -3.6877   19.4356 C.ar    1  UNL1        0.0170
      5 C           4.6933   -2.8761   18.2424 C.ar    1  UNL1        0.0307
      6 C           3.9966   -1.5615   18.4328 C.ar    1  UNL1        0.1383
      7 F           3.5872   -0.7499   17.2396 F       1  UNL1       -0.2044
      8 C           4.4278    0.7305   19.8591 C.3     1  UNL1        0.0336
      9 C           3.0124    0.2562   20.0068 C.3     1  UNL1        0.1262
     10 C           1.8391   -0.6746   20.0884 C.2     1  UNL1        0.0068
     11 C           0.4605   -0.1261   20.3090 C.2     1  UNL1        0.0357
     12 S           0.2553    1.3533   20.4481 S.3     1  UNL1       -0.0536
     13 C           1.4287    2.2841   20.3665 C.2     1  UNL1        0.1526
     14 N           1.2235    3.7635   20.5056 N.pl3   1  UNL1       -0.3378
     15 N           2.8073    1.7356   20.1459 N.2     1  UNL1       -0.2464
     16 H           0.3187    4.1236   20.6504 H       1  UNL1        0.1442
     17 H           1.9937    4.3745   20.4521 H       1  UNL1        0.1442
     18 N           5.2246   -3.9964   22.0124 N.am    1  UNL1       -0.2791
     19 C           6.6308   -3.9149   22.5282 C.2     1  UNL1        0.2672
     20 O           7.6276   -3.0218   21.8508 O.2     1  UNL1       -0.2682
     21 H           4.5704   -4.5825   22.4570 H       1  UNL1        0.1552
     22 C           7.0402   -4.7265   23.7213 C.ar    1  UNL1        0.1349
     23 C           6.7071   -4.2486   25.1036 C.ar    1  UNL1        0.0261
     24 C           7.1165   -5.0603   26.2968 C.ar    1  UNL1        0.0329
     25 C           7.8590   -6.3498   26.1077 C.ar    1  UNL1        0.1592
     26 F           8.2684   -7.1614   27.3008 F       1  UNL1       -0.2025
     27 C           8.1921   -6.8277   24.7254 C.ar    1  UNL1        0.1285
     28 N           7.7827   -6.0161   23.5323 N.ar    1  UNL1       -0.2369
@<TRIPOS>BOND
     1     9     8    1
     2     9     1    1
     3     1     2   ar
     4     2     3   ar
     5     3    18    1
     6    18    19   am
     7    19    20    2
     8    19    22    1
     9    22    23   ar
    10    23    24   ar
    11    24    25   ar
    12    25    26    1
    13    25    27   ar
    14    27    28   ar
    15     3     4   ar
    16     4     5   ar
    17     5     6   ar
    18     6     7    1
    19     9    10    1
    20    10    11    2
    21    11    12    1
    22    12    13    1
    23    13    14    1
    24    13    15    2
    25    15     9    1
    26     6     1   ar
    27    28    22   ar
    28    18    21    1
    29    14    16    1
    30    14    17    1
@<TRIPOS>MOLECULE
*****
 28 30 0 0 0
SMALL
GASTEIGER

@<TRIPOS>ATOM
      1 C         -15.7164   -6.3279   18.8754 C.ar    1  UNL1        0.0303
      2 C         -16.1746   -4.9571   19.2765 C.ar    1  UNL1        0.0147
      3 C         -15.2112   -4.0013   19.9154 C.ar    1  UNL1        0.0505
      4 C         -13.7895   -4.4164   20.1533 C.ar    1  UNL1        0.0170
      5 C         -13.3313   -5.7872   19.7523 C.ar    1  UNL1        0.0307
      6 C         -14.2947   -6.7429   19.1133 C.ar    1  UNL1        0.1383
      7 F         -13.8365   -8.1138   18.7123 F       1  UNL1       -0.2044
      8 C         -16.1426   -6.5994   17.0145 C.3     1  UNL1        0.0336
      9 C         -16.6798   -7.2837   18.2365 C.3     1  UNL1        0.1262
     10 C         -16.8824   -7.6360   19.6803 C.2     1  UNL1        0.0068
     11 C         -17.8618   -8.7065   20.0609 C.2     1  UNL1        0.0357
     12 S         -18.6387   -9.4246   18.9975 S.3     1  UNL1       -0.0536
     13 C         -18.4361   -9.0723   17.5536 C.2     1  UNL1        0.1526
     14 N         -19.2130   -9.7905   16.4902 N.pl3   1  UNL1       -0.3378
     15 N         -17.4567   -8.0019   17.1731 N.2     1  UNL1       -0.2464
     16 H         -19.8558  -10.4931   16.7399 H       1  UNL1        0.1442
     17 H         -19.0800   -9.5592   15.5425 H       1  UNL1        0.1442
     18 N         -15.6694   -2.6304   20.3165 N.am    1  UNL1       -0.2791
     19 C         -15.4499   -1.4670   19.3955 C.2     1  UNL1        0.2672
     20 O         -14.7722   -1.6744   18.0735 O.2     1  UNL1       -0.2682
     21 H         -16.1142   -2.4943   21.1842 H       1  UNL1        0.1552
     22 C         -15.9081   -0.0962   19.7965 C.ar    1  UNL1        0.1349
     23 C         -15.2681    1.1164   19.1881 C.ar    1  UNL1        0.0261
     24 C         -15.7263    2.4873   19.5892 C.ar    1  UNL1        0.0329
     25 C         -16.8245    2.6456   20.5986 C.ar    1  UNL1        0.1592
     26 F         -17.2826    4.0164   20.9997 F       1  UNL1       -0.2025
     27 C         -17.4644    1.4330   21.2070 C.ar    1  UNL1        0.1285
     28 N         -17.0063    0.0622   20.8060 N.ar    1  UNL1       -0.2369
@<TRIPOS>BOND
     1     9     8    1
     2     9     1    1
     3     1     2   ar
     4     2     3   ar
     5     3    18    1
     6    18    19   am
     7    19    20    2
     8    19    22    1
     9    22    23   ar
    10    23    24   ar
    11    24    25   ar
    12    25    26    1
    13    25    27   ar
    14    27    28   ar
    15     3     4   ar
    16     4     5   ar
    17     5     6   ar
    18     6     7    1
    19     9    10    1
    20    10    11    2
    21    11    12    1
    22    12    13    1
    23    13    14    1
    24    13    15    2
    25    15     9    1
    26     6     1   ar
    27    28    22   ar
    28    18    21    1
    29    14    16    1
    30    14    17    1
@<TRIPOS>MOLECULE
*****
 28 30 0 0 0
SMALL
GASTEIGER

@<TRIPOS>ATOM
      1 C           3.0486   -0.5138   19.7321 C.ar    1  UNL1        0.0303
      2 C           2.1949   -0.1551   20.9120 C.ar    1  UNL1        0.0147
      3 C           0.9838    0.7101   20.7260 C.ar    1  UNL1        0.0505
      4 C           0.6264    1.2165   19.3601 C.ar    1  UNL1        0.0170
      5 C           1.4802    0.8578   18.1801 C.ar    1  UNL1        0.0307
      6 C           2.6913   -0.0074   18.3661 C.ar    1  UNL1        0.1383
      7 F           3.5452   -0.3662   17.1861 F       1  UNL1       -0.2044
      8 C           4.8407   -0.0399   20.2637 C.3     1  UNL1        0.0336
      9 C           4.2598   -1.3790   19.9180 C.3     1  UNL1        0.1262
     10 C           3.2583   -2.4176   19.5078 C.2     1  UNL1        0.0068
     11 C           3.6697   -3.8563   19.4036 C.2     1  UNL1        0.0357
     12 S           5.0826   -4.2564   19.7096 S.3     1  UNL1       -0.0536
     13 C           6.0841   -3.2179   20.1198 C.2     1  UNL1        0.1526
     14 N           7.4971   -3.6180   20.4259 N.pl3   1  UNL1       -0.3378
     15 N           5.6728   -1.7791   20.2241 N.2     1  UNL1       -0.2464
     16 H           7.7671   -4.5622   20.3575 H       1  UNL1        0.1442
     17 H           8.1544   -2.9363   20.6951 H       1  UNL1        0.1442
     18 N           0.1299    1.0689   21.9060 N.am    1  UNL1       -0.2791
     19 C           0.1675    2.4610   22.4633 C.2     1  UNL1        0.2672
     20 O           1.0589    3.4944   21.8405 O.2     1  UNL1       -0.2682
     21 H          -0.4551    0.3907   22.3147 H       1  UNL1        0.1552
     22 C          -0.6863    2.8199   23.6432 C.ar    1  UNL1        0.1349
     23 C          -0.3795    2.2439   24.9938 C.ar    1  UNL1        0.0261
     24 C          -1.2333    2.6028   26.1738 C.ar    1  UNL1        0.0329
     25 C          -2.3940    3.5375   26.0031 C.ar    1  UNL1        0.1592
     26 F          -3.2477    3.8964   27.1830 F       1  UNL1       -0.2025
     27 C          -2.7008    4.1135   24.6524 C.ar    1  UNL1        0.1285
     28 N          -1.8470    3.7546   23.4725 N.ar    1  UNL1       -0.2369
@<TRIPOS>BOND
     1     9     8    1
     2     9     1    1
     3     1     2   ar
     4     2     3   ar
     5     3    18    1
     6    18    19   am
     7    19    20    2
     8    19    22    1
     9    22    23   ar
    10    23    24   ar
    11    24    25   ar
    12    25    26    1
    13    25    27   ar
    14    27    28   ar
    15     3     4   ar
    16     4     5   ar
    17     5     6   ar
    18     6     7    1
    19     9    10    1
    20    10    11    2
    21    11    12    1
    22    12    13    1
    23    13    14    1
    24    13    15    2
    25    15     9    1
    26     6     1   ar
    27    28    22   ar
    28    18    21    1
    29    14    16    1
    30    14    17    1
@<TRIPOS>MOLECULE
*****
 28 30 0 0 0
SMALL
GASTEIGER

@<TRIPOS>ATOM
      1 C         -12.9047   -4.0160   18.6342 C.ar    1  UNL1        0.0303
      2 C         -13.9220   -2.9585   18.3235 C.ar    1  UNL1        0.0147
      3 C         -13.5112   -1.5171   18.2640 C.ar    1  UNL1        0.0505
      4 C         -12.0831   -1.1332   18.5151 C.ar    1  UNL1        0.0170
      5 C         -11.0657   -2.1907   18.8258 C.ar    1  UNL1        0.0307
      6 C         -11.4765   -3.6321   18.8853 C.ar    1  UNL1        0.1383
      7 F         -10.4591   -4.6897   19.1960 F       1  UNL1       -0.2044
      8 C         -13.5723   -5.0545   20.1156 C.3     1  UNL1        0.0336
      9 C         -13.3154   -5.4575   18.6937 C.3     1  UNL1        0.1262
     10 C         -12.9159   -5.3599   17.2513 C.2     1  UNL1        0.0068
     11 C         -13.0163   -6.5638   16.3621 C.2     1  UNL1        0.0357
     12 S         -13.5162   -7.8653   16.9155 S.3     1  UNL1       -0.0536
     13 C         -13.9158   -7.9629   18.3579 C.2     1  UNL1        0.1526
     14 N         -14.4157   -9.2644   18.9113 N.pl3   1  UNL1       -0.3378
     15 N         -13.8154   -6.7590   19.2471 N.2     1  UNL1       -0.2464
     16 H         -14.4816  -10.0545   18.3277 H       1  UNL1        0.1442
     17 H         -14.6780   -9.3284   19.8581 H       1  UNL1        0.1442
     18 N         -14.5286   -0.4595   17.9533 N.am    1  UNL1       -0.2791
     19 C         -15.6087   -0.1434   18.9451 C.2     1  UNL1        0.2672
     20 O         -15.6714   -0.8850   20.2475 O.2     1  UNL1       -0.2682
     21 H         -14.4875    0.0272   17.0985 H       1  UNL1        0.1552
     22 C         -16.6261    0.9141   18.6345 C.ar    1  UNL1        0.1349
     23 C         -16.1806    2.2782   18.1978 C.ar    1  UNL1        0.0261
     24 C         -17.1980    3.3358   17.8872 C.ar    1  UNL1        0.0329
     25 C         -18.6609    3.0292   18.0132 C.ar    1  UNL1        0.1592
     26 F         -19.6782    4.0868   17.7026 F       1  UNL1       -0.2025
     27 C         -19.1064    1.6651   18.4499 C.ar    1  UNL1        0.1285
     28 N         -18.0891    0.6076   18.7605 N.ar    1  UNL1       -0.2369
@<TRIPOS>BOND
     1     9     8    1
     2     9     1    1
     3     1     2   ar
     4     2     3   ar
     5     3    18    1
     6    18    19   am
     7    19    20    2
     8    19    22    1
     9    22    23   ar
    10    23    24   ar
    11    24    25   ar
    12    25    26    1
    13    25    27   ar
    14    27    28   ar
    15     3     4   ar
    16     4     5   ar
    17     5     6   ar
    18     6     7    1
    19     9    10    1
    20    10    11    2
    21    11    12    1
    22    12    13    1
    23    13    14    1
    24    13    15    2
    25    15     9    1
    26     6     1   ar
    27    28    22   ar
    28    18    21    1
    29    14    16    1
    30    14    17    1
