@<TRIPOS>MOLECULE
*****
 37 41 0 0 0
SMALL
GASTEIGER

@<TRIPOS>ATOM
      1 C           5.8193   -0.9999   22.7916 C.3     1  UNL1        0.0980
      2 C           3.2962   -0.3826   22.7402 C.2     1  UNL1        0.2475
      3 O           3.0433   -1.3211   23.8826 O.2     1  UNL1       -0.2701
      4 N           4.6843   -0.2220   22.1947 N.am    1  UNL1       -0.3002
      5 H           4.8503    0.3940   21.4449 H       1  UNL1        0.1498
      6 C          -0.1090    1.9512   20.9493 C.ar    1  UNL1        0.0863
      7 C           0.4337    0.7490   20.2351 C.ar    1  UNL1        0.0308
      8 C           1.5687   -0.0289   20.8321 C.ar    1  UNL1        0.0643
      9 CL          2.1115   -1.2312   20.1179 Cl      1  UNL1       -0.0820
     10 C           2.1611    0.3954   22.1432 C.ar    1  UNL1        0.0745
     11 C           1.6184    1.5976   22.8574 C.ar    1  UNL1        0.0643
     12 CL          2.2107    2.0219   24.1685 Cl      1  UNL1       -0.0820
     13 C           0.4833    2.3755   22.2604 C.ar    1  UNL1        0.0308
     14 C          -4.9018    4.0078   20.1241 C.3     1  UNL1        0.0756
     15 C          -3.4471    3.6745   19.9730 C.ar    1  UNL1        0.1613
     16 N          -2.5346    4.1783   18.8943 N.ar    1  UNL1       -0.2073
     17 C          -1.1731    3.5940   19.1288 C.ar    1  UNL1        0.2013
     18 N          -1.2442    2.7292   20.3523 N.ar    1  UNL1       -0.2083
     19 N          -2.6496    2.7790   20.8741 N.ar    1  UNL1       -0.1487
     20 C           5.9563   -2.4659   22.5053 C.3     1  UNL1        0.0606
     21 C           6.5229   -3.3840   23.5476 C.2     1  UNL1       -0.0304
     22 C           7.4465   -4.4955   23.1458 C.2     1  UNL1       -0.0038
     23 C           8.0131   -5.4134   24.1881 C.2     1  UNL1        0.0495
     24 C           7.6561   -5.2198   25.6321 C.2     1  UNL1        0.2317
     25 N           8.0567   -5.9611   26.8731 N.2     1  UNL1       -0.0350
     26 C           7.3806   -5.3076   28.0418 C.2     1  UNL1        0.3518
     27 C           7.5017   -5.7258   29.4773 C.3     1  UNL1        0.1367
     28 N           6.5623   -4.1625   27.5231 N.2     1  UNL1       -0.0389
     29 C           6.7326   -4.1083   26.0338 C.2     1  UNL1        0.2171
     30 C           6.1660   -3.1903   24.9916 C.3     1  UNL1        0.1001
     31 C           5.5266   -3.0140   21.1768 C.ar    1  UNL1       -0.0148
     32 C           6.2340   -2.5867   19.9249 C.ar    1  UNL1       -0.0038
     33 C           5.8042   -3.1348   18.5964 C.ar    1  UNL1        0.0020
     34 C           4.6672   -4.1101   18.5197 C.ar    1  UNL1        0.0296
     35 C           3.9599   -4.5374   19.7716 C.ar    1  UNL1        0.1398
     36 F           2.8229   -5.5127   19.6949 F       1  UNL1       -0.2042
     37 C           4.3896   -3.9894   21.1001 C.ar    1  UNL1        0.0257
@<TRIPOS>BOND
     1    14    15    1
     2    15    16   ar
     3    16    17   ar
     4    17    18   ar
     5    18     6    1
     6     6     7   ar
     7     7     8   ar
     8     8     9    1
     9     8    10   ar
    10    10     2    1
    11     2     3    2
    12     2     4   am
    13     4     1    1
    14    20     1    1
    15    20    31    1
    16    31    32   ar
    17    32    33   ar
    18    33    34   ar
    19    34    35   ar
    20    35    36    1
    21    35    37   ar
    22    20    21    1
    23    21    22    2
    24    22    23    1
    25    23    24    2
    26    24    25    1
    27    25    26    2
    28    26    27    1
    29    26    28    1
    30    28    29    2
    31    29    30    1
    32    10    11   ar
    33    11    12    1
    34    11    13   ar
    35    18    19   ar
    36    19    15   ar
    37    13     6   ar
    38    37    31   ar
    39    30    21    1
    40    29    24    1
    41     4     5    1
@<TRIPOS>MOLECULE
*****
 37 41 0 0 0
SMALL
GASTEIGER

@<TRIPOS>ATOM
      1 C           3.8523   -0.1152   29.6219 C.3     1  UNL1        0.0980
      2 C           4.2655    0.0508   27.0623 C.2     1  UNL1        0.2475
      3 O           4.8498    1.4201   27.2454 O.2     1  UNL1       -0.2701
      4 N           3.7668   -0.7168   28.2505 N.am    1  UNL1       -0.3002
      5 H           3.3833   -1.6156   28.1303 H       1  UNL1        0.1498
      6 C           4.0089   -1.7542   22.9482 C.ar    1  UNL1        0.0863
      7 C           3.0226   -0.7058   23.3700 C.ar    1  UNL1        0.0308
      8 C           3.1082   -0.1041   24.7414 C.ar    1  UNL1        0.0643
      9 CL          2.1219    0.9444   25.1633 Cl      1  UNL1       -0.0820
     10 C           4.1800   -0.5509   25.6908 C.ar    1  UNL1        0.0745
     11 C           5.1663   -1.5993   25.2690 C.ar    1  UNL1        0.0643
     12 CL          6.2381   -2.0461   26.2185 Cl      1  UNL1       -0.0820
     13 C           5.0807   -2.2010   23.8977 C.ar    1  UNL1        0.0308
     14 C           4.5363   -5.0817   18.8823 C.3     1  UNL1        0.0756
     15 C           4.1658   -3.8854   19.7079 C.ar    1  UNL1        0.1613
     16 N           3.4176   -2.6782   19.2249 N.ar    1  UNL1       -0.2073
     17 C           3.2678   -1.7330   20.3800 C.ar    1  UNL1        0.2013
     18 N           3.9233   -2.3559   21.5768 N.ar    1  UNL1       -0.2083
     19 N           4.4783   -3.6861   21.1614 N.ar    1  UNL1       -0.1487
     20 C           2.6652    0.5914   30.2062 C.3     1  UNL1        0.0606
     21 C           2.7023    1.0707   31.6272 C.2     1  UNL1       -0.0304
     22 C           3.4860    0.3098   32.6551 C.2     1  UNL1       -0.0038
     23 C           3.5231    0.7891   34.0760 C.2     1  UNL1        0.0495
     24 C           2.7764    2.0293   34.4689 C.2     1  UNL1        0.2317
     25 N           2.6289    2.7383   35.7825 N.2     1  UNL1       -0.0350
     26 C           1.7540    3.9374   35.5664 C.2     1  UNL1        0.3518
     27 C           1.3443    4.9302   36.6136 C.3     1  UNL1        0.1367
     28 N           1.3607    3.9694   34.1192 N.2     1  UNL1       -0.0389
     29 C           1.9926    2.7902   33.4409 C.2     1  UNL1        0.2171
     30 C           1.9555    2.3109   32.0201 C.3     1  UNL1        0.1001
     31 C           1.4410    0.8187   29.3698 C.ar    1  UNL1       -0.0148
     32 C           1.3059    2.0769   28.5644 C.ar    1  UNL1       -0.0038
     33 C           0.0817    2.3041   27.7279 C.ar    1  UNL1        0.0020
     34 C          -1.0074    1.2732   27.6968 C.ar    1  UNL1        0.0296
     35 C          -0.8724    0.0150   28.5023 C.ar    1  UNL1        0.1398
     36 F          -1.9615   -1.0159   28.4712 F       1  UNL1       -0.2042
     37 C           0.3518   -0.2123   29.3387 C.ar    1  UNL1        0.0257
@<TRIPOS>BOND
     1    14    15    1
     2    15    16   ar
     3    16    17   ar
     4    17    18   ar
     5    18     6    1
     6     6     7   ar
     7     7     8   ar
     8     8     9    1
     9     8    10   ar
    10    10     2    1
    11     2     3    2
    12     2     4   am
    13     4     1    1
    14    20     1    1
    15    20    31    1
    16    31    32   ar
    17    32    33   ar
    18    33    34   ar
    19    34    35   ar
    20    35    36    1
    21    35    37   ar
    22    20    21    1
    23    21    22    2
    24    22    23    1
    25    23    24    2
    26    24    25    1
    27    25    26    2
    28    26    27    1
    29    26    28    1
    30    28    29    2
    31    29    30    1
    32    10    11   ar
    33    11    12    1
    34    11    13   ar
    35    18    19   ar
    36    19    15   ar
    37    13     6   ar
    38    37    31   ar
    39    30    21    1
    40    29    24    1
    41     4     5    1
@<TRIPOS>MOLECULE
*****
 37 41 0 0 0
SMALL
GASTEIGER

@<TRIPOS>ATOM
      1 C           5.7529   -1.0557   22.9302 C.3     1  UNL1        0.0980
      2 C           3.2437   -0.3867   22.8516 C.2     1  UNL1        0.2475
      3 O           2.9686   -1.2806   24.0242 O.2     1  UNL1       -0.2701
      4 N           4.6359   -0.2742   22.3046 N.am    1  UNL1       -0.3002
      5 H           4.8164    0.3125   21.5349 H       1  UNL1        0.1498
      6 C          -0.1074    1.9580   20.9748 C.ar    1  UNL1        0.0863
      7 C           0.4566    2.3838   22.2978 C.ar    1  UNL1        0.0308
      8 C           1.5736    1.6023   22.9234 C.ar    1  UNL1        0.0643
      9 CL          2.1377    2.0280   24.2466 Cl      1  UNL1       -0.0820
     10 C           2.1266    0.3949   22.2260 C.ar    1  UNL1        0.0745
     11 C           1.5626   -0.0309   20.9029 C.ar    1  UNL1        0.0643
     12 CL          2.1156   -1.2383   20.2054 Cl      1  UNL1       -0.0820
     13 C           0.4456    0.7506   20.2773 C.ar    1  UNL1        0.0308
     14 C          -4.8852    3.9783   19.9888 C.3     1  UNL1        0.0756
     15 C          -3.4205    3.6682   19.8959 C.ar    1  UNL1        0.1613
     16 N          -2.4662    4.2163   18.8767 N.ar    1  UNL1       -0.2073
     17 C          -1.1089    3.6424   19.1568 C.ar    1  UNL1        0.2013
     18 N          -1.2244    2.7396   20.3491 N.ar    1  UNL1       -0.2083
     19 N          -2.6531    2.7555   20.8059 N.ar    1  UNL1       -0.1487
     20 C           5.9166   -2.5132   22.6155 C.3     1  UNL1        0.0606
     21 C           6.4770   -3.4452   23.6486 C.2     1  UNL1       -0.0304
     22 C           7.3640   -4.5808   23.2320 C.2     1  UNL1       -0.0038
     23 C           7.9244   -5.5128   24.2651 C.2     1  UNL1        0.0495
     24 C           7.5977   -5.3092   25.7149 C.2     1  UNL1        0.2317
     25 N           8.0002   -6.0601   26.9495 N.2     1  UNL1       -0.0350
     26 C           7.3618   -5.3886   28.1292 C.2     1  UNL1        0.3518
     27 C           7.4967   -5.8091   29.5627 C.3     1  UNL1        0.1367
     28 N           6.5649   -4.2226   27.6236 N.2     1  UNL1       -0.0389
     29 C           6.7107   -4.1736   26.1315 C.2     1  UNL1        0.2171
     30 C           6.1503   -3.2416   25.0984 C.3     1  UNL1        0.1001
     31 C           5.5200   -3.0386   21.2677 C.ar    1  UNL1       -0.0148
     32 C           4.3905   -4.0183   21.1473 C.ar    1  UNL1       -0.0038
     33 C           3.9939   -4.5437   19.7994 C.ar    1  UNL1        0.0020
     34 C           4.7267   -4.0895   18.5720 C.ar    1  UNL1        0.0296
     35 C           5.8562   -3.1098   18.6924 C.ar    1  UNL1        0.1398
     36 F           6.5891   -2.6556   17.4650 F       1  UNL1       -0.2042
     37 C           6.2528   -2.5844   20.0402 C.ar    1  UNL1        0.0257
@<TRIPOS>BOND
     1    14    15    1
     2    15    16   ar
     3    16    17   ar
     4    17    18   ar
     5    18     6    1
     6     6     7   ar
     7     7     8   ar
     8     8     9    1
     9     8    10   ar
    10    10     2    1
    11     2     3    2
    12     2     4   am
    13     4     1    1
    14    20     1    1
    15    20    31    1
    16    31    32   ar
    17    32    33   ar
    18    33    34   ar
    19    34    35   ar
    20    35    36    1
    21    35    37   ar
    22    20    21    1
    23    21    22    2
    24    22    23    1
    25    23    24    2
    26    24    25    1
    27    25    26    2
    28    26    27    1
    29    26    28    1
    30    28    29    2
    31    29    30    1
    32    10    11   ar
    33    11    12    1
    34    11    13   ar
    35    18    19   ar
    36    19    15   ar
    37    13     6   ar
    38    37    31   ar
    39    30    21    1
    40    29    24    1
    41     4     5    1
@<TRIPOS>MOLECULE
*****
 37 41 0 0 0
SMALL
GASTEIGER

@<TRIPOS>ATOM
      1 C           3.6708   -0.5024   29.5533 C.3     1  UNL1        0.0980
      2 C           4.3753   -0.4259   27.0538 C.2     1  UNL1        0.2475
      3 O           5.2365    0.7701   27.3331 O.2     1  UNL1       -0.2701
      4 N           3.5924   -1.0621   28.1639 N.am    1  UNL1       -0.3002
      5 H           3.0272   -1.8470   27.9806 H       1  UNL1        0.1498
      6 C           4.1402   -2.1052   22.8855 C.ar    1  UNL1        0.0863
      7 C           5.1485   -2.6453   23.8559 C.ar    1  UNL1        0.0308
      8 C           5.2268   -2.0855   25.2453 C.ar    1  UNL1        0.0643
      9 CL          6.2351   -2.6256   26.2158 Cl      1  UNL1       -0.0820
     10 C           4.2969   -0.9856   25.6643 C.ar    1  UNL1        0.0745
     11 C           3.2886   -0.4455   24.6939 C.ar    1  UNL1        0.0643
     12 CL          2.3587    0.6543   25.1129 Cl      1  UNL1       -0.0820
     13 C           3.2103   -1.0053   23.3045 C.ar    1  UNL1        0.0308
     14 C           4.6002   -5.3499   18.7452 C.3     1  UNL1        0.0756
     15 C           4.2732   -4.1563   19.5930 C.ar    1  UNL1        0.1613
     16 N           3.6091   -2.8962   19.1228 N.ar    1  UNL1       -0.2073
     17 C           3.4785   -1.9745   20.2989 C.ar    1  UNL1        0.2013
     18 N           4.0618   -2.6649   21.4960 N.ar    1  UNL1       -0.2083
     19 N           4.5530   -4.0134   21.0597 N.ar    1  UNL1       -0.1487
     20 C           2.5732    0.3803   30.0694 C.3     1  UNL1        0.0606
     21 C           2.6158    0.8816   31.4825 C.2     1  UNL1       -0.0304
     22 C           1.6633    1.9514   31.9278 C.2     1  UNL1       -0.0038
     23 C           1.7059    2.4527   33.3409 C.2     1  UNL1        0.0495
     24 C           2.7009    1.8841   34.3087 C.2     1  UNL1        0.2317
     25 N           2.9763    2.1778   35.7537 N.2     1  UNL1       -0.0350
     26 C           4.0990    1.2894   36.2015 C.2     1  UNL1        0.3518
     27 C           4.6981    1.2506   37.5761 C.3     1  UNL1        0.1367
     28 N           4.5174    0.4467   35.0332 N.2     1  UNL1       -0.0389
     29 C           3.6534    0.8143   33.8634 C.2     1  UNL1        0.2171
     30 C           3.6108    0.3130   32.4503 C.3     1  UNL1        0.1001
     31 C           1.4331    0.7616   29.1723 C.ar    1  UNL1       -0.0148
     32 C           0.2054   -0.0980   29.1131 C.ar    1  UNL1       -0.0038
     33 C          -0.9348    0.2834   28.2160 C.ar    1  UNL1        0.0020
     34 C          -0.8470    1.5244   27.3781 C.ar    1  UNL1        0.0296
     35 C           0.3808    2.3841   27.4373 C.ar    1  UNL1        0.1398
     36 F           0.4685    3.6251   26.5993 F       1  UNL1       -0.2042
     37 C           1.5208    2.0027   28.3343 C.ar    1  UNL1        0.0257
@<TRIPOS>BOND
     1    14    15    1
     2    15    16   ar
     3    16    17   ar
     4    17    18   ar
     5    18     6    1
     6     6     7   ar
     7     7     8   ar
     8     8     9    1
     9     8    10   ar
    10    10     2    1
    11     2     3    2
    12     2     4   am
    13     4     1    1
    14    20     1    1
    15    20    31    1
    16    31    32   ar
    17    32    33   ar
    18    33    34   ar
    19    34    35   ar
    20    35    36    1
    21    35    37   ar
    22    20    21    1
    23    21    22    2
    24    22    23    1
    25    23    24    2
    26    24    25    1
    27    25    26    2
    28    26    27    1
    29    26    28    1
    30    28    29    2
    31    29    30    1
    32    10    11   ar
    33    11    12    1
    34    11    13   ar
    35    18    19   ar
    36    19    15   ar
    37    13     6   ar
    38    37    31   ar
    39    30    21    1
    40    29    24    1
    41     4     5    1
@<TRIPOS>MOLECULE
*****
 37 41 0 0 0
SMALL
GASTEIGER

@<TRIPOS>ATOM
      1 C         -14.9939   -4.8207   20.5365 C.3     1  UNL1        0.0980
      2 C         -15.5960   -2.5753   19.3764 C.2     1  UNL1        0.2475
      3 O         -16.4697   -3.3117   18.4046 O.2     1  UNL1       -0.2701
      4 N         -14.8581   -3.3299   20.4423 N.am    1  UNL1       -0.3002
      5 H         -14.2847   -2.8465   21.0802 H       1  UNL1        0.1498
      6 C         -15.1885    1.8972   19.0940 C.ar    1  UNL1        0.0863
      7 C         -14.0734    1.0114   18.6232 C.ar    1  UNL1        0.0308
      8 C         -14.2093   -0.4795   18.7173 C.ar    1  UNL1        0.0643
      9 CL        -13.0942   -1.3655   18.2464 Cl      1  UNL1       -0.0820
     10 C         -15.4602   -1.0844   19.2823 C.ar    1  UNL1        0.0745
     11 C         -16.5753   -0.1985   19.7532 C.ar    1  UNL1        0.0643
     12 CL        -17.8262   -0.8035   20.3181 Cl      1  UNL1       -0.0820
     13 C         -16.4394    1.2923   19.6590 C.ar    1  UNL1        0.0308
     14 C         -13.8147    6.7204   17.4413 C.3     1  UNL1        0.0756
     15 C         -14.4212    5.6051   18.2403 C.ar    1  UNL1        0.1613
     16 N         -15.2661    5.7597   19.4701 N.ar    1  UNL1       -0.2073
     17 C         -15.6563    4.3895   19.9395 C.ar    1  UNL1        0.2013
     18 N         -15.0526    3.3882   18.9999 N.ar    1  UNL1       -0.2083
     19 N         -14.2893    4.1394   17.9498 N.ar    1  UNL1       -0.1487
     20 C         -14.4834   -5.6918   19.4272 C.3     1  UNL1        0.0606
     21 C         -15.2314   -6.9345   19.0446 C.2     1  UNL1       -0.0304
     22 C         -14.4818   -8.1493   18.5841 C.2     1  UNL1       -0.0038
     23 C         -15.2299   -9.3919   18.2015 C.2     1  UNL1        0.0495
     24 C         -16.7276   -9.4196   18.2795 C.2     1  UNL1        0.2317
     25 N         -17.7291  -10.4926   17.9700 N.2     1  UNL1       -0.0350
     26 C         -19.0976   -9.9409   18.2392 C.2     1  UNL1        0.3518
     27 C         -20.3943  -10.6743   18.0634 C.3     1  UNL1        0.1367
     28 N         -18.9420   -8.5269   18.7152 N.2     1  UNL1       -0.0389
     29 C         -17.4772   -8.2048   18.7401 C.2     1  UNL1        0.2171
     30 C         -16.7291   -6.9622   19.1227 C.3     1  UNL1        0.1001
     31 C         -13.2248   -5.3204   18.7006 C.ar    1  UNL1       -0.0148
     32 C         -13.2814   -4.9325   17.2527 C.ar    1  UNL1       -0.0038
     33 C         -12.0227   -4.5610   16.5261 C.ar    1  UNL1        0.0020
     34 C         -10.7077   -4.5775   17.2473 C.ar    1  UNL1        0.0296
     35 C         -10.6511   -4.9655   18.6951 C.ar    1  UNL1        0.1398
     36 F          -9.3360   -4.9819   19.4164 F       1  UNL1       -0.2042
     37 C         -11.9096   -5.3369   19.4218 C.ar    1  UNL1        0.0257
@<TRIPOS>BOND
     1    14    15    1
     2    15    16   ar
     3    16    17   ar
     4    17    18   ar
     5    18     6    1
     6     6     7   ar
     7     7     8   ar
     8     8     9    1
     9     8    10   ar
    10    10     2    1
    11     2     3    2
    12     2     4   am
    13     4     1    1
    14    20     1    1
    15    20    31    1
    16    31    32   ar
    17    32    33   ar
    18    33    34   ar
    19    34    35   ar
    20    35    36    1
    21    35    37   ar
    22    20    21    1
    23    21    22    2
    24    22    23    1
    25    23    24    2
    26    24    25    1
    27    25    26    2
    28    26    27    1
    29    26    28    1
    30    28    29    2
    31    29    30    1
    32    10    11   ar
    33    11    12    1
    34    11    13   ar
    35    18    19   ar
    36    19    15   ar
    37    13     6   ar
    38    37    31   ar
    39    30    21    1
    40    29    24    1
    41     4     5    1
@<TRIPOS>MOLECULE
*****
 37 41 0 0 0
SMALL
GASTEIGER

@<TRIPOS>ATOM
      1 C           4.8031    0.6553   21.7592 C.3     1  UNL1        0.0980
      2 C           4.7547   -1.3147   23.4524 C.2     1  UNL1        0.2475
      3 O           3.2623   -1.1975   23.5461 O.2     1  UNL1       -0.2701
      4 N           5.5252   -0.3882   22.5589 N.am    1  UNL1       -0.3002
      5 H           6.5047   -0.4651   22.4975 H       1  UNL1        0.1498
      6 C           6.9210   -4.4452   25.8517 C.ar    1  UNL1        0.0863
      7 C           6.4450   -3.1875   26.5160 C.ar    1  UNL1        0.0308
      8 C           5.7229   -2.1440   25.7162 C.ar    1  UNL1        0.0643
      9 CL          5.2468   -0.8861   26.3805 Cl      1  UNL1       -0.0820
     10 C           5.4769   -2.3582   24.2521 C.ar    1  UNL1        0.0745
     11 C           5.9529   -3.6160   23.5878 C.ar    1  UNL1        0.0643
     12 CL          5.7069   -3.8303   22.1237 Cl      1  UNL1       -0.0820
     13 C           6.6750   -4.6595   24.3876 C.ar    1  UNL1        0.0308
     14 C           8.5690   -9.1110   27.6947 C.3     1  UNL1        0.0756
     15 C           8.4006   -7.6334   27.4986 C.ar    1  UNL1        0.1613
     16 N           9.1082   -6.5559   28.2657 N.ar    1  UNL1       -0.2073
     17 C           8.6400   -5.2305   27.7421 C.ar    1  UNL1        0.2013
     18 N           7.6432   -5.4888   26.6514 N.ar    1  UNL1       -0.2083
     19 N           7.4952   -6.9739   26.5009 N.ar    1  UNL1       -0.1487
     20 C           3.9864    0.2543   20.5666 C.3     1  UNL1        0.0606
     21 C           2.8413    1.1134   20.1186 C.2     1  UNL1       -0.0304
     22 C           2.9911    1.9945   18.9140 C.2     1  UNL1       -0.0038
     23 C           1.8460    2.8536   18.4661 C.2     1  UNL1        0.0495
     24 C           0.5511    2.8316   19.2227 C.2     1  UNL1        0.2317
     25 N          -0.7425    3.5635   19.0200 N.2     1  UNL1       -0.0350
     26 C          -1.6918    3.1348   20.0993 C.2     1  UNL1        0.3518
     27 C          -3.1006    3.6180   20.2776 C.3     1  UNL1        0.1367
     28 N          -0.9849    2.1379   20.9691 N.2     1  UNL1       -0.0389
     29 C           0.4012    1.9505   20.4274 C.2     1  UNL1        0.2171
     30 C           1.5463    1.0914   20.8753 C.3     1  UNL1        0.1001
     31 C           4.3149   -1.0057   19.8220 C.ar    1  UNL1       -0.0148
     32 C           5.5955   -1.1071   19.0476 C.ar    1  UNL1       -0.0038
     33 C           5.9238   -2.3672   18.3030 C.ar    1  UNL1        0.0020
     34 C           4.9717   -3.5258   18.3329 C.ar    1  UNL1        0.0296
     35 C           3.6910   -3.4244   19.1073 C.ar    1  UNL1        0.1398
     36 F           2.7389   -4.5830   19.1372 F       1  UNL1       -0.2042
     37 C           3.3626   -2.1644   19.8519 C.ar    1  UNL1        0.0257
@<TRIPOS>BOND
     1    14    15    1
     2    15    16   ar
     3    16    17   ar
     4    17    18   ar
     5    18     6    1
     6     6     7   ar
     7     7     8   ar
     8     8     9    1
     9     8    10   ar
    10    10     2    1
    11     2     3    2
    12     2     4   am
    13     4     1    1
    14    20     1    1
    15    20    31    1
    16    31    32   ar
    17    32    33   ar
    18    33    34   ar
    19    34    35   ar
    20    35    36    1
    21    35    37   ar
    22    20    21    1
    23    21    22    2
    24    22    23    1
    25    23    24    2
    26    24    25    1
    27    25    26    2
    28    26    27    1
    29    26    28    1
    30    28    29    2
    31    29    30    1
    32    10    11   ar
    33    11    12    1
    34    11    13   ar
    35    18    19   ar
    36    19    15   ar
    37    13     6   ar
    38    37    31   ar
    39    30    21    1
    40    29    24    1
    41     4     5    1
@<TRIPOS>MOLECULE
*****
 37 41 0 0 0
SMALL
GASTEIGER

@<TRIPOS>ATOM
      1 C          -0.4475    2.6391   24.3296 C.3     1  UNL1        0.0980
      2 C           1.9408    1.6249   24.4611 C.2     1  UNL1        0.2475
      3 O           2.4851    2.9602   24.8743 O.2     1  UNL1       -0.2701
      4 N           0.4745    1.4644   24.1888 N.am    1  UNL1       -0.3002
      5 H           0.1172    0.5880   23.9176 H       1  UNL1        0.1498
      6 C           4.7067   -1.8994   24.0387 C.ar    1  UNL1        0.0863
      7 C           4.2305   -1.4784   25.3973 C.ar    1  UNL1        0.0308
      8 C           3.3086   -0.3037   25.5381 C.ar    1  UNL1        0.0643
      9 CL          2.8324    0.1174   26.8968 Cl      1  UNL1       -0.0820
     10 C           2.8628    0.4501   24.3203 C.ar    1  UNL1        0.0745
     11 C           3.3390    0.0291   22.9616 C.ar    1  UNL1        0.0643
     12 CL          2.8932    0.7828   21.7438 Cl      1  UNL1       -0.0820
     13 C           4.2609   -1.1457   22.8208 C.ar    1  UNL1        0.0308
     14 C           8.0335   -5.8376   25.1810 C.3     1  UNL1        0.0756
     15 C           7.1578   -4.8844   24.4229 C.ar    1  UNL1        0.1613
     16 N           6.9372   -4.8797   22.9391 N.ar    1  UNL1       -0.2073
     17 C           5.9922   -3.7609   22.6147 C.ar    1  UNL1        0.2013
     18 N           5.6287   -3.0742   23.8978 N.ar    1  UNL1       -0.2083
     19 N           6.3492   -3.7686   25.0153 N.ar    1  UNL1       -0.1487
     20 C          -1.2018    2.8514   25.6087 C.3     1  UNL1        0.0606
     21 C          -2.5532    3.5020   25.5833 C.2     1  UNL1       -0.0304
     22 C          -3.3846    3.4556   24.3358 C.2     1  UNL1       -0.0038
     23 C          -4.7359    4.1061   24.3105 C.2     1  UNL1        0.0495
     24 C          -5.2558    4.8032   25.5327 C.2     1  UNL1        0.2317
     25 N          -6.5403    5.5288   25.8044 N.2     1  UNL1       -0.0350
     26 C          -6.5026    6.0237   27.2199 C.2     1  UNL1        0.3518
     27 C          -7.5829    6.8018   27.9110 C.3     1  UNL1        0.1367
     28 N          -5.1949    5.6039   27.8230 N.2     1  UNL1       -0.0389
     29 C          -4.4243    4.8496   26.7803 C.2     1  UNL1        0.2171
     30 C          -3.0730    4.1990   26.8056 C.3     1  UNL1        0.1001
     31 C          -0.6048    2.4132   26.9131 C.ar    1  UNL1       -0.0148
     32 C           0.3442    3.3157   27.6444 C.ar    1  UNL1       -0.0038
     33 C           0.9413    2.8774   28.9489 C.ar    1  UNL1        0.0020
     34 C           0.5893    1.5366   29.5219 C.ar    1  UNL1        0.0296
     35 C          -0.3597    0.6341   28.7906 C.ar    1  UNL1        0.1398
     36 F          -0.7116   -0.7067   29.3636 F       1  UNL1       -0.2042
     37 C          -0.9567    1.0723   27.4862 C.ar    1  UNL1        0.0257
@<TRIPOS>BOND
     1    14    15    1
     2    15    16   ar
     3    16    17   ar
     4    17    18   ar
     5    18     6    1
     6     6     7   ar
     7     7     8   ar
     8     8     9    1
     9     8    10   ar
    10    10     2    1
    11     2     3    2
    12     2     4   am
    13     4     1    1
    14    20     1    1
    15    20    31    1
    16    31    32   ar
    17    32    33   ar
    18    33    34   ar
    19    34    35   ar
    20    35    36    1
    21    35    37   ar
    22    20    21    1
    23    21    22    2
    24    22    23    1
    25    23    24    2
    26    24    25    1
    27    25    26    2
    28    26    27    1
    29    26    28    1
    30    28    29    2
    31    29    30    1
    32    10    11   ar
    33    11    12    1
    34    11    13   ar
    35    18    19   ar
    36    19    15   ar
    37    13     6   ar
    38    37    31   ar
    39    30    21    1
    40    29    24    1
    41     4     5    1
@<TRIPOS>MOLECULE
*****
 37 41 0 0 0
SMALL
GASTEIGER

@<TRIPOS>ATOM
      1 C           2.4116   -0.6003   29.0278 C.3     1  UNL1        0.0980
      2 C           3.5867   -0.3880   26.7205 C.2     1  UNL1        0.2475
      3 O           4.6427    0.4800   27.3381 O.2     1  UNL1       -0.2701
      4 N           2.4712   -0.9281   27.5653 N.am    1  UNL1       -0.3002
      5 H           1.7781   -1.4978   27.1599 H       1  UNL1        0.1498
      6 C           3.7654   -1.3716   22.3329 C.ar    1  UNL1        0.0863
      7 C           2.7386   -0.4047   22.8436 C.ar    1  UNL1        0.0308
      8 C           2.6791   -0.0768   24.3061 C.ar    1  UNL1        0.0643
      9 CL          1.6522    0.8901   24.8168 Cl      1  UNL1       -0.0820
     10 C           3.6463   -0.7159   25.2579 C.ar    1  UNL1        0.0745
     11 C           4.6731   -1.6828   24.7473 C.ar    1  UNL1        0.0643
     12 CL          5.6403   -2.3218   25.6992 Cl      1  UNL1       -0.0820
     13 C           4.7326   -2.0106   23.2848 C.ar    1  UNL1        0.0308
     14 C           3.8053   -0.8862   17.0752 C.3     1  UNL1        0.0756
     15 C           3.8433   -1.4764   18.4537 C.ar    1  UNL1        0.1613
     16 N           3.9899   -2.9318   18.7860 N.ar    1  UNL1       -0.2073
     17 C           3.9785   -3.0696   20.2795 C.ar    1  UNL1        0.2013
     18 N           3.8249   -1.6995   20.8704 N.ar    1  UNL1       -0.2083
     19 N           3.7414   -0.7148   19.7419 N.ar    1  UNL1       -0.1487
     20 C           1.8188    0.7009   29.4812 C.3     1  UNL1        0.0606
     21 C           2.0026    1.1552   30.8989 C.2     1  UNL1       -0.0304
     22 C           1.1669    2.2765   31.4415 C.2     1  UNL1       -0.0038
     23 C           1.3508    2.7308   32.8592 C.2     1  UNL1        0.0495
     24 C           2.3703    2.0638   33.7342 C.2     1  UNL1        0.2317
     25 N           2.7728    2.2936   35.1609 N.2     1  UNL1       -0.0350
     26 C           3.8573    1.3143   35.5000 C.2     1  UNL1        0.3518
     27 C           4.5521    1.1915   36.8237 C.3     1  UNL1        0.1367
     28 N           4.1250    0.4794   34.2829 N.2     1  UNL1       -0.0389
     29 C           3.2060    0.9426   33.1917 C.2     1  UNL1        0.2171
     30 C           3.0221    0.4883   31.7740 C.3     1  UNL1        0.1001
     31 C           1.0422    1.5477   28.5170 C.ar    1  UNL1       -0.0148
     32 C          -0.3679    1.1791   28.1623 C.ar    1  UNL1       -0.0038
     33 C          -1.1445    2.0260   27.1980 C.ar    1  UNL1        0.0020
     34 C          -0.5110    3.2413   26.5885 C.ar    1  UNL1        0.0296
     35 C           0.8991    3.6099   26.9432 C.ar    1  UNL1        0.1398
     36 F           1.5326    4.8252   26.3336 F       1  UNL1       -0.2042
     37 C           1.6757    2.7631   27.9074 C.ar    1  UNL1        0.0257
@<TRIPOS>BOND
     1    14    15    1
     2    15    16   ar
     3    16    17   ar
     4    17    18   ar
     5    18     6    1
     6     6     7   ar
     7     7     8   ar
     8     8     9    1
     9     8    10   ar
    10    10     2    1
    11     2     3    2
    12     2     4   am
    13     4     1    1
    14    20     1    1
    15    20    31    1
    16    31    32   ar
    17    32    33   ar
    18    33    34   ar
    19    34    35   ar
    20    35    36    1
    21    35    37   ar
    22    20    21    1
    23    21    22    2
    24    22    23    1
    25    23    24    2
    26    24    25    1
    27    25    26    2
    28    26    27    1
    29    26    28    1
    30    28    29    2
    31    29    30    1
    32    10    11   ar
    33    11    12    1
    34    11    13   ar
    35    18    19   ar
    36    19    15   ar
    37    13     6   ar
    38    37    31   ar
    39    30    21    1
    40    29    24    1
    41     4     5    1
@<TRIPOS>MOLECULE
*****
 37 41 0 0 0
SMALL
GASTEIGER

@<TRIPOS>ATOM
      1 C          -0.6252    2.3652   20.0759 C.3     1  UNL1        0.0980
      2 C          -2.5559    3.9588   20.7708 C.2     1  UNL1        0.2475
      3 O          -1.9805    5.0357   19.8995 O.2     1  UNL1       -0.2701
      4 N          -1.8782    2.6235   20.8590 N.am    1  UNL1       -0.3002
      5 H          -2.2559    1.9166   21.4308 H       1  UNL1        0.1498
      6 C          -6.3150    4.7336   23.1199 C.ar    1  UNL1        0.0863
      7 C          -6.4017    4.3245   21.6794 C.ar    1  UNL1        0.0308
      8 C          -5.1487    4.0662   20.8964 C.ar    1  UNL1        0.0643
      9 CL         -5.2354    3.6570   19.4558 Cl      1  UNL1       -0.0820
     10 C          -3.8089    4.2171   21.5539 C.ar    1  UNL1        0.0745
     11 C          -3.7222    4.6263   22.9943 C.ar    1  UNL1        0.0643
     12 CL         -2.3824    4.7771   23.6518 Cl      1  UNL1       -0.0820
     13 C          -4.9752    4.8845   23.7773 C.ar    1  UNL1        0.0308
     14 C         -11.2483    4.3670   24.9663 C.3     1  UNL1        0.0756
     15 C          -9.8356    4.8234   24.7517 C.ar    1  UNL1        0.1613
     16 N          -9.1569    5.9555   25.4643 N.ar    1  UNL1       -0.2073
     17 C          -7.7555    6.0596   24.9398 C.ar    1  UNL1        0.2013
     18 N          -7.5681    4.9920   23.9030 N.ar    1  UNL1       -0.2083
     19 N          -8.8537    4.2280   23.7867 N.ar    1  UNL1       -0.1487
     20 C           0.5957    1.8354   20.7678 C.3     1  UNL1        0.0606
     21 C           1.5510    0.9467   20.0275 C.2     1  UNL1       -0.0304
     22 C           2.2762    1.4652   18.8212 C.2     1  UNL1       -0.0038
     23 C           3.2314    0.5765   18.0811 C.2     1  UNL1        0.0495
     24 C           3.4614   -0.8305   18.5472 C.2     1  UNL1        0.2317
     25 N           4.3364   -1.9309   18.0239 N.2     1  UNL1       -0.0350
     26 C           4.1519   -3.1293   18.9069 C.2     1  UNL1        0.3518
     27 C           4.8361   -4.4548   18.7487 C.3     1  UNL1        0.1367
     28 N           3.1629   -2.7697   19.9758 N.2     1  UNL1       -0.0389
     29 C           2.7362   -1.3489   19.7535 C.2     1  UNL1        0.2171
     30 C           1.7810   -0.4603   20.4937 C.3     1  UNL1        0.1001
     31 C           0.8615    2.1942   22.1997 C.ar    1  UNL1       -0.0148
     32 C           1.7648    3.3455   22.5293 C.ar    1  UNL1       -0.0038
     33 C           2.0305    3.7043   23.9613 C.ar    1  UNL1        0.0020
     34 C           1.3929    2.9119   25.0638 C.ar    1  UNL1        0.0296
     35 C           0.4896    1.7606   24.7343 C.ar    1  UNL1        0.1398
     36 F          -0.1480    0.9681   25.8367 F       1  UNL1       -0.2042
     37 C           0.2239    1.4017   23.3023 C.ar    1  UNL1        0.0257
@<TRIPOS>BOND
     1    14    15    1
     2    15    16   ar
     3    16    17   ar
     4    17    18   ar
     5    18     6    1
     6     6     7   ar
     7     7     8   ar
     8     8     9    1
     9     8    10   ar
    10    10     2    1
    11     2     3    2
    12     2     4   am
    13     4     1    1
    14    20     1    1
    15    20    31    1
    16    31    32   ar
    17    32    33   ar
    18    33    34   ar
    19    34    35   ar
    20    35    36    1
    21    35    37   ar
    22    20    21    1
    23    21    22    2
    24    22    23    1
    25    23    24    2
    26    24    25    1
    27    25    26    2
    28    26    27    1
    29    26    28    1
    30    28    29    2
    31    29    30    1
    32    10    11   ar
    33    11    12    1
    34    11    13   ar
    35    18    19   ar
    36    19    15   ar
    37    13     6   ar
    38    37    31   ar
    39    30    21    1
    40    29    24    1
    41     4     5    1
