@<TRIPOS>MOLECULE
*****
 37 41 0 0 0
SMALL
GASTEIGER

@<TRIPOS>ATOM
      1 C           5.1259   -1.3588   17.8571 C.3     1  UNL1        0.0545
      2 C           6.2361   -0.4664   17.3870 C.3     1  UNL1        0.0157
      3 C           6.0652    1.0235   17.4184 C.3     1  UNL1        0.0017
      4 C           4.7840    1.6210   17.9200 C.3     1  UNL1        0.0044
      5 C           3.6737    0.7286   18.3901 C.3     1  UNL1        0.0237
      6 C           3.8447   -0.7613   18.3587 C.3     1  UNL1        0.0201
      7 C           2.3926    1.3261   18.8917 C.ar    1  UNL1       -0.0225
      8 C           1.3724    0.4565   19.5648 C.ar    1  UNL1       -0.0041
      9 C           0.0912    1.0541   20.0664 C.ar    1  UNL1        0.0042
     10 C          -0.1697    2.5212   19.8948 C.ar    1  UNL1        0.0536
     11 C           0.8504    3.3908   19.2216 C.ar    1  UNL1        0.0042
     12 C           2.1315    2.7933   18.7201 C.ar    1  UNL1       -0.0041
     13 C          -1.4509    3.1187   20.3964 C.2     1  UNL1        0.2490
     14 O          -2.5036    3.5610   19.4236 O.2     1  UNL1       -0.2699
     15 N          -1.6794    3.2739   21.8707 N.am    1  UNL1       -0.2761
     16 C          -0.6268    2.8317   22.8435 C.3     1  UNL1        0.0941
     17 C          -0.8553    2.9869   24.3178 C.3     1  UNL1        0.0271
     18 C          -2.1365    3.5844   24.8194 C.3     1  UNL1        0.0399
     19 C          -3.1892    4.0267   23.8466 C.3     1  UNL1        0.0271
     20 C          -2.9607    3.8715   22.3722 C.3     1  UNL1        0.0941
     21 C          -2.3650    3.7397   26.2937 C.2     1  UNL1        0.0501
     22 O          -1.1976    3.9141   27.2194 O.co2   1  UNL1       -0.5492
     23 O          -3.7609    3.7205   26.8424 O.co2   1  UNL1       -0.5492
     24 N           5.2969   -2.8487   17.8256 N.3     1  UNL1       -0.2962
     25 H           4.7149   -3.1958   17.0632 H       1  UNL1        0.1235
     26 C           3.8737   -4.7009   18.9633 C.3     1  UNL1        0.0220
     27 C           4.9591   -3.6681   19.0359 C.3     1  UNL1        0.0768
     28 C           5.7067   -3.4546   20.3186 C.ar    1  UNL1       -0.0080
     29 C           7.0716   -4.0499   20.4992 C.ar    1  UNL1       -0.0030
     30 C           7.8193   -3.8365   21.7820 C.ar    1  UNL1       -0.0003
     31 C           7.2020   -3.0277   22.8841 C.ar    1  UNL1       -0.0000
     32 C           5.8371   -2.4323   22.7036 C.ar    1  UNL1       -0.0003
     33 C           5.2198   -1.6235   23.8057 C.ar    1  UNL1       -0.0000
     34 C           3.8550   -1.0282   23.6252 C.ar    1  UNL1       -0.0000
     35 C           3.1073   -1.2416   22.3424 C.ar    1  UNL1       -0.0000
     36 C           3.7246   -2.0504   21.2402 C.ar    1  UNL1       -0.0003
     37 C           5.0894   -2.6458   21.4208 C.ar    1  UNL1       -0.0027
@<TRIPOS>UNITY_ATOM_ATTR
22 1
charge -1
@<TRIPOS>BOND
     1    27    26    1
     2    27    24    1
     3     1    24    1
     4     1     2    1
     5     2     3    1
     6     3     4    1
     7     4     5    1
     8     5     7    1
     9     7     8   ar
    10     8     9   ar
    11     9    10   ar
    12    10    13    1
    13    13    14    2
    14    13    15   am
    15    15    16    1
    16    16    17    1
    17    17    18    1
    18    18    21    1
    19    21    22   ar
    20    21    23   ar
    21    18    19    1
    22    19    20    1
    23    10    11   ar
    24    11    12   ar
    25     5     6    1
    26    27    28    1
    27    28    29   ar
    28    29    30   ar
    29    30    31   ar
    30    31    32   ar
    31    32    33   ar
    32    33    34   ar
    33    34    35   ar
    34    35    36   ar
    35    36    37   ar
    36     6     1    1
    37    37    28   ar
    38    12     7   ar
    39    37    32   ar
    40    20    15    1
    41    24    25    1
@<TRIPOS>MOLECULE
*****
 37 41 0 0 0
SMALL
GASTEIGER

@<TRIPOS>ATOM
      1 C           7.0086   -3.6707   20.8280 C.3     1  UNL1        0.0545
      2 C           8.0322   -2.6708   20.3780 C.3     1  UNL1        0.0157
      3 C           9.0274   -2.1234   21.3578 C.3     1  UNL1        0.0017
      4 C           8.9990   -2.5759   22.7876 C.3     1  UNL1        0.0044
      5 C           7.9754   -3.5758   23.2377 C.3     1  UNL1        0.0237
      6 C           6.9802   -4.1232   22.2579 C.3     1  UNL1        0.0201
      7 C           7.9471   -4.0283   24.6675 C.ar    1  UNL1       -0.0225
      8 C           6.8840   -4.9791   25.1323 C.ar    1  UNL1       -0.0041
      9 C           6.8557   -5.4315   26.5622 C.ar    1  UNL1        0.0042
     10 C           7.8904   -4.9333   27.5272 C.ar    1  UNL1        0.0536
     11 C           8.9534   -3.9826   27.0623 C.ar    1  UNL1        0.0042
     12 C           8.9818   -3.5301   25.6325 C.ar    1  UNL1       -0.0041
     13 C           7.8620   -5.3858   28.9570 C.2     1  UNL1        0.2490
     14 O           8.5063   -6.6834   29.3460 O.2     1  UNL1       -0.2699
     15 N           7.1895   -4.5407   29.9979 N.am    1  UNL1       -0.2761
     16 C           6.5453   -3.2431   29.6090 C.3     1  UNL1        0.0941
     17 C           5.8727   -2.3981   30.6499 C.3     1  UNL1        0.0271
     18 C           5.8444   -2.8506   32.0798 C.3     1  UNL1        0.0399
     19 C           6.4886   -4.1482   32.4687 C.3     1  UNL1        0.0271
     20 C           7.1612   -4.9933   31.4278 C.3     1  UNL1        0.0941
     21 C           5.1718   -2.0055   33.1207 C.2     1  UNL1        0.0501
     22 O           3.8795   -2.4576   33.7335 O.co2   1  UNL1       -0.5492
     23 O           5.7915   -0.7083   33.5488 O.co2   1  UNL1       -0.5492
     24 N           6.0134   -4.2181   19.8482 N.3     1  UNL1       -0.2962
     25 H           6.2361   -3.8071   18.9416 H       1  UNL1        0.1235
     26 C           3.5670   -5.0812   19.7068 C.3     1  UNL1        0.0220
     27 C           4.5456   -4.0046   20.0717 C.3     1  UNL1        0.0768
     28 C           4.0564   -2.7144   20.6601 C.ar    1  UNL1       -0.0080
     29 C           3.8819   -2.5855   22.1443 C.ar    1  UNL1       -0.0030
     30 C           3.3927   -1.2953   22.7327 C.ar    1  UNL1       -0.0003
     31 C           3.0780   -0.1341   21.8369 C.ar    1  UNL1       -0.0000
     32 C           3.2524   -0.2630   20.3526 C.ar    1  UNL1       -0.0003
     33 C           2.9377    0.8982   19.4568 C.ar    1  UNL1       -0.0000
     34 C           3.1122    0.7692   17.9726 C.ar    1  UNL1       -0.0000
     35 C           3.6014   -0.5209   17.3842 C.ar    1  UNL1       -0.0000
     36 C           3.9161   -1.6821   18.2800 C.ar    1  UNL1       -0.0003
     37 C           3.7416   -1.5532   19.7642 C.ar    1  UNL1       -0.0027
@<TRIPOS>UNITY_ATOM_ATTR
22 1
charge -1
@<TRIPOS>BOND
     1    27    26    1
     2    27    24    1
     3     1    24    1
     4     1     2    1
     5     2     3    1
     6     3     4    1
     7     4     5    1
     8     5     7    1
     9     7     8   ar
    10     8     9   ar
    11     9    10   ar
    12    10    13    1
    13    13    14    2
    14    13    15   am
    15    15    16    1
    16    16    17    1
    17    17    18    1
    18    18    21    1
    19    21    22   ar
    20    21    23   ar
    21    18    19    1
    22    19    20    1
    23    10    11   ar
    24    11    12   ar
    25     5     6    1
    26    27    28    1
    27    28    29   ar
    28    29    30   ar
    29    30    31   ar
    30    31    32   ar
    31    32    33   ar
    32    33    34   ar
    33    34    35   ar
    34    35    36   ar
    35    36    37   ar
    36     6     1    1
    37    37    28   ar
    38    12     7   ar
    39    37    32   ar
    40    20    15    1
    41    24    25    1
@<TRIPOS>MOLECULE
*****
 37 41 0 0 0
SMALL
GASTEIGER

@<TRIPOS>ATOM
      1 C           6.7956   -3.1801   20.4614 C.3     1  UNL1        0.0545
      2 C           7.5676   -1.9452   20.1023 C.3     1  UNL1        0.0157
      3 C           8.4035   -1.2552   21.1392 C.3     1  UNL1        0.0017
      4 C           8.4674   -1.8002   22.5352 C.3     1  UNL1        0.0044
      5 C           7.6954   -3.0352   22.8944 C.3     1  UNL1        0.0237
      6 C           6.8595   -3.7252   21.8574 C.3     1  UNL1        0.0201
      7 C           7.7594   -3.5801   24.2904 C.ar    1  UNL1       -0.0225
      8 C           8.8069   -3.0833   25.2422 C.ar    1  UNL1       -0.0041
      9 C           8.8708   -3.6283   26.6383 C.ar    1  UNL1        0.0042
     10 C           7.8872   -4.6700   27.0825 C.ar    1  UNL1        0.0536
     11 C           6.8398   -5.1669   26.1307 C.ar    1  UNL1        0.0042
     12 C           6.7758   -4.6219   24.7346 C.ar    1  UNL1       -0.0041
     13 C           7.9512   -5.2150   28.4785 C.2     1  UNL1        0.2490
     14 O           8.6711   -6.5030   28.7486 O.2     1  UNL1       -0.2699
     15 N           7.2953   -4.4720   29.6044 N.am    1  UNL1       -0.2761
     16 C           6.5754   -3.1841   29.3343 C.3     1  UNL1        0.0941
     17 C           5.9195   -2.4411   30.4603 C.3     1  UNL1        0.0271
     18 C           5.9834   -2.9860   31.8563 C.3     1  UNL1        0.0399
     19 C           6.7033   -4.2740   32.1264 C.3     1  UNL1        0.0271
     20 C           7.3592   -5.0170   31.0005 C.3     1  UNL1        0.0941
     21 C           5.3275   -2.2430   32.9822 C.2     1  UNL1        0.0501
     22 O           4.0300   -2.7362   33.5510 O.co2   1  UNL1       -0.5492
     23 O           5.9690   -1.0070   33.5394 O.co2   1  UNL1       -0.5492
     24 N           5.9597   -3.8701   19.4245 N.3     1  UNL1       -0.2962
     25 H           6.3822   -3.6624   18.5196 H       1  UNL1        0.1235
     26 C           3.4824   -4.6511   19.3683 C.3     1  UNL1        0.0220
     27 C           4.4991   -3.5502   19.3040 C.3     1  UNL1        0.0768
     28 C           4.0554   -2.1293   19.1194 C.ar    1  UNL1       -0.0080
     29 C           4.0328   -1.5228   17.7477 C.ar    1  UNL1       -0.0030
     30 C           3.5891   -0.1019   17.5630 C.ar    1  UNL1       -0.0003
     31 C           3.1678    0.7125   18.7501 C.ar    1  UNL1       -0.0000
     32 C           3.1904    0.1061   20.1219 C.ar    1  UNL1       -0.0003
     33 C           2.7692    0.9206   21.3089 C.ar    1  UNL1       -0.0000
     34 C           2.7917    0.3142   22.6807 C.ar    1  UNL1       -0.0000
     35 C           3.2355   -1.1067   22.8653 C.ar    1  UNL1       -0.0000
     36 C           3.6567   -1.9212   21.6783 C.ar    1  UNL1       -0.0003
     37 C           3.6341   -1.3148   20.3065 C.ar    1  UNL1       -0.0027
@<TRIPOS>UNITY_ATOM_ATTR
22 1
charge -1
@<TRIPOS>BOND
     1    27    26    1
     2    27    24    1
     3     1    24    1
     4     1     2    1
     5     2     3    1
     6     3     4    1
     7     4     5    1
     8     5     7    1
     9     7     8   ar
    10     8     9   ar
    11     9    10   ar
    12    10    13    1
    13    13    14    2
    14    13    15   am
    15    15    16    1
    16    16    17    1
    17    17    18    1
    18    18    21    1
    19    21    22   ar
    20    21    23   ar
    21    18    19    1
    22    19    20    1
    23    10    11   ar
    24    11    12   ar
    25     5     6    1
    26    27    28    1
    27    28    29   ar
    28    29    30   ar
    29    30    31   ar
    30    31    32   ar
    31    32    33   ar
    32    33    34   ar
    33    34    35   ar
    34    35    36   ar
    35    36    37   ar
    36     6     1    1
    37    37    28   ar
    38    12     7   ar
    39    37    32   ar
    40    20    15    1
    41    24    25    1
@<TRIPOS>MOLECULE
*****
 37 41 0 0 0
SMALL
GASTEIGER

@<TRIPOS>ATOM
      1 C           4.2308   -3.0210   22.0461 C.3     1  UNL1        0.0545
      2 C           4.6206   -2.7899   23.4760 C.3     1  UNL1        0.0157
      3 C           4.1694   -1.5474   24.1850 C.3     1  UNL1        0.0017
      4 C           3.3285   -0.5360   23.4641 C.3     1  UNL1        0.0044
      5 C           2.9386   -0.7671   22.0341 C.3     1  UNL1        0.0237
      6 C           3.3898   -2.0096   21.3251 C.3     1  UNL1        0.0201
      7 C           2.0977    0.2444   21.3132 C.ar    1  UNL1       -0.0225
      8 C           1.3768   -0.1395   20.0550 C.ar    1  UNL1       -0.0041
      9 C           0.5358    0.8720   19.3341 C.ar    1  UNL1        0.0042
     10 C           0.4157    2.2673   19.8714 C.ar    1  UNL1        0.0536
     11 C           1.1366    2.6512   21.1296 C.ar    1  UNL1        0.0042
     12 C           1.9775    1.6397   21.8505 C.ar    1  UNL1       -0.0041
     13 C          -0.4252    3.2788   19.1505 C.2     1  UNL1        0.2490
     14 O           0.1118    3.9689   17.9317 O.2     1  UNL1       -0.2699
     15 N          -1.8032    3.6001   19.6483 N.am    1  UNL1       -0.2761
     16 C          -2.3403    2.9101   20.8670 C.3     1  UNL1        0.0941
     17 C          -3.7183    3.2315   21.3649 C.3     1  UNL1        0.0271
     18 C          -4.5592    4.2429   20.6440 C.3     1  UNL1        0.0399
     19 C          -4.0222    4.9330   19.4252 C.3     1  UNL1        0.0271
     20 C          -2.6442    4.6116   18.9273 C.3     1  UNL1        0.0941
     21 C          -5.9372    4.5643   21.1418 C.2     1  UNL1        0.0501
     22 O          -6.4654    3.8914   22.3741 O.co2   1  UNL1       -0.5492
     23 O          -6.7871    5.5585   20.4074 O.co2   1  UNL1       -0.5492
     24 N           4.6820   -4.2635   21.3371 N.3     1  UNL1       -0.2962
     25 H           5.4373   -4.6627   21.8944 H       1  UNL1        0.1235
     26 C           4.6594   -5.1312   18.8883 C.3     1  UNL1        0.0220
     27 C           5.1821   -4.1817   19.9253 C.3     1  UNL1        0.0768
     28 C           6.2049   -3.1505   19.5505 C.ar    1  UNL1       -0.0080
     29 C           7.5961   -3.2382   20.1042 C.ar    1  UNL1       -0.0030
     30 C           8.6189   -2.2070   19.7294 C.ar    1  UNL1       -0.0003
     31 C           8.2504   -1.0880   18.8009 C.ar    1  UNL1       -0.0000
     32 C           6.8591   -1.0003   18.2472 C.ar    1  UNL1       -0.0003
     33 C           6.4906    0.1187   17.3187 C.ar    1  UNL1       -0.0000
     34 C           5.0993    0.2064   16.7651 C.ar    1  UNL1       -0.0000
     35 C           4.0765   -0.8248   17.1399 C.ar    1  UNL1       -0.0000
     36 C           4.4450   -1.9438   18.0683 C.ar    1  UNL1       -0.0003
     37 C           5.8363   -2.0315   18.6220 C.ar    1  UNL1       -0.0027
@<TRIPOS>UNITY_ATOM_ATTR
22 1
charge -1
@<TRIPOS>BOND
     1    27    26    1
     2    27    24    1
     3     1    24    1
     4     1     2    1
     5     2     3    1
     6     3     4    1
     7     4     5    1
     8     5     7    1
     9     7     8   ar
    10     8     9   ar
    11     9    10   ar
    12    10    13    1
    13    13    14    2
    14    13    15   am
    15    15    16    1
    16    16    17    1
    17    17    18    1
    18    18    21    1
    19    21    22   ar
    20    21    23   ar
    21    18    19    1
    22    19    20    1
    23    10    11   ar
    24    11    12   ar
    25     5     6    1
    26    27    28    1
    27    28    29   ar
    28    29    30   ar
    29    30    31   ar
    30    31    32   ar
    31    32    33   ar
    32    33    34   ar
    33    34    35   ar
    34    35    36   ar
    35    36    37   ar
    36     6     1    1
    37    37    28   ar
    38    12     7   ar
    39    37    32   ar
    40    20    15    1
    41    24    25    1
@<TRIPOS>MOLECULE
*****
 37 41 0 0 0
SMALL
GASTEIGER

@<TRIPOS>ATOM
      1 C           0.3816    0.8723   21.0724 C.3     1  UNL1        0.0545
      2 C          -0.2699    1.9959   20.3222 C.3     1  UNL1        0.0157
      3 C          -0.7025    3.2332   21.0515 C.3     1  UNL1        0.0017
      4 C          -0.4835    3.3470   22.5310 C.3     1  UNL1        0.0044
      5 C           0.1681    2.2233   23.2813 C.3     1  UNL1        0.0237
      6 C           0.6007    0.9860   22.5520 C.3     1  UNL1        0.0201
      7 C           0.3871    2.3370   24.7608 C.ar    1  UNL1       -0.0225
      8 C          -0.6273    1.7786   25.7143 C.ar    1  UNL1       -0.0041
      9 C          -0.4082    1.8924   27.1939 C.ar    1  UNL1        0.0042
     10 C           0.8252    2.5645   27.7200 C.ar    1  UNL1        0.0536
     11 C           1.8397    3.1229   26.7665 C.ar    1  UNL1        0.0042
     12 C           1.6206    3.0092   25.2870 C.ar    1  UNL1       -0.0041
     13 C           1.0443    2.6782   29.1995 C.2     1  UNL1        0.2490
     14 O           0.4816    3.8466   29.9534 O.2     1  UNL1       -0.2699
     15 N           1.8260    1.6236   29.9252 N.am    1  UNL1       -0.2761
     16 C           2.3886    0.4552   29.1714 C.3     1  UNL1        0.0941
     17 C           3.1703   -0.5994   29.8971 C.3     1  UNL1        0.0271
     18 C           3.3894   -0.4857   31.3767 C.3     1  UNL1        0.0399
     19 C           2.8267    0.6827   32.1306 C.3     1  UNL1        0.0271
     20 C           2.0450    1.7374   31.4048 C.3     1  UNL1        0.0941
     21 C           4.1711   -1.5403   32.1024 C.2     1  UNL1        0.0501
     22 O           3.7647   -1.9569   33.4850 O.co2   1  UNL1       -0.5492
     23 O           5.3591   -2.1785   31.4456 O.co2   1  UNL1       -0.5492
     24 N           0.8142   -0.3651   20.3431 N.3     1  UNL1       -0.2962
     25 H           0.6186   -1.1538   20.9596 H       1  UNL1        0.1235
     26 C           2.8770    0.5673   19.0681 C.3     1  UNL1        0.0220
     27 C           2.2373   -0.5108   19.8918 C.3     1  UNL1        0.0768
     28 C           3.0206   -1.7346   20.2642 C.ar    1  UNL1       -0.0080
     29 C           3.2201   -2.8315   19.2608 C.ar    1  UNL1       -0.0030
     30 C           4.0034   -4.0553   19.6333 C.ar    1  UNL1       -0.0003
     31 C           4.5873   -4.1822   21.0091 C.ar    1  UNL1       -0.0000
     32 C           4.3878   -3.0852   22.0126 C.ar    1  UNL1       -0.0003
     33 C           4.9716   -3.2120   23.3885 C.ar    1  UNL1       -0.0000
     34 C           4.7721   -2.1151   24.3919 C.ar    1  UNL1       -0.0000
     35 C           3.9888   -0.8913   24.0194 C.ar    1  UNL1       -0.0000
     36 C           3.4050   -0.7644   22.6436 C.ar    1  UNL1       -0.0003
     37 C           3.6045   -1.8614   21.6402 C.ar    1  UNL1       -0.0027
@<TRIPOS>UNITY_ATOM_ATTR
22 1
charge -1
@<TRIPOS>BOND
     1    27    26    1
     2    27    24    1
     3     1    24    1
     4     1     2    1
     5     2     3    1
     6     3     4    1
     7     4     5    1
     8     5     7    1
     9     7     8   ar
    10     8     9   ar
    11     9    10   ar
    12    10    13    1
    13    13    14    2
    14    13    15   am
    15    15    16    1
    16    16    17    1
    17    17    18    1
    18    18    21    1
    19    21    22   ar
    20    21    23   ar
    21    18    19    1
    22    19    20    1
    23    10    11   ar
    24    11    12   ar
    25     5     6    1
    26    27    28    1
    27    28    29   ar
    28    29    30   ar
    29    30    31   ar
    30    31    32   ar
    31    32    33   ar
    32    33    34   ar
    33    34    35   ar
    34    35    36   ar
    35    36    37   ar
    36     6     1    1
    37    37    28   ar
    38    12     7   ar
    39    37    32   ar
    40    20    15    1
    41    24    25    1
@<TRIPOS>MOLECULE
*****
 37 41 0 0 0
SMALL
GASTEIGER

@<TRIPOS>ATOM
      1 C           0.5941    0.9551   20.6953 C.3     1  UNL1        0.0545
      2 C           0.0918    2.2410   20.1087 C.3     1  UNL1        0.0157
      3 C          -0.3491    3.3553   21.0109 C.3     1  UNL1        0.0017
      4 C          -0.2877    3.1837   22.4997 C.3     1  UNL1        0.0044
      5 C           0.2146    1.8978   23.0864 C.3     1  UNL1        0.0237
      6 C           0.6555    0.7835   22.1842 C.3     1  UNL1        0.0201
      7 C           0.2760    1.7262   24.5753 C.ar    1  UNL1       -0.0225
      8 C          -0.9208    2.0540   25.4181 C.ar    1  UNL1       -0.0041
      9 C          -0.8593    1.8824   26.9070 C.ar    1  UNL1        0.0042
     10 C           0.3989    1.3831   27.5531 C.ar    1  UNL1        0.0536
     11 C           1.5957    1.0553   26.7104 C.ar    1  UNL1        0.0042
     12 C           1.5342    1.2268   25.2215 C.ar    1  UNL1       -0.0041
     13 C           0.4603    1.2115   29.0420 C.2     1  UNL1        0.2490
     14 O           0.3768   -0.1604   29.6430 O.2     1  UNL1       -0.2699
     15 N           0.6052    2.4117   29.9299 N.am    1  UNL1       -0.2761
     16 C           0.6886    3.7835   29.3290 C.3     1  UNL1        0.0941
     17 C           0.8335    4.9838   30.2169 C.3     1  UNL1        0.0271
     18 C           0.8949    4.8122   31.7058 C.3     1  UNL1        0.0399
     19 C           0.8114    3.4403   32.3068 C.3     1  UNL1        0.0271
     20 C           0.6666    2.2401   31.4188 C.3     1  UNL1        0.0941
     21 C           1.0398    6.0124   32.5937 C.2     1  UNL1        0.0501
     22 O           0.5067    5.9771   33.9954 O.co2   1  UNL1       -0.5492
     23 O           1.7178    7.2479   32.0801 O.co2   1  UNL1       -0.5492
     24 N           1.0349   -0.1592   19.7931 N.3     1  UNL1       -0.2962
     25 H           0.6860   -1.0255   20.2031 H       1  UNL1        0.1235
     26 C           3.2949    0.7146   18.8555 C.3     1  UNL1        0.0220
     27 C           2.4946   -0.3678   19.5171 C.3     1  UNL1        0.0768
     28 C           3.1537   -1.6589   19.9027 C.ar    1  UNL1       -0.0080
     29 C           3.3006   -2.7572   18.8918 C.ar    1  UNL1       -0.0030
     30 C           3.9598   -4.0482   19.2774 C.ar    1  UNL1       -0.0003
     31 C           4.4720   -4.2410   20.6739 C.ar    1  UNL1       -0.0000
     32 C           4.3251   -3.1426   21.6850 C.ar    1  UNL1       -0.0003
     33 C           4.8373   -3.3354   23.0816 C.ar    1  UNL1       -0.0000
     34 C           4.6903   -2.2371   24.0925 C.ar    1  UNL1       -0.0000
     35 C           4.0312   -0.9460   23.7069 C.ar    1  UNL1       -0.0000
     36 C           3.5190   -0.7533   22.3103 C.ar    1  UNL1       -0.0003
     37 C           3.6659   -1.8516   21.2994 C.ar    1  UNL1       -0.0027
@<TRIPOS>UNITY_ATOM_ATTR
22 1
charge -1
@<TRIPOS>BOND
     1    27    26    1
     2    27    24    1
     3     1    24    1
     4     1     2    1
     5     2     3    1
     6     3     4    1
     7     4     5    1
     8     5     7    1
     9     7     8   ar
    10     8     9   ar
    11     9    10   ar
    12    10    13    1
    13    13    14    2
    14    13    15   am
    15    15    16    1
    16    16    17    1
    17    17    18    1
    18    18    21    1
    19    21    22   ar
    20    21    23   ar
    21    18    19    1
    22    19    20    1
    23    10    11   ar
    24    11    12   ar
    25     5     6    1
    26    27    28    1
    27    28    29   ar
    28    29    30   ar
    29    30    31   ar
    30    31    32   ar
    31    32    33   ar
    32    33    34   ar
    33    34    35   ar
    34    35    36   ar
    35    36    37   ar
    36     6     1    1
    37    37    28   ar
    38    12     7   ar
    39    37    32   ar
    40    20    15    1
    41    24    25    1
@<TRIPOS>MOLECULE
*****
 37 41 0 0 0
SMALL
GASTEIGER

@<TRIPOS>ATOM
      1 C           4.5203   -0.9580   17.9076 C.3     1  UNL1        0.0545
      2 C           5.4144    0.0240   17.2102 C.3     1  UNL1        0.0157
      3 C           5.3202    1.4855   17.5342 C.3     1  UNL1        0.0017
      4 C           4.3319    1.9651   18.5555 C.3     1  UNL1        0.0044
      5 C           3.4378    0.9832   19.2530 C.3     1  UNL1        0.0237
      6 C           3.5320   -0.4784   18.9290 C.3     1  UNL1        0.0201
      7 C           2.4495    1.4628   20.2744 C.ar    1  UNL1       -0.0225
      8 C           1.3273    0.5680   20.7102 C.ar    1  UNL1       -0.0041
      9 C           0.3390    1.0477   21.7316 C.ar    1  UNL1        0.0042
     10 C           0.4730    2.4222   22.3172 C.ar    1  UNL1        0.0536
     11 C           1.5952    3.3170   21.8814 C.ar    1  UNL1        0.0042
     12 C           2.5835    2.8373   20.8600 C.ar    1  UNL1       -0.0041
     13 C          -0.5153    2.9018   23.3385 C.2     1  UNL1        0.2490
     14 O          -1.5895    3.8720   22.9450 O.2     1  UNL1       -0.2699
     15 N          -0.4294    2.4113   24.7535 N.am    1  UNL1       -0.2761
     16 C           0.6448    1.4411   25.1470 C.3     1  UNL1        0.0941
     17 C           0.7307    0.9506   26.5620 C.3     1  UNL1        0.0271
     18 C          -0.2575    1.4302   27.5833 C.3     1  UNL1        0.0399
     19 C          -1.3318    2.4004   27.1898 C.3     1  UNL1        0.0271
     20 C          -1.4177    2.8909   25.7749 C.3     1  UNL1        0.0941
     21 C          -0.1716    0.9397   28.9982 C.2     1  UNL1        0.0501
     22 O          -1.3818    0.3543   29.6639 O.co2   1  UNL1       -0.5492
     23 O           1.1243    1.0346   29.7475 O.co2   1  UNL1       -0.5492
     24 N           4.6145   -2.4195   17.5836 N.3     1  UNL1       -0.2962
     25 H           3.6647   -2.7418   17.3980 H       1  UNL1        0.1235
     26 C           4.7157   -4.7868   18.6493 C.3     1  UNL1        0.0220
     27 C           5.2081   -3.3717   18.5791 C.3     1  UNL1        0.0768
     28 C           6.2941   -2.9087   19.5044 C.ar    1  UNL1       -0.0080
     29 C           7.6748   -2.6580   18.9744 C.ar    1  UNL1       -0.0030
     30 C           8.7608   -2.1950   19.8997 C.ar    1  UNL1       -0.0003
     31 C           8.4661   -1.9826   21.3550 C.ar    1  UNL1       -0.0000
     32 C           7.0854   -2.2333   21.8851 C.ar    1  UNL1       -0.0003
     33 C           6.7908   -2.0209   23.3405 C.ar    1  UNL1       -0.0000
     34 C           5.4102   -2.2716   23.8705 C.ar    1  UNL1       -0.0000
     35 C           4.3242   -2.7346   22.9452 C.ar    1  UNL1       -0.0000
     36 C           4.6188   -2.9470   21.4899 C.ar    1  UNL1       -0.0003
     37 C           5.9994   -2.6963   20.9598 C.ar    1  UNL1       -0.0027
@<TRIPOS>UNITY_ATOM_ATTR
22 1
charge -1
@<TRIPOS>BOND
     1    27    26    1
     2    27    24    1
     3     1    24    1
     4     1     2    1
     5     2     3    1
     6     3     4    1
     7     4     5    1
     8     5     7    1
     9     7     8   ar
    10     8     9   ar
    11     9    10   ar
    12    10    13    1
    13    13    14    2
    14    13    15   am
    15    15    16    1
    16    16    17    1
    17    17    18    1
    18    18    21    1
    19    21    22   ar
    20    21    23   ar
    21    18    19    1
    22    19    20    1
    23    10    11   ar
    24    11    12   ar
    25     5     6    1
    26    27    28    1
    27    28    29   ar
    28    29    30   ar
    29    30    31   ar
    30    31    32   ar
    31    32    33   ar
    32    33    34   ar
    33    34    35   ar
    34    35    36   ar
    35    36    37   ar
    36     6     1    1
    37    37    28   ar
    38    12     7   ar
    39    37    32   ar
    40    20    15    1
    41    24    25    1
@<TRIPOS>MOLECULE
*****
 37 41 0 0 0
SMALL
GASTEIGER

@<TRIPOS>ATOM
      1 C           4.5260   -0.8598   17.7405 C.3     1  UNL1        0.0545
      2 C           5.5142    0.0908   17.1323 C.3     1  UNL1        0.0157
      3 C           5.3839    1.5652   17.3754 C.3     1  UNL1        0.0017
      4 C           4.2655    2.0891   18.2267 C.3     1  UNL1        0.0044
      5 C           3.2773    1.1385   18.8349 C.3     1  UNL1        0.0237
      6 C           3.4075   -0.3359   18.5918 C.3     1  UNL1        0.0201
      7 C           2.1589    1.6623   19.6862 C.ar    1  UNL1       -0.0225
      8 C           1.8971    3.1377   19.7560 C.ar    1  UNL1       -0.0041
      9 C           0.7787    3.6615   20.6073 C.ar    1  UNL1        0.0042
     10 C          -0.0780    2.7100   21.3888 C.ar    1  UNL1        0.0536
     11 C           0.1838    1.2347   21.3190 C.ar    1  UNL1        0.0042
     12 C           1.3022    0.7108   20.4677 C.ar    1  UNL1       -0.0041
     13 C          -1.1964    3.2339   22.2400 C.2     1  UNL1        0.2490
     14 O          -0.9703    3.4908   23.7005 O.2     1  UNL1       -0.2699
     15 N          -2.5409    3.5008   21.6309 N.am    1  UNL1       -0.2761
     16 C          -2.7670    3.2439   20.1705 C.3     1  UNL1        0.0941
     17 C          -4.1115    3.5108   19.5614 C.3     1  UNL1        0.0271
     18 C          -5.2299    4.0347   20.4126 C.3     1  UNL1        0.0399
     19 C          -5.0038    4.2916   21.8731 C.3     1  UNL1        0.0271
     20 C          -3.6593    4.0247   22.4823 C.3     1  UNL1        0.0941
     21 C          -6.5744    4.3016   19.8035 C.2     1  UNL1        0.0501
     22 O          -7.5149    5.2704   20.4570 O.co2   1  UNL1       -0.5492
     23 O          -6.9785    3.5998   18.5409 O.co2   1  UNL1       -0.5492
     24 N           4.6563   -2.3342   17.4974 N.3     1  UNL1       -0.2962
     25 H           3.7347   -2.6687   17.2158 H       1  UNL1        0.1235
     26 C           4.6411   -4.6548   18.6656 C.3     1  UNL1        0.0220
     27 C           5.1269   -3.2373   18.5988 C.3     1  UNL1        0.0768
     28 C           6.0833   -2.7227   19.6334 C.ar    1  UNL1       -0.0080
     29 C           7.5588   -2.7366   19.3638 C.ar    1  UNL1       -0.0030
     30 C           8.5152   -2.2220   20.3984 C.ar    1  UNL1       -0.0003
     31 C           7.9961   -1.6935   21.7027 C.ar    1  UNL1       -0.0000
     32 C           6.5206   -1.6796   21.9724 C.ar    1  UNL1       -0.0003
     33 C           6.0015   -1.1511   23.2767 C.ar    1  UNL1       -0.0000
     34 C           4.5261   -1.1372   23.5464 C.ar    1  UNL1       -0.0000
     35 C           3.5697   -1.6518   22.5118 C.ar    1  UNL1       -0.0000
     36 C           4.0887   -2.1803   21.2075 C.ar    1  UNL1       -0.0003
     37 C           5.5642   -2.1942   20.9378 C.ar    1  UNL1       -0.0027
@<TRIPOS>UNITY_ATOM_ATTR
22 1
charge -1
@<TRIPOS>BOND
     1    27    26    1
     2    27    24    1
     3     1    24    1
     4     1     2    1
     5     2     3    1
     6     3     4    1
     7     4     5    1
     8     5     7    1
     9     7     8   ar
    10     8     9   ar
    11     9    10   ar
    12    10    13    1
    13    13    14    2
    14    13    15   am
    15    15    16    1
    16    16    17    1
    17    17    18    1
    18    18    21    1
    19    21    22   ar
    20    21    23   ar
    21    18    19    1
    22    19    20    1
    23    10    11   ar
    24    11    12   ar
    25     5     6    1
    26    27    28    1
    27    28    29   ar
    28    29    30   ar
    29    30    31   ar
    30    31    32   ar
    31    32    33   ar
    32    33    34   ar
    33    34    35   ar
    34    35    36   ar
    35    36    37   ar
    36     6     1    1
    37    37    28   ar
    38    12     7   ar
    39    37    32   ar
    40    20    15    1
    41    24    25    1
@<TRIPOS>MOLECULE
*****
 37 41 0 0 0
SMALL
GASTEIGER

@<TRIPOS>ATOM
      1 C           5.9591   -0.2324   18.7317 C.3     1  UNL1        0.0545
      2 C           5.5274   -0.5608   17.3332 C.3     1  UNL1        0.0157
      3 C           4.1079   -0.3225   16.9110 C.3     1  UNL1        0.0017
      4 C           3.1201    0.2443   17.8872 C.3     1  UNL1        0.0044
      5 C           3.5518    0.5727   19.2857 C.3     1  UNL1        0.0237
      6 C           4.9713    0.3344   19.7080 C.3     1  UNL1        0.0201
      7 C           2.5640    1.1395   20.2619 C.ar    1  UNL1       -0.0225
      8 C           2.8834    2.4035   21.0037 C.ar    1  UNL1       -0.0041
      9 C           1.8955    2.9702   21.9800 C.ar    1  UNL1        0.0042
     10 C           0.5883    2.2729   22.2144 C.ar    1  UNL1        0.0536
     11 C           0.2689    1.0089   21.4726 C.ar    1  UNL1        0.0042
     12 C           1.2567    0.4422   20.4964 C.ar    1  UNL1       -0.0041
     13 C          -0.3994    2.8397   23.1906 C.2     1  UNL1        0.2490
     14 O          -1.4093    3.8507   22.7343 O.2     1  UNL1       -0.2699
     15 N          -0.3775    2.3954   24.6232 N.am    1  UNL1       -0.2761
     16 C           0.6323    1.3845   25.0795 C.3     1  UNL1        0.0941
     17 C           0.6543    0.9402   26.5120 C.3     1  UNL1        0.0271
     18 C          -0.3335    1.5070   27.4883 C.3     1  UNL1        0.0399
     19 C          -1.3434    2.5180   27.0319 C.3     1  UNL1        0.0271
     20 C          -1.3653    2.9622   25.5994 C.3     1  UNL1        0.0941
     21 C          -0.3116    1.0627   28.9208 C.2     1  UNL1        0.0501
     22 O           0.4737    1.8403   29.9352 O.co2   1  UNL1       -0.5492
     23 O          -1.0748   -0.1590   29.3390 O.co2   1  UNL1       -0.5492
     24 N           7.3785   -0.4707   19.1539 N.3     1  UNL1       -0.2962
     25 H           7.9481   -0.4292   18.3088 H       1  UNL1        0.1235
     26 C           9.0330   -2.4381   19.5313 C.3     1  UNL1        0.0220
     27 C           7.7471   -1.7405   19.8625 C.3     1  UNL1        0.0768
     28 C           6.8297   -2.3126   20.9022 C.ar    1  UNL1       -0.0080
     29 C           6.9985   -1.9311   22.3430 C.ar    1  UNL1       -0.0030
     30 C           6.0811   -2.5032   23.3828 C.ar    1  UNL1       -0.0003
     31 C           4.9949   -3.4567   22.9818 C.ar    1  UNL1       -0.0000
     32 C           4.8261   -3.8382   21.5409 C.ar    1  UNL1       -0.0003
     33 C           3.7399   -4.7918   21.1399 C.ar    1  UNL1       -0.0000
     34 C           3.5710   -5.1732   19.6991 C.ar    1  UNL1       -0.0000
     35 C           4.4884   -4.6011   18.6593 C.ar    1  UNL1       -0.0000
     36 C           5.5746   -3.6476   19.0604 C.ar    1  UNL1       -0.0003
     37 C           5.7435   -3.2661   20.5011 C.ar    1  UNL1       -0.0027
@<TRIPOS>UNITY_ATOM_ATTR
22 1
charge -1
@<TRIPOS>BOND
     1    27    26    1
     2    27    24    1
     3     1    24    1
     4     1     2    1
     5     2     3    1
     6     3     4    1
     7     4     5    1
     8     5     7    1
     9     7     8   ar
    10     8     9   ar
    11     9    10   ar
    12    10    13    1
    13    13    14    2
    14    13    15   am
    15    15    16    1
    16    16    17    1
    17    17    18    1
    18    18    21    1
    19    21    22   ar
    20    21    23   ar
    21    18    19    1
    22    19    20    1
    23    10    11   ar
    24    11    12   ar
    25     5     6    1
    26    27    28    1
    27    28    29   ar
    28    29    30   ar
    29    30    31   ar
    30    31    32   ar
    31    32    33   ar
    32    33    34   ar
    33    34    35   ar
    34    35    36   ar
    35    36    37   ar
    36     6     1    1
    37    37    28   ar
    38    12     7   ar
    39    37    32   ar
    40    20    15    1
    41    24    25    1
