@<TRIPOS>MOLECULE
*****
 26 29 0 0 0
SMALL
GASTEIGER

@<TRIPOS>ATOM
      1 N          -7.3431  -19.0292   20.9896 N.am    1  UNL1       -0.2707
      2 C          -6.0934  -19.8586   21.0041 C.2     1  UNL1        0.2686
      3 O          -6.1683  -21.3326   20.7363 O.2     1  UNL1       -0.2682
      4 C          -4.7687  -19.2140   21.2863 C.ar    1  UNL1        0.1535
      5 C          -3.7305  -18.8494   20.2669 C.ar    1  UNL1        0.1012
      6 N          -2.5698  -18.2309   20.9881 N.ar    1  UNL1       -0.3057
      7 C          -1.3095  -17.7198   20.3552 C.3     1  UNL1        0.1321
      8 C          -2.8906  -18.2133   22.4533 C.ar    1  UNL1        0.1787
      9 N          -4.2495  -18.8209   22.6376 N.ar    1  UNL1       -0.2192
     10 C          -7.2682  -17.5552   21.2574 C.3     1  UNL1        0.0941
     11 C          -8.2720  -15.2526   27.3686 C.3     1  UNL1        0.0896
     12 N          -8.0441  -15.7753   25.9813 N.3     1  UNL1       -0.2715
     13 C          -6.8225  -15.5450   25.1418 C.3     1  UNL1        0.0722
     14 C          -7.0211  -16.2475   23.8315 C.3     1  UNL1        0.0191
     15 C          -8.3656  -16.9120   23.8610 C.3     1  UNL1        0.0191
     16 C          -8.9979  -16.6202   25.1897 C.3     1  UNL1        0.0722
     17 C          -7.4960  -17.0325   22.6447 C.3     1  UNL1        0.0226
     18 C          -8.6678  -19.6738   20.7074 C.3     1  UNL1        0.1205
     19 C          -9.8934  -19.2239   21.4461 C.ar    1  UNL1       -0.0000
     20 C         -10.1743  -19.7490   22.8227 C.ar    1  UNL1       -0.0016
     21 C         -11.3999  -19.2991   23.5615 C.ar    1  UNL1        0.0134
     22 C         -12.3445  -18.3241   22.9235 C.ar    1  UNL1        0.0850
     23 CL        -13.5700  -17.8742   23.6621 Cl      1  UNL1       -0.0799
     24 C         -12.0635  -17.7989   21.5467 C.ar    1  UNL1        0.1503
     25 F         -13.0081  -16.8239   20.9087 F       1  UNL1       -0.2033
     26 C         -10.8380  -18.2488   20.8081 C.ar    1  UNL1        0.0279
@<TRIPOS>BOND
     1    11    12    1
     2    12    13    1
     3    14    13    1
     4    14    15    1
     5    15    16    1
     6    15    17    1
     7    17    10    1
     8    10     1    1
     9     1    18    1
    10    18    19    1
    11    19    20   ar
    12    20    21   ar
    13    21    22   ar
    14    22    23    1
    15    22    24   ar
    16    24    25    1
    17    24    26   ar
    18     1     2   am
    19     2     3    2
    20     2     4    1
    21     4     5   ar
    22     5     6   ar
    23     6     7    1
    24     6     8   ar
    25     8     9   ar
    26    16    12    1
    27    26    19   ar
    28     9     4   ar
    29    17    14    1
@<TRIPOS>MOLECULE
*****
 26 29 0 0 0
SMALL
GASTEIGER

@<TRIPOS>ATOM
      1 N          -8.0594  -18.7055   21.8996 N.am    1  UNL1       -0.2707
      2 C          -9.4865  -19.0688   21.6137 C.2     1  UNL1        0.2686
      3 O          -9.8860  -20.5104   21.5046 O.2     1  UNL1       -0.2682
      4 C         -10.5139  -17.9903   21.4370 C.ar    1  UNL1        0.1535
      5 C         -10.9940  -17.4358   20.1286 C.ar    1  UNL1        0.1012
      6 N         -12.0185  -16.3798   20.4206 N.ar    1  UNL1       -0.3057
      7 C         -12.7598  -15.5650   19.4024 C.3     1  UNL1        0.1321
      8 C         -12.1716  -16.2817   21.9096 C.ar    1  UNL1        0.1787
      9 N         -11.2417  -17.2770   22.5377 N.ar    1  UNL1       -0.2192
     10 C          -7.6599  -17.2639   22.0088 C.3     1  UNL1        0.0941
     11 C          -6.8453  -14.5027   27.9560 C.3     1  UNL1        0.0896
     12 N          -7.0302  -15.1295   26.6059 N.3     1  UNL1       -0.2715
     13 C          -5.9610  -15.3307   25.5732 C.3     1  UNL1        0.0722
     14 C          -6.5868  -15.9908   24.3804 C.3     1  UNL1        0.0191
     15 C          -8.0428  -16.1976   24.6758 C.3     1  UNL1        0.0191
     16 C          -8.3169  -15.6653   26.0513 C.3     1  UNL1        0.0722
     17 C          -7.4750  -16.6370   23.3589 C.3     1  UNL1        0.0226
     18 C          -7.0320  -19.7840   22.0763 C.3     1  UNL1        0.1205
     19 C          -5.6239  -19.5623   21.6089 C.ar    1  UNL1       -0.0000
     20 C          -5.2326  -19.9273   20.2076 C.ar    1  UNL1       -0.0016
     21 C          -3.8246  -19.7056   19.7402 C.ar    1  UNL1        0.0134
     22 C          -2.8080  -19.1189   20.6741 C.ar    1  UNL1        0.0850
     23 CL         -1.4000  -18.8972   20.2068 Cl      1  UNL1       -0.0799
     24 C          -3.1993  -18.7538   22.0755 C.ar    1  UNL1        0.1503
     25 F          -2.1827  -18.1671   23.0094 F       1  UNL1       -0.2033
     26 C          -4.6073  -18.9755   22.5428 C.ar    1  UNL1        0.0279
@<TRIPOS>BOND
     1    11    12    1
     2    12    13    1
     3    14    13    1
     4    14    15    1
     5    15    16    1
     6    15    17    1
     7    17    10    1
     8    10     1    1
     9     1    18    1
    10    18    19    1
    11    19    20   ar
    12    20    21   ar
    13    21    22   ar
    14    22    23    1
    15    22    24   ar
    16    24    25    1
    17    24    26   ar
    18     1     2   am
    19     2     3    2
    20     2     4    1
    21     4     5   ar
    22     5     6   ar
    23     6     7    1
    24     6     8   ar
    25     8     9   ar
    26    16    12    1
    27    26    19   ar
    28     9     4   ar
    29    17    14    1
@<TRIPOS>MOLECULE
*****
 26 29 0 0 0
SMALL
GASTEIGER

@<TRIPOS>ATOM
      1 N          -8.9171  -18.5599   20.8635 N.am    1  UNL1       -0.2707
      2 C         -10.1557  -19.2969   21.2795 C.2     1  UNL1        0.2686
      3 O         -10.3191  -20.7463   20.9295 O.2     1  UNL1       -0.2682
      4 C         -11.2307  -18.5844   22.0454 C.ar    1  UNL1        0.1535
      5 C         -11.8973  -19.0777   23.2953 C.ar    1  UNL1        0.1012
      6 N         -12.9064  -18.0517   23.7182 N.ar    1  UNL1       -0.3057
      7 C         -13.8014  -18.1379   24.9190 C.3     1  UNL1        0.1321
      8 C         -12.8636  -16.9244   22.7297 C.ar    1  UNL1        0.1787
      9 N         -11.8279  -17.2536   21.6958 N.ar    1  UNL1       -0.2192
     10 C          -8.7537  -17.1105   21.2134 C.3     1  UNL1        0.0941
     11 C          -6.8204  -15.3766   27.2890 C.3     1  UNL1        0.0896
     12 N          -7.2593  -15.7702   25.9097 N.3     1  UNL1       -0.2715
     13 C          -8.6054  -16.3159   25.5349 C.3     1  UNL1        0.0722
     14 C          -8.6072  -16.5702   24.0566 C.3     1  UNL1        0.0191
     15 C          -7.2622  -16.1818   23.5177 C.3     1  UNL1        0.0191
     16 C          -6.4292  -15.6874   24.6631 C.3     1  UNL1        0.0722
     17 C          -8.3148  -16.7169   22.5927 C.3     1  UNL1        0.0226
     18 C          -7.8421  -19.2724   20.0976 C.3     1  UNL1        0.1205
     19 C          -6.4215  -19.2231   20.5768 C.ar    1  UNL1       -0.0000
     20 C          -6.1167  -19.3801   22.0371 C.ar    1  UNL1       -0.0016
     21 C          -4.6961  -19.3308   22.5163 C.ar    1  UNL1        0.0134
     22 C          -3.5804  -19.1245   21.5352 C.ar    1  UNL1        0.0850
     23 CL         -2.1599  -19.0752   22.0144 Cl      1  UNL1       -0.0799
     24 C          -3.8852  -18.9675   20.0749 C.ar    1  UNL1        0.1503
     25 F          -2.7695  -18.7612   19.0938 F       1  UNL1       -0.2033
     26 C          -5.3057  -19.0168   19.5957 C.ar    1  UNL1        0.0279
@<TRIPOS>BOND
     1    11    12    1
     2    12    13    1
     3    14    13    1
     4    14    15    1
     5    15    16    1
     6    15    17    1
     7    17    10    1
     8    10     1    1
     9     1    18    1
    10    18    19    1
    11    19    20   ar
    12    20    21   ar
    13    21    22   ar
    14    22    23    1
    15    22    24   ar
    16    24    25    1
    17    24    26   ar
    18     1     2   am
    19     2     3    2
    20     2     4    1
    21     4     5   ar
    22     5     6   ar
    23     6     7    1
    24     6     8   ar
    25     8     9   ar
    26    16    12    1
    27    26    19   ar
    28     9     4   ar
    29    17    14    1
@<TRIPOS>MOLECULE
*****
 26 29 0 0 0
SMALL
GASTEIGER

@<TRIPOS>ATOM
      1 N          -6.1690  -18.6215   22.1390 N.am    1  UNL1       -0.2707
      2 C          -7.0555  -19.6666   21.5290 C.2     1  UNL1        0.2686
      3 O          -6.5919  -21.0910   21.4514 O.2     1  UNL1       -0.2682
      4 C          -8.4054  -19.2871   20.9965 C.ar    1  UNL1        0.1535
      5 C          -9.6052  -18.9178   21.8177 C.ar    1  UNL1        0.1012
      6 N         -10.7339  -18.6128   20.8781 N.ar    1  UNL1       -0.3057
      7 C         -12.1212  -18.1995   21.2714 C.3     1  UNL1        0.1321
      8 C         -10.2318  -18.7935   19.4763 C.ar    1  UNL1        0.1787
      9 N          -8.7928  -19.2102   19.5495 N.ar    1  UNL1       -0.2192
     10 C          -6.6325  -17.1971   22.2166 C.3     1  UNL1        0.0941
     11 C          -8.5024  -14.6426   28.0161 C.3     1  UNL1        0.0896
     12 N          -8.0779  -15.2225   26.6995 N.3     1  UNL1       -0.2715
     13 C          -6.6651  -15.4654   26.2574 C.3     1  UNL1        0.0722
     14 C          -6.7057  -16.0543   24.8785 C.3     1  UNL1        0.0191
     15 C          -8.1435  -16.1755   24.4683 C.3     1  UNL1        0.0191
     16 C          -8.9915  -15.6614   25.5938 C.3     1  UNL1        0.0722
     17 C          -7.0569  -16.6172   23.5332 C.3     1  UNL1        0.0226
     18 C          -4.8190  -19.0010   22.6715 C.3     1  UNL1        0.1205
     19 C          -3.5787  -18.5760   21.9426 C.ar    1  UNL1       -0.0000
     20 C          -2.9069  -19.5210   20.9911 C.ar    1  UNL1       -0.0016
     21 C          -1.6666  -19.0960   20.2622 C.ar    1  UNL1        0.0134
     22 C          -1.0982  -17.7259   20.4850 C.ar    1  UNL1        0.0850
     23 CL          0.1420  -17.3008   19.7562 Cl      1  UNL1       -0.0799
     24 C          -1.7701  -16.7807   21.4366 C.ar    1  UNL1        0.1503
     25 F          -1.2017  -15.4106   21.6593 F       1  UNL1       -0.2033
     26 C          -3.0103  -17.2058   22.1654 C.ar    1  UNL1        0.0279
@<TRIPOS>BOND
     1    11    12    1
     2    12    13    1
     3    14    13    1
     4    14    15    1
     5    15    16    1
     6    15    17    1
     7    17    10    1
     8    10     1    1
     9     1    18    1
    10    18    19    1
    11    19    20   ar
    12    20    21   ar
    13    21    22   ar
    14    22    23    1
    15    22    24   ar
    16    24    25    1
    17    24    26   ar
    18     1     2   am
    19     2     3    2
    20     2     4    1
    21     4     5   ar
    22     5     6   ar
    23     6     7    1
    24     6     8   ar
    25     8     9   ar
    26    16    12    1
    27    26    19   ar
    28     9     4   ar
    29    17    14    1
@<TRIPOS>MOLECULE
*****
 26 29 0 0 0
SMALL
GASTEIGER

@<TRIPOS>ATOM
      1 N         -15.2416   -8.0832   17.0933 N.am    1  UNL1       -0.2707
      2 C         -15.7330   -9.2141   17.9475 C.2     1  UNL1        0.2686
      3 O         -14.8118  -10.3451   18.2971 O.2     1  UNL1       -0.2682
      4 C         -17.1456   -9.2140   18.4521 C.ar    1  UNL1        0.1535
      5 C         -17.6385   -8.5302   19.6928 C.ar    1  UNL1        0.1012
      6 N         -19.1108   -8.7912   19.8121 N.ar    1  UNL1       -0.3057
      7 C         -20.0085   -8.2943   20.9063 C.3     1  UNL1        0.1321
      8 C         -19.5277   -9.6363   18.6451 C.ar    1  UNL1        0.1787
      9 N         -18.3132   -9.8976   17.8046 N.ar    1  UNL1       -0.2192
     10 C         -16.1628   -6.9522   16.7437 C.3     1  UNL1        0.0941
     11 C         -15.6361   -1.1682   19.8940 C.3     1  UNL1        0.0896
     12 N         -15.7557   -2.4813   19.1788 N.3     1  UNL1       -0.2715
     13 C         -15.4896   -2.7192   17.7218 C.3     1  UNL1        0.0722
     14 C         -15.7318   -4.1720   17.4376 C.3     1  UNL1        0.0191
     15 C         -16.1475   -4.8320   18.7188 C.3     1  UNL1        0.0191
     16 C         -16.1623   -3.7871   19.7950 C.3     1  UNL1        0.0722
     17 C         -16.0432   -5.6392   17.4588 C.3     1  UNL1        0.0226
     18 C         -13.8290   -8.0834   16.5887 C.3     1  UNL1        0.1205
     19 C         -12.8179   -7.1522   17.1894 C.ar    1  UNL1       -0.0000
     20 C         -12.8641   -6.8397   18.6557 C.ar    1  UNL1       -0.0016
     21 C         -11.8531   -5.9086   19.2564 C.ar    1  UNL1        0.0134
     22 C         -10.7958   -5.2900   18.3907 C.ar    1  UNL1        0.0850
     23 CL         -9.7847   -4.3589   18.9913 Cl      1  UNL1       -0.0799
     24 C         -10.7496   -5.6025   16.9243 C.ar    1  UNL1        0.1503
     25 F          -9.6923   -4.9839   16.0585 F       1  UNL1       -0.2033
     26 C         -11.7606   -6.5336   16.3237 C.ar    1  UNL1        0.0279
@<TRIPOS>BOND
     1    11    12    1
     2    12    13    1
     3    14    13    1
     4    14    15    1
     5    15    16    1
     6    15    17    1
     7    17    10    1
     8    10     1    1
     9     1    18    1
    10    18    19    1
    11    19    20   ar
    12    20    21   ar
    13    21    22   ar
    14    22    23    1
    15    22    24   ar
    16    24    25    1
    17    24    26   ar
    18     1     2   am
    19     2     3    2
    20     2     4    1
    21     4     5   ar
    22     5     6   ar
    23     6     7    1
    24     6     8   ar
    25     8     9   ar
    26    16    12    1
    27    26    19   ar
    28     9     4   ar
    29    17    14    1
@<TRIPOS>MOLECULE
*****
 26 29 0 0 0
SMALL
GASTEIGER

@<TRIPOS>ATOM
      1 N         -13.0962   -7.1747   18.3940 N.am    1  UNL1       -0.2707
      2 C         -12.2389   -6.9960   17.1762 C.2     1  UNL1        0.2686
      3 O         -12.2912   -8.0050   16.0675 O.2     1  UNL1       -0.2682
      4 C         -11.3292   -5.8083   17.0670 C.ar    1  UNL1        0.1535
      5 C         -11.6896   -4.4719   16.4890 C.ar    1  UNL1        0.1012
      6 N         -10.4826   -3.5862   16.5815 N.ar    1  UNL1       -0.3057
      7 C         -10.3970   -2.1615   16.1198 C.3     1  UNL1        0.1321
      8 C          -9.3763   -4.3751   17.2168 C.ar    1  UNL1        0.1787
      9 N          -9.8995   -5.7484   17.5168 N.ar    1  UNL1       -0.2192
     10 C         -13.0439   -6.1657   19.5027 C.3     1  UNL1        0.0941
     11 C         -17.5808   -1.3730   19.8245 C.3     1  UNL1        0.0896
     12 N         -16.5508   -2.4610   19.7515 N.3     1  UNL1       -0.2715
     13 C         -15.0641   -2.2663   19.7073 C.3     1  UNL1        0.0722
     14 C         -14.4212   -3.6197   19.6383 C.3     1  UNL1        0.0191
     15 C         -15.5104   -4.6510   19.6398 C.3     1  UNL1        0.0191
     16 C         -16.8267   -3.9349   19.7098 C.3     1  UNL1        0.0722
     17 C         -14.0738   -5.0777   19.5757 C.3     1  UNL1        0.0226
     18 C         -14.0059   -8.3624   18.5031 C.3     1  UNL1        0.1205
     19 C         -15.4929   -8.1768   18.4362 C.ar    1  UNL1       -0.0000
     20 C         -16.1574   -7.9146   17.1173 C.ar    1  UNL1       -0.0016
     21 C         -17.6444   -7.7291   17.0504 C.ar    1  UNL1        0.0134
     22 C         -18.4669   -7.8058   18.3024 C.ar    1  UNL1        0.0850
     23 CL        -19.9538   -7.6202   18.2356 Cl      1  UNL1       -0.0799
     24 C         -17.8023   -8.0680   19.6214 C.ar    1  UNL1        0.1503
     25 F         -18.6247   -8.1447   20.8735 F       1  UNL1       -0.2033
     26 C         -16.3153   -8.2535   19.6883 C.ar    1  UNL1        0.0279
@<TRIPOS>BOND
     1    11    12    1
     2    12    13    1
     3    14    13    1
     4    14    15    1
     5    15    16    1
     6    15    17    1
     7    17    10    1
     8    10     1    1
     9     1    18    1
    10    18    19    1
    11    19    20   ar
    12    20    21   ar
    13    21    22   ar
    14    22    23    1
    15    22    24   ar
    16    24    25    1
    17    24    26   ar
    18     1     2   am
    19     2     3    2
    20     2     4    1
    21     4     5   ar
    22     5     6   ar
    23     6     7    1
    24     6     8   ar
    25     8     9   ar
    26    16    12    1
    27    26    19   ar
    28     9     4   ar
    29    17    14    1
@<TRIPOS>MOLECULE
*****
 26 29 0 0 0
SMALL
GASTEIGER

@<TRIPOS>ATOM
      1 N         -13.2181   -2.5561   17.2532 N.am    1  UNL1       -0.2707
      2 C         -13.2576   -1.3916   18.1979 C.2     1  UNL1        0.2686
      3 O         -11.9841   -0.7092   18.6008 O.2     1  UNL1       -0.2682
      4 C         -14.5707   -0.9096   18.7397 C.ar    1  UNL1        0.1535
      5 C         -15.4132    0.1886   18.1619 C.ar    1  UNL1        0.1012
      6 N         -16.6349    0.3357   19.0195 N.ar    1  UNL1       -0.3057
      7 C         -17.7486    1.3178   18.8066 C.3     1  UNL1        0.1321
      8 C         -16.5475   -0.6716   20.1274 C.ar    1  UNL1        0.1787
      9 N         -15.2718   -1.4413   19.9545 N.ar    1  UNL1       -0.2192
     10 C         -14.4916   -3.2386   16.8503 C.3     1  UNL1        0.0941
     11 C         -16.4853   -8.6665   20.0472 C.3     1  UNL1        0.0896
     12 N         -16.0327   -7.4343   19.3215 N.3     1  UNL1       -0.2715
     13 C         -16.6977   -6.0904   19.3660 C.3     1  UNL1        0.0722
     14 C         -15.9117   -5.1551   18.4958 C.3     1  UNL1        0.0191
     15 C         -14.7608   -5.9208   17.9134 C.3     1  UNL1        0.0191
     16 C         -14.8356   -7.3294   18.4237 C.3     1  UNL1        0.0722
     17 C         -14.9442   -4.4708   17.5760 C.3     1  UNL1        0.0226
     18 C         -11.9051   -3.0381   16.7113 C.3     1  UNL1        0.1205
     19 C         -11.2377   -4.2366   17.3184 C.ar    1  UNL1       -0.0000
     20 C         -10.3663   -4.0769   18.5288 C.ar    1  UNL1       -0.0016
     21 C          -9.6989   -5.2753   19.1359 C.ar    1  UNL1        0.0134
     22 C          -9.9030   -6.6334   18.5325 C.ar    1  UNL1        0.0850
     23 CL         -9.2357   -7.8318   19.1395 Cl      1  UNL1       -0.0799
     24 C         -10.7745   -6.7930   17.3221 C.ar    1  UNL1        0.1503
     25 F         -10.9786   -8.1510   16.7187 F       1  UNL1       -0.2033
     26 C         -11.4418   -5.5946   16.7151 C.ar    1  UNL1        0.0279
@<TRIPOS>BOND
     1    11    12    1
     2    12    13    1
     3    14    13    1
     4    14    15    1
     5    15    16    1
     6    15    17    1
     7    17    10    1
     8    10     1    1
     9     1    18    1
    10    18    19    1
    11    19    20   ar
    12    20    21   ar
    13    21    22   ar
    14    22    23    1
    15    22    24   ar
    16    24    25    1
    17    24    26   ar
    18     1     2   am
    19     2     3    2
    20     2     4    1
    21     4     5   ar
    22     5     6   ar
    23     6     7    1
    24     6     8   ar
    25     8     9   ar
    26    16    12    1
    27    26    19   ar
    28     9     4   ar
    29    17    14    1
@<TRIPOS>MOLECULE
*****
 26 29 0 0 0
SMALL
GASTEIGER

@<TRIPOS>ATOM
      1 N          -6.9075  -17.2962   23.2292 N.am    1  UNL1       -0.2707
      2 C          -7.6522  -16.0455   22.8670 C.2     1  UNL1        0.2686
      3 O          -6.9762  -14.7112   22.9786 O.2     1  UNL1       -0.2682
      4 C          -9.0730  -16.1293   22.3933 C.ar    1  UNL1        0.1535
      5 C         -10.2470  -16.5922   23.2041 C.ar    1  UNL1        0.1012
      6 N         -11.4687  -16.5138   22.3375 N.ar    1  UNL1       -0.3057
      7 C         -12.8644  -16.8822   22.7457 C.3     1  UNL1        0.1321
      8 C         -11.0498  -16.0024   20.9910 C.ar    1  UNL1        0.1787
      9 N          -9.5693  -15.7648   21.0255 N.ar    1  UNL1       -0.2192
     10 C          -7.5834  -18.6306   23.1177 C.3     1  UNL1        0.0941
     11 C          -9.2295  -21.0138   17.1790 C.3     1  UNL1        0.0896
     12 N          -8.8558  -20.4728   18.5272 N.3     1  UNL1       -0.2715
     13 C          -9.7585  -19.7129   19.4535 C.3     1  UNL1        0.0722
     14 C          -8.9744  -19.3671   20.6846 C.3     1  UNL1        0.0191
     15 C          -7.5871  -19.9132   20.5193 C.3     1  UNL1        0.0191
     16 C          -7.5138  -20.5966   19.1859 C.3     1  UNL1        0.0722
     17 C          -7.9571  -19.1716   21.7695 C.3     1  UNL1        0.0226
     18 C          -5.4867  -17.2125   23.7030 C.3     1  UNL1        0.1205
     19 C          -4.3638  -17.5619   22.7718 C.ar    1  UNL1       -0.0000
     20 C          -4.3078  -18.9219   22.1415 C.ar    1  UNL1       -0.0016
     21 C          -3.1848  -19.2714   21.2103 C.ar    1  UNL1        0.0134
     22 C          -2.1180  -18.2608   20.9095 C.ar    1  UNL1        0.0850
     23 CL         -0.9951  -18.6102   19.9783 Cl      1  UNL1       -0.0799
     24 C          -2.1740  -16.9007   21.5398 C.ar    1  UNL1        0.1503
     25 F          -1.1072  -15.8901   21.2389 F       1  UNL1       -0.2033
     26 C          -3.2969  -16.5513   22.4709 C.ar    1  UNL1        0.0279
@<TRIPOS>BOND
     1    11    12    1
     2    12    13    1
     3    14    13    1
     4    14    15    1
     5    15    16    1
     6    15    17    1
     7    17    10    1
     8    10     1    1
     9     1    18    1
    10    18    19    1
    11    19    20   ar
    12    20    21   ar
    13    21    22   ar
    14    22    23    1
    15    22    24   ar
    16    24    25    1
    17    24    26   ar
    18     1     2   am
    19     2     3    2
    20     2     4    1
    21     4     5   ar
    22     5     6   ar
    23     6     7    1
    24     6     8   ar
    25     8     9   ar
    26    16    12    1
    27    26    19   ar
    28     9     4   ar
    29    17    14    1
@<TRIPOS>MOLECULE
*****
 26 29 0 0 0
SMALL
GASTEIGER

@<TRIPOS>ATOM
      1 N         -14.2188   -4.1164   18.3440 N.am    1  UNL1       -0.2707
      2 C         -12.8969   -3.9475   17.6555 C.2     1  UNL1        0.2686
      3 O         -12.7727   -3.0122   16.4894 O.2     1  UNL1       -0.2682
      4 C         -11.6992   -4.7139   18.1331 C.ar    1  UNL1        0.1535
      5 C         -11.4205   -6.1650   17.8750 C.ar    1  UNL1        0.1012
      6 N         -10.1190   -6.5116   18.5351 N.ar    1  UNL1       -0.3057
      7 C          -9.4590   -7.8587   18.5300 C.3     1  UNL1        0.1321
      8 C          -9.5932   -5.2747   19.2012 C.ar    1  UNL1        0.1787
      9 N         -10.5698   -4.1637   18.9528 N.ar    1  UNL1       -0.2192
     10 C         -14.3430   -5.0516   19.5101 C.3     1  UNL1        0.0941
     11 C         -16.8207  -11.1138   18.6336 C.3     1  UNL1        0.0896
     12 N         -16.2582   -9.7376   18.8326 N.3     1  UNL1       -0.2715
     13 C         -16.8549   -8.6557   19.6833 C.3     1  UNL1        0.0722
     14 C         -15.9657   -7.4510   19.5923 C.3     1  UNL1        0.0191
     15 C         -14.8195   -7.7884   18.6854 C.3     1  UNL1        0.0191
     16 C         -15.0003   -9.2016   18.2159 C.3     1  UNL1        0.0722
     17 C         -14.9055   -6.4278   19.3112 C.3     1  UNL1        0.0226
     18 C         -15.4166   -3.3500   17.8664 C.3     1  UNL1        0.1205
     19 C         -15.8871   -2.1446   18.6251 C.ar    1  UNL1       -0.0000
     20 C         -17.1747   -2.1972   19.3928 C.ar    1  UNL1       -0.0016
     21 C         -17.6453   -0.9918   20.1516 C.ar    1  UNL1        0.0134
     22 C         -16.8282    0.2662   20.1426 C.ar    1  UNL1        0.0850
     23 CL        -17.2987    1.4715   20.9013 Cl      1  UNL1       -0.0799
     24 C         -15.5406    0.3187   19.3749 C.ar    1  UNL1        0.1503
     25 F         -14.7235    1.5766   19.3659 F       1  UNL1       -0.2033
     26 C         -15.0701   -0.8867   18.6162 C.ar    1  UNL1        0.0279
@<TRIPOS>BOND
     1    11    12    1
     2    12    13    1
     3    14    13    1
     4    14    15    1
     5    15    16    1
     6    15    17    1
     7    17    10    1
     8    10     1    1
     9     1    18    1
    10    18    19    1
    11    19    20   ar
    12    20    21   ar
    13    21    22   ar
    14    22    23    1
    15    22    24   ar
    16    24    25    1
    17    24    26   ar
    18     1     2   am
    19     2     3    2
    20     2     4    1
    21     4     5   ar
    22     5     6   ar
    23     6     7    1
    24     6     8   ar
    25     8     9   ar
    26    16    12    1
    27    26    19   ar
    28     9     4   ar
    29    17    14    1
