@<TRIPOS>MOLECULE
*****
 20 21 0 0 0
SMALL
GASTEIGER

@<TRIPOS>ATOM
      1 C          -2.2111  -18.5942   22.0020 C.2     1  UNL1        0.4049
      2 O          -2.0098  -18.0096   23.3686 O.2     1  UNL1       -0.2262
      3 N          -3.5983  -18.8583   21.4962 N.am    1  UNL1       -0.2454
      4 C          -3.7996  -19.4430   20.1296 C.3     1  UNL1        0.1011
      5 C          -5.1868  -19.7071   19.6237 C.3     1  UNL1        0.0443
      6 C          -6.3727  -19.3866   20.4844 C.2     1  UNL1       -0.0326
      7 C          -7.7599  -19.6507   19.9786 C.2     1  UNL1        0.0412
      8 C          -6.1714  -18.8020   21.8510 C.3     1  UNL1        0.0443
      9 C          -4.7842  -18.5379   22.3569 C.3     1  UNL1        0.1011
     10 C          -8.9458  -19.3302   20.8393 C.1     1  UNL1       -0.0583
     11 C         -10.1317  -19.0097   21.7002 C.1     1  UNL1       -0.0405
     12 C         -11.3176  -18.6892   22.5609 C.ar    1  UNL1        0.1228
     13 C         -12.4688  -17.9131   21.9929 C.ar    1  UNL1        0.0276
     14 C         -13.6547  -17.5926   22.8537 C.ar    1  UNL1        0.0038
     15 C         -13.6895  -18.0482   24.2824 C.ar    1  UNL1        0.0207
     16 C         -12.5384  -18.8242   24.8504 C.ar    1  UNL1        0.0996
     17 N         -11.3524  -19.1448   23.9896 N.ar    1  UNL1       -0.2356
     18 O          -1.0252  -18.9147   21.1413 O.3     1  UNL1       -0.4345
     19 C          -1.1043  -17.6717   18.8612 C.3     1  UNL1        0.0513
     20 C          -0.4747  -17.8784   20.2069 C.3     1  UNL1        0.2102
@<TRIPOS>BOND
     1    19    20    1
     2    20    18    1
     3    18     1    1
     4     1     2    2
     5     1     3   am
     6     3     4    1
     7     4     5    1
     8     5     6    1
     9     6     7    2
    10     7    10    1
    11    10    11    3
    12    11    12    1
    13    12    13   ar
    14    13    14   ar
    15    14    15   ar
    16    15    16   ar
    17    16    17   ar
    18     6     8    1
    19     8     9    1
    20     9     3    1
    21    17    12   ar
@<TRIPOS>MOLECULE
*****
 20 21 0 0 0
SMALL
GASTEIGER

@<TRIPOS>ATOM
      1 C          -2.3959  -19.4943   21.1643 C.2     1  UNL1        0.4049
      2 O          -2.8163  -20.7381   20.4390 O.2     1  UNL1       -0.2262
      3 N          -3.4230  -18.6416   21.8484 N.am    1  UNL1       -0.2454
      4 C          -3.0026  -17.3978   22.5737 C.3     1  UNL1        0.1011
      5 C          -4.0297  -16.5450   23.2577 C.3     1  UNL1        0.0443
      6 C          -5.4772  -16.9361   23.2164 C.2     1  UNL1       -0.0326
      7 C          -6.5043  -16.0833   23.9004 C.2     1  UNL1        0.0412
      8 C          -5.8976  -18.1799   22.4911 C.3     1  UNL1        0.0443
      9 C          -4.8705  -19.0326   21.8070 C.3     1  UNL1        0.1011
     10 C          -7.9518  -16.4744   23.8591 C.1     1  UNL1       -0.0583
     11 C          -9.3994  -16.8655   23.8178 C.1     1  UNL1       -0.0405
     12 C         -10.8469  -17.2565   23.7765 C.ar    1  UNL1        0.1228
     13 C         -11.7974  -16.5203   22.8794 C.ar    1  UNL1        0.0276
     14 C         -13.2449  -16.9114   22.8381 C.ar    1  UNL1        0.0038
     15 C         -13.7420  -18.0386   23.6939 C.ar    1  UNL1        0.0207
     16 C         -12.7916  -18.7747   24.5909 C.ar    1  UNL1        0.0996
     17 N         -11.3440  -18.3837   24.6323 N.ar    1  UNL1       -0.2356
     18 O          -0.9484  -19.1033   21.2057 O.3     1  UNL1       -0.4345
     19 C          -1.2595  -17.7146   19.0320 C.3     1  UNL1        0.0513
     20 C          -0.3900  -18.1829   20.1611 C.3     1  UNL1        0.2102
@<TRIPOS>BOND
     1    19    20    1
     2    20    18    1
     3    18     1    1
     4     1     2    2
     5     1     3   am
     6     3     4    1
     7     4     5    1
     8     5     6    1
     9     6     7    2
    10     7    10    1
    11    10    11    3
    12    11    12    1
    13    12    13   ar
    14    13    14   ar
    15    14    15   ar
    16    15    16   ar
    17    16    17   ar
    18     6     8    1
    19     8     9    1
    20     9     3    1
    21    17    12   ar
@<TRIPOS>MOLECULE
*****
 20 21 0 0 0
SMALL
GASTEIGER

@<TRIPOS>ATOM
      1 C           2.7574  -14.0161   28.1276 C.2     1  UNL1        0.4049
      2 O           1.5227  -13.6163   27.3757 O.2     1  UNL1       -0.2262
      3 N           3.9717  -13.1359   28.0980 N.am    1  UNL1       -0.2454
      4 C           5.2064  -13.5358   28.8499 C.3     1  UNL1        0.1011
      5 C           6.4206  -12.6555   28.8202 C.3     1  UNL1        0.0443
      6 C           6.4001  -11.3755   28.0386 C.2     1  UNL1       -0.0326
      7 C           7.6143  -10.4953   28.0089 C.2     1  UNL1        0.0412
      8 C           5.1654  -10.9756   27.2867 C.3     1  UNL1        0.0443
      9 C           3.9511  -11.8558   27.3164 C.3     1  UNL1        0.1011
     10 C           7.5938   -9.2152   27.2273 C.1     1  UNL1       -0.0583
     11 C           7.5733   -7.9350   26.4457 C.1     1  UNL1       -0.0405
     12 C           7.5528   -6.6550   25.6641 C.ar    1  UNL1        0.1228
     13 C           8.1255   -6.6131   24.2783 C.ar    1  UNL1        0.0276
     14 C           8.1050   -5.3330   23.4967 C.ar    1  UNL1        0.0038
     15 C           7.5117   -4.0948   24.1008 C.ar    1  UNL1        0.0207
     16 C           6.9391   -4.1367   25.4865 C.ar    1  UNL1        0.0996
     17 N           6.9596   -5.4168   26.2682 N.ar    1  UNL1       -0.2356
     18 O           2.7780  -15.2962   28.9092 O.3     1  UNL1       -0.4345
     19 C           1.9196  -17.7336   29.1782 C.3     1  UNL1        0.0513
     20 C           1.7203  -16.3341   28.6766 C.3     1  UNL1        0.2102
@<TRIPOS>BOND
     1    19    20    1
     2    20    18    1
     3    18     1    1
     4     1     2    2
     5     1     3   am
     6     3     4    1
     7     4     5    1
     8     5     6    1
     9     6     7    2
    10     7    10    1
    11    10    11    3
    12    11    12    1
    13    12    13   ar
    14    13    14   ar
    15    14    15   ar
    16    15    16   ar
    17    16    17   ar
    18     6     8    1
    19     8     9    1
    20     9     3    1
    21    17    12   ar
@<TRIPOS>MOLECULE
*****
 20 21 0 0 0
SMALL
GASTEIGER

@<TRIPOS>ATOM
      1 C           0.8833    0.3100   19.4290 C.2     1  UNL1        0.4049
      2 O          -0.1187    0.1998   20.5398 O.2     1  UNL1       -0.2262
      3 N           2.2099   -0.3804   19.5444 N.am    1  UNL1       -0.2454
      4 C           3.2119   -0.2701   18.4336 C.3     1  UNL1        0.1011
      5 C           4.5385   -0.9605   18.5489 C.3     1  UNL1        0.0443
      6 C           4.8633   -1.7612   19.7750 C.2     1  UNL1       -0.0326
      7 C           6.1899   -2.4516   19.8904 C.2     1  UNL1        0.0412
      8 C           3.8613   -1.8714   20.8858 C.3     1  UNL1        0.0443
      9 C           2.5347   -1.1810   20.7705 C.3     1  UNL1        0.1011
     10 C           6.5147   -3.2522   21.1165 C.1     1  UNL1       -0.0583
     11 C           6.8394   -4.0529   22.3427 C.1     1  UNL1       -0.0405
     12 C           7.1641   -4.8535   23.5689 C.ar    1  UNL1        0.1228
     13 C           6.7767   -4.3403   24.9241 C.ar    1  UNL1        0.0276
     14 C           7.1015   -5.1410   26.1503 C.ar    1  UNL1        0.0038
     15 C           7.8136   -6.4549   26.0213 C.ar    1  UNL1        0.0207
     16 C           8.2009   -6.9681   24.6661 C.ar    1  UNL1        0.0996
     17 N           7.8762   -6.1674   23.4399 N.ar    1  UNL1       -0.2356
     18 O           0.5585    1.1107   18.2029 O.3     1  UNL1       -0.4345
     19 C           1.7050    3.3972   18.6585 C.3     1  UNL1        0.0513
     20 C           0.4870    2.6069   18.2813 C.3     1  UNL1        0.2102
@<TRIPOS>BOND
     1    19    20    1
     2    20    18    1
     3    18     1    1
     4     1     2    2
     5     1     3   am
     6     3     4    1
     7     4     5    1
     8     5     6    1
     9     6     7    2
    10     7    10    1
    11    10    11    3
    12    11    12    1
    13    12    13   ar
    14    13    14   ar
    15    14    15   ar
    16    15    16   ar
    17    16    17   ar
    18     6     8    1
    19     8     9    1
    20     9     3    1
    21    17    12   ar
@<TRIPOS>MOLECULE
*****
 20 21 0 0 0
SMALL
GASTEIGER

@<TRIPOS>ATOM
      1 C           5.0348   -3.7277   20.0100 C.2     1  UNL1        0.4049
      2 O           4.8012   -4.0543   18.5648 O.2     1  UNL1       -0.2262
      3 N           4.2293   -2.6514   20.6754 N.am    1  UNL1       -0.2454
      4 C           4.4629   -2.3248   22.1206 C.3     1  UNL1        0.1011
      5 C           3.6574   -1.2485   22.7860 C.3     1  UNL1        0.0443
      6 C           2.6183   -0.4988   22.0061 C.2     1  UNL1       -0.0326
      7 C           1.8128    0.5775   22.6715 C.2     1  UNL1        0.0412
      8 C           2.3847   -0.8254   20.5609 C.3     1  UNL1        0.0443
      9 C           3.1902   -1.9017   19.8955 C.3     1  UNL1        0.1011
     10 C           0.7737    1.3272   21.8917 C.1     1  UNL1       -0.0583
     11 C          -0.2655    2.0769   21.1118 C.1     1  UNL1       -0.0405
     12 C          -1.3046    2.8266   20.3320 C.ar    1  UNL1        0.1228
     13 C          -0.9119    3.5958   19.1056 C.ar    1  UNL1        0.0276
     14 C          -1.9510    4.3455   18.3257 C.ar    1  UNL1        0.0038
     15 C          -3.3828    4.3260   18.7723 C.ar    1  UNL1        0.0207
     16 C          -3.7756    3.5568   19.9987 C.ar    1  UNL1        0.0996
     17 N          -2.7365    2.8071   20.7786 N.ar    1  UNL1       -0.2356
     18 O           6.0739   -4.4774   20.7898 O.3     1  UNL1       -0.4345
     19 C           8.5767   -4.9301   21.3204 C.3     1  UNL1        0.0513
     20 C           7.5140   -4.0652   20.7098 C.3     1  UNL1        0.2102
@<TRIPOS>BOND
     1    19    20    1
     2    20    18    1
     3    18     1    1
     4     1     2    2
     5     1     3   am
     6     3     4    1
     7     4     5    1
     8     5     6    1
     9     6     7    2
    10     7    10    1
    11    10    11    3
    12    11    12    1
    13    12    13   ar
    14    13    14   ar
    15    14    15   ar
    16    15    16   ar
    17    16    17   ar
    18     6     8    1
    19     8     9    1
    20     9     3    1
    21    17    12   ar
@<TRIPOS>MOLECULE
*****
 20 21 0 0 0
SMALL
GASTEIGER

@<TRIPOS>ATOM
      1 C           4.1043   -1.1697   17.7496 C.2     1  UNL1        0.4049
      2 O           3.8569   -1.1143   16.2712 O.2     1  UNL1       -0.2262
      3 N           3.1687   -0.4738   18.6932 N.am    1  UNL1       -0.2454
      4 C           3.4161   -0.5291   20.1716 C.3     1  UNL1        0.1011
      5 C           2.4805    0.1668   21.1152 C.3     1  UNL1        0.0443
      6 C           1.2975    0.9181   20.5804 C.2     1  UNL1       -0.0326
      7 C           0.3619    1.6140   21.5240 C.2     1  UNL1        0.0412
      8 C           1.0501    0.9735   19.1020 C.3     1  UNL1        0.0443
      9 C           1.9857    0.2775   18.1584 C.3     1  UNL1        0.1011
     10 C          -0.8211    2.3653   20.9892 C.1     1  UNL1       -0.0583
     11 C          -2.0041    3.1167   20.4543 C.1     1  UNL1       -0.0405
     12 C          -3.1871    3.8680   19.9195 C.ar    1  UNL1        0.1228
     13 C          -4.5772    3.4211   20.2630 C.ar    1  UNL1        0.0276
     14 C          -5.7602    4.1724   19.7282 C.ar    1  UNL1        0.0038
     15 C          -5.5531    5.3707   18.8499 C.ar    1  UNL1        0.0207
     16 C          -4.1631    5.8176   18.5064 C.ar    1  UNL1        0.0996
     17 N          -2.9800    5.0662   19.0412 N.ar    1  UNL1       -0.2356
     18 O           5.2872   -1.9210   18.2844 O.3     1  UNL1       -0.4345
     19 C           3.9333   -4.0364   18.9494 C.3     1  UNL1        0.0513
     20 C           5.2090   -3.4070   18.4735 C.3     1  UNL1        0.2102
@<TRIPOS>BOND
     1    19    20    1
     2    20    18    1
     3    18     1    1
     4     1     2    2
     5     1     3   am
     6     3     4    1
     7     4     5    1
     8     5     6    1
     9     6     7    2
    10     7    10    1
    11    10    11    3
    12    11    12    1
    13    12    13   ar
    14    13    14   ar
    15    14    15   ar
    16    15    16   ar
    17    16    17   ar
    18     6     8    1
    19     8     9    1
    20     9     3    1
    21    17    12   ar
@<TRIPOS>MOLECULE
*****
 20 21 0 0 0
SMALL
GASTEIGER

@<TRIPOS>ATOM
      1 C           6.7604   -2.3481   28.2863 C.2     1  UNL1        0.4049
      2 O           6.2537   -1.0605   28.8652 O.2     1  UNL1       -0.2262
      3 N           6.4274   -2.7165   26.8708 N.am    1  UNL1       -0.2454
      4 C           6.9341   -4.0041   26.2919 C.3     1  UNL1        0.1011
      5 C           6.6011   -4.3725   24.8765 C.3     1  UNL1        0.0443
      6 C           5.7615   -3.4532   24.0400 C.2     1  UNL1       -0.0326
      7 C           5.4285   -3.8215   22.6245 C.2     1  UNL1        0.0412
      8 C           5.2548   -2.1655   24.6189 C.3     1  UNL1        0.0443
      9 C           5.5878   -1.7972   26.0343 C.3     1  UNL1        0.1011
     10 C           4.5889   -2.9022   21.7880 C.1     1  UNL1       -0.0583
     11 C           3.7492   -1.9829   20.9514 C.1     1  UNL1       -0.0405
     12 C           2.9096   -1.0636   20.1148 C.ar    1  UNL1        0.1228
     13 C           1.5277   -0.6922   20.5651 C.ar    1  UNL1        0.0276
     14 C           0.6881    0.2271   19.7286 C.ar    1  UNL1        0.0038
     15 C           1.2302    0.7751   18.4418 C.ar    1  UNL1        0.0207
     16 C           2.6120    0.4037   17.9915 C.ar    1  UNL1        0.0996
     17 N           3.4517   -0.5156   18.8280 N.ar    1  UNL1       -0.2356
     18 O           7.6000   -3.2674   29.1228 O.3     1  UNL1       -0.4345
     19 C           6.9452   -5.6712   29.8598 C.3     1  UNL1        0.0513
     20 C           6.9470   -4.1917   30.1073 C.3     1  UNL1        0.2102
@<TRIPOS>BOND
     1    19    20    1
     2    20    18    1
     3    18     1    1
     4     1     2    2
     5     1     3   am
     6     3     4    1
     7     4     5    1
     8     5     6    1
     9     6     7    2
    10     7    10    1
    11    10    11    3
    12    11    12    1
    13    12    13   ar
    14    13    14   ar
    15    14    15   ar
    16    15    16   ar
    17    16    17   ar
    18     6     8    1
    19     8     9    1
    20     9     3    1
    21    17    12   ar
@<TRIPOS>MOLECULE
*****
 20 21 0 0 0
SMALL
GASTEIGER

@<TRIPOS>ATOM
      1 C           5.3554   -3.4468   21.0823 C.2     1  UNL1        0.4049
      2 O           6.0393   -4.3213   22.0910 O.2     1  UNL1       -0.2262
      3 N           4.4258   -2.3615   21.5383 N.am    1  UNL1       -0.2454
      4 C           3.7419   -1.4870   20.5296 C.3     1  UNL1        0.1011
      5 C           2.8123   -0.4017   20.9855 C.3     1  UNL1        0.0443
      6 C           2.5666   -0.1908   22.4501 C.2     1  UNL1       -0.0326
      7 C           1.6370    0.8945   22.9060 C.2     1  UNL1        0.0412
      8 C           3.2505   -1.0653   23.4588 C.3     1  UNL1        0.0443
      9 C           4.1801   -2.1506   23.0029 C.3     1  UNL1        0.1011
     10 C           1.3913    1.1054   24.3706 C.1     1  UNL1       -0.0583
     11 C           1.1455    1.3163   25.8353 C.1     1  UNL1       -0.0405
     12 C           0.8998    1.5271   27.2999 C.ar    1  UNL1        0.1228
     13 C          -0.1544    0.7273   28.0064 C.ar    1  UNL1        0.0276
     14 C          -0.4001    0.9382   29.4710 C.ar    1  UNL1        0.0038
     15 C           0.4084    1.9488   30.2292 C.ar    1  UNL1        0.0207
     16 C           1.4626    2.7486   29.5229 C.ar    1  UNL1        0.0996
     17 N           1.7083    2.5378   28.0582 N.ar    1  UNL1       -0.2356
     18 O           5.6011   -3.6577   19.6177 O.3     1  UNL1       -0.4345
     19 C           3.3206   -4.7723   19.0637 C.3     1  UNL1        0.0513
     20 C           4.8043   -4.6803   18.8632 C.3     1  UNL1        0.2102
@<TRIPOS>BOND
     1    19    20    1
     2    20    18    1
     3    18     1    1
     4     1     2    2
     5     1     3   am
     6     3     4    1
     7     4     5    1
     8     5     6    1
     9     6     7    2
    10     7    10    1
    11    10    11    3
    12    11    12    1
    13    12    13   ar
    14    13    14   ar
    15    14    15   ar
    16    15    16   ar
    17    16    17   ar
    18     6     8    1
    19     8     9    1
    20     9     3    1
    21    17    12   ar
@<TRIPOS>MOLECULE
*****
 20 21 0 0 0
SMALL
GASTEIGER

@<TRIPOS>ATOM
      1 C           2.2817    1.3039   32.7486 C.2     1  UNL1        0.4049
      2 O           1.3961    1.4636   31.5486 O.2     1  UNL1       -0.2262
      3 N           3.3573    0.2584   32.7531 N.am    1  UNL1       -0.2454
      4 C           4.2429    0.0987   33.9531 C.3     1  UNL1        0.1011
      5 C           5.3185   -0.9468   33.9576 C.3     1  UNL1        0.0443
      6 C           5.5085   -1.8326   32.7621 C.2     1  UNL1       -0.0326
      7 C           6.5841   -2.8781   32.7666 C.2     1  UNL1        0.0412
      8 C           4.6229   -1.6729   31.5621 C.3     1  UNL1        0.0443
      9 C           3.5473   -0.6274   31.5576 C.3     1  UNL1        0.1011
     10 C           6.7741   -3.7638   31.5711 C.1     1  UNL1       -0.0583
     11 C           6.9641   -4.6496   30.3755 C.1     1  UNL1       -0.0405
     12 C           7.1541   -5.5354   29.1800 C.ar    1  UNL1        0.1228
     13 C           6.3771   -5.2760   27.9234 C.ar    1  UNL1        0.0276
     14 C           6.5671   -6.1618   26.7278 C.ar    1  UNL1        0.0038
     15 C           7.5340   -7.3069   26.7889 C.ar    1  UNL1        0.0207
     16 C           8.3110   -7.5663   28.0455 C.ar    1  UNL1        0.0996
     17 N           8.1210   -6.6805   29.2411 N.ar    1  UNL1       -0.2356
     18 O           2.0917    2.1896   33.9441 O.3     1  UNL1       -0.4345
     19 C           1.5119    4.5193   34.9375 C.3     1  UNL1        0.0513
     20 C           1.5485    3.5770   33.7709 C.3     1  UNL1        0.2102
@<TRIPOS>BOND
     1    19    20    1
     2    20    18    1
     3    18     1    1
     4     1     2    2
     5     1     3   am
     6     3     4    1
     7     4     5    1
     8     5     6    1
     9     6     7    2
    10     7    10    1
    11    10    11    3
    12    11    12    1
    13    12    13   ar
    14    13    14   ar
    15    14    15   ar
    16    15    16   ar
    17    16    17   ar
    18     6     8    1
    19     8     9    1
    20     9     3    1
    21    17    12   ar
