@<TRIPOS>MOLECULE
*****
 34 37 0 0 0
SMALL
GASTEIGER

@<TRIPOS>ATOM
      1 N         -14.4965   -4.9323   20.2556 N.am    1  UNL1       -0.2533
      2 C         -14.9276   -3.6458   19.6162 C.2     1  UNL1        0.3092
      3 O         -15.5257   -3.6554   18.2406 O.2     1  UNL1       -0.2521
      4 N         -14.7608   -2.3495   20.3523 N.am    1  UNL1       -0.2680
      5 H         -14.1040   -4.9259   21.1585 H       1  UNL1        0.1578
      6 H         -14.3683   -2.3431   21.2552 H       1  UNL1        0.1564
      7 C         -15.1920   -1.0630   19.7129 C.ar    1  UNL1        0.0516
      8 C         -14.3511   -0.4413   18.6375 C.ar    1  UNL1        0.0148
      9 C         -14.7823    0.8452   17.9980 C.ar    1  UNL1        0.0043
     10 C         -16.0543    1.5101   18.4338 C.ar    1  UNL1        0.0360
     11 C         -16.8951    0.8883   19.5092 C.ar    1  UNL1        0.0043
     12 C         -16.4640   -0.3982   20.1487 C.ar    1  UNL1        0.0148
     13 C         -16.4854    2.7966   17.7943 C.ar    1  UNL1        0.1665
     14 N         -17.1463    2.9374   16.4551 N.ar    1  UNL1       -0.1286
     15 N         -17.4007    4.3960   16.2149 N.ar    1  UNL1       -0.1255
     16 C         -16.8971    5.1567   17.4056 C.ar    1  UNL1        0.2027
     17 N         -16.3314    4.1681   18.3818 N.ar    1  UNL1       -0.2909
     18 C         -15.7192    4.4940   19.7118 C.3     1  UNL1        0.1336
     19 N         -13.7530   -6.7600   18.4524 N.ar    1  UNL1       -0.2162
     20 N         -14.2969   -8.0809   17.9947 N.ar    1  UNL1       -0.1683
     21 C         -15.5434   -8.3658   18.7790 C.ar    1  UNL1        0.0810
     22 C         -15.7699   -7.2210   19.7214 C.ar    1  UNL1        0.0509
     23 C         -14.6633   -6.2286   19.5195 C.ar    1  UNL1        0.1380
     24 C          -8.8048   -4.0739   16.3787 C.3     1  UNL1        0.0310
     25 C         -10.0418   -4.7454   16.8971 C.ar    1  UNL1       -0.0218
     26 C          -9.9604   -5.6480   18.0924 C.ar    1  UNL1       -0.0027
     27 C         -11.1974   -6.3195   18.6108 C.ar    1  UNL1        0.0189
     28 C         -12.5159   -6.0885   17.9340 C.ar    1  UNL1        0.0842
     29 C         -12.5974   -5.1859   16.7387 C.ar    1  UNL1        0.0189
     30 C         -11.3603   -4.5144   16.2203 C.ar    1  UNL1       -0.0027
     31 C         -16.4110   -9.5819   18.6445 C.3     1  UNL1        0.0372
     32 C         -15.3345  -10.2622   17.8517 C.3     1  UNL1        0.0060
     33 C         -17.4875   -8.9017   19.4372 C.3     1  UNL1        0.0060
     34 C         -17.2787  -10.7981   18.5099 C.3     1  UNL1        0.0060
@<TRIPOS>BOND
     1    24    25    1
     2    25    26   ar
     3    26    27   ar
     4    27    28   ar
     5    28    19    1
     6    19    20   ar
     7    20    21   ar
     8    21    31    1
     9    31    32    1
    10    31    33    1
    11    31    34    1
    12    21    22   ar
    13    22    23   ar
    14    23     1    1
    15     1     2   am
    16     2     3    2
    17     2     4   am
    18     4     7    1
    19     7     8   ar
    20     8     9   ar
    21     9    10   ar
    22    10    13    1
    23    13    14   ar
    24    14    15   ar
    25    15    16   ar
    26    16    17   ar
    27    17    18    1
    28    10    11   ar
    29    11    12   ar
    30    28    29   ar
    31    29    30   ar
    32    30    25   ar
    33    23    19   ar
    34    12     7   ar
    35    17    13   ar
    36     1     5    1
    37     4     6    1
@<TRIPOS>MOLECULE
*****
 34 37 0 0 0
SMALL
GASTEIGER

@<TRIPOS>ATOM
      1 N           4.3973    0.8765   28.0145 N.am    1  UNL1       -0.2533
      2 C           4.2907   -0.1041   26.8845 C.2     1  UNL1        0.3092
      3 O           3.6135   -1.4252   27.0992 O.2     1  UNL1       -0.2521
      4 N           4.8611    0.2364   25.5396 N.am    1  UNL1       -0.2680
      5 H           4.8418    1.7435   27.8735 H       1  UNL1        0.1578
      6 H           5.3056    1.1035   25.3986 H       1  UNL1        0.1564
      7 C           4.7544   -0.7442   24.4096 C.ar    1  UNL1        0.0516
      8 C           5.7545   -1.8551   24.2835 C.ar    1  UNL1        0.0148
      9 C           5.6477   -2.8357   23.1535 C.ar    1  UNL1        0.0043
     10 C           4.5410   -2.7055   22.1494 C.ar    1  UNL1        0.0360
     11 C           3.5410   -1.5946   22.2755 C.ar    1  UNL1        0.0043
     12 C           3.6477   -0.6140   23.4055 C.ar    1  UNL1        0.0148
     13 C           4.4343   -3.6861   21.0194 C.ar    1  UNL1        0.1665
     14 N           3.7905   -5.0394   21.0842 N.ar    1  UNL1       -0.1286
     15 N           3.9110   -5.6753   19.7310 N.ar    1  UNL1       -0.1255
     16 C           4.6292   -4.7150   18.8299 C.ar    1  UNL1        0.2027
     17 N           4.9527   -3.4856   19.6262 N.ar    1  UNL1       -0.2909
     18 C           5.6687   -2.2693   19.1184 C.3     1  UNL1        0.1336
     19 N           2.4000    0.7194   29.7839 N.ar    1  UNL1       -0.2162
     20 N           2.2744    0.2491   31.2027 N.ar    1  UNL1       -0.1683
     21 C           3.6238   -0.2250   31.6551 C.ar    1  UNL1        0.0810
     22 C           4.5832   -0.0477   30.5158 C.ar    1  UNL1        0.0509
     23 C           3.8269    0.5360   29.3594 C.ar    1  UNL1        0.1380
     24 C          -2.0281    2.9439   26.4010 C.3     1  UNL1        0.0310
     25 C          -0.9211    2.3878   27.2467 C.ar    1  UNL1       -0.0218
     26 C           0.2402    3.2570   27.6285 C.ar    1  UNL1       -0.0027
     27 C           1.3472    2.7009   28.4742 C.ar    1  UNL1        0.0189
     28 C           1.2930    1.2755   28.9382 C.ar    1  UNL1        0.0842
     29 C           0.1317    0.4063   28.5564 C.ar    1  UNL1        0.0189
     30 C          -0.9753    0.9624   27.7107 C.ar    1  UNL1       -0.0027
     31 C           3.9553   -0.7791   33.0089 C.3     1  UNL1        0.0372
     32 C           3.5671    0.5260   33.6382 C.3     1  UNL1        0.0060
     33 C           4.3436   -2.0842   32.3797 C.3     1  UNL1        0.0060
     34 C           4.2869   -1.3332   34.3628 C.3     1  UNL1        0.0060
@<TRIPOS>BOND
     1    24    25    1
     2    25    26   ar
     3    26    27   ar
     4    27    28   ar
     5    28    19    1
     6    19    20   ar
     7    20    21   ar
     8    21    31    1
     9    31    32    1
    10    31    33    1
    11    31    34    1
    12    21    22   ar
    13    22    23   ar
    14    23     1    1
    15     1     2   am
    16     2     3    2
    17     2     4   am
    18     4     7    1
    19     7     8   ar
    20     8     9   ar
    21     9    10   ar
    22    10    13    1
    23    13    14   ar
    24    14    15   ar
    25    15    16   ar
    26    16    17   ar
    27    17    18    1
    28    10    11   ar
    29    11    12   ar
    30    28    29   ar
    31    29    30   ar
    32    30    25   ar
    33    23    19   ar
    34    12     7   ar
    35    17    13   ar
    36     1     5    1
    37     4     6    1
@<TRIPOS>MOLECULE
*****
 34 37 0 0 0
SMALL
GASTEIGER

@<TRIPOS>ATOM
      1 N           3.5884    0.3702   22.0695 N.am    1  UNL1       -0.2533
      2 C           2.2698    0.8812   22.5695 C.2     1  UNL1        0.3092
      3 O           0.9973    0.4551   21.8992 O.2     1  UNL1       -0.2521
      4 N           2.2235    1.8183   23.7399 N.am    1  UNL1       -0.2680
      5 H           4.4235    0.6499   22.5095 H       1  UNL1        0.1578
      6 H           3.0586    2.0980   24.1798 H       1  UNL1        0.1564
      7 C           0.9048    2.3293   24.2399 C.ar    1  UNL1        0.0516
      8 C           0.2415    1.6710   25.4132 C.ar    1  UNL1        0.0148
      9 C          -1.0772    2.1820   25.9132 C.ar    1  UNL1        0.0043
     10 C          -1.7326    3.3512   25.2399 C.ar    1  UNL1        0.0360
     11 C          -1.0692    4.0095   24.0666 C.ar    1  UNL1        0.0043
     12 C           0.2495    3.4985   23.5666 C.ar    1  UNL1        0.0148
     13 C          -3.0512    3.8622   25.7399 C.ar    1  UNL1        0.1665
     14 N          -3.2993    4.5079   27.0709 N.ar    1  UNL1       -0.1286
     15 N          -4.7547    4.8620   27.1503 N.ar    1  UNL1       -0.1255
     16 C          -5.4062    4.4351   25.8684 C.ar    1  UNL1        0.2027
     17 N          -4.3533    3.8172   24.9967 N.ar    1  UNL1       -0.2909
     18 C          -4.5654    3.2533   23.6230 C.3     1  UNL1        0.1336
     19 N           3.1896   -0.2543   19.5013 N.ar    1  UNL1       -0.2162
     20 N           3.4140   -1.4754   18.6595 N.ar    1  UNL1       -0.1683
     21 C           3.9977   -2.5426   19.5371 C.ar    1  UNL1        0.0810
     22 C           4.1341   -1.9811   20.9214 C.ar    1  UNL1        0.0509
     23 C           3.6346   -0.5669   20.8992 C.ar    1  UNL1        0.1380
     24 C           0.9117    4.9640   17.6090 C.3     1  UNL1        0.0310
     25 C           1.4811    3.6594   18.0821 C.ar    1  UNL1       -0.0218
     26 C           2.9482    3.5425   18.3717 C.ar    1  UNL1       -0.0027
     27 C           3.5177    2.2379   18.8448 C.ar    1  UNL1        0.0189
     28 C           2.6201    1.0503   19.0282 C.ar    1  UNL1        0.0842
     29 C           1.1530    1.1671   18.7385 C.ar    1  UNL1        0.0189
     30 C           0.5835    2.4717   18.2655 C.ar    1  UNL1       -0.0027
     31 C           4.3783   -3.9281   19.1062 C.3     1  UNL1        0.0372
     32 C           2.9314   -4.3235   19.0998 C.3     1  UNL1        0.0060
     33 C           5.8252   -3.5326   19.1126 C.3     1  UNL1        0.0060
     34 C           4.7588   -5.3135   18.6752 C.3     1  UNL1        0.0060
@<TRIPOS>BOND
     1    24    25    1
     2    25    26   ar
     3    26    27   ar
     4    27    28   ar
     5    28    19    1
     6    19    20   ar
     7    20    21   ar
     8    21    31    1
     9    31    32    1
    10    31    33    1
    11    31    34    1
    12    21    22   ar
    13    22    23   ar
    14    23     1    1
    15     1     2   am
    16     2     3    2
    17     2     4   am
    18     4     7    1
    19     7     8   ar
    20     8     9   ar
    21     9    10   ar
    22    10    13    1
    23    13    14   ar
    24    14    15   ar
    25    15    16   ar
    26    16    17   ar
    27    17    18    1
    28    10    11   ar
    29    11    12   ar
    30    28    29   ar
    31    29    30   ar
    32    30    25   ar
    33    23    19   ar
    34    12     7   ar
    35    17    13   ar
    36     1     5    1
    37     4     6    1
@<TRIPOS>MOLECULE
*****
 34 37 0 0 0
SMALL
GASTEIGER

@<TRIPOS>ATOM
      1 N           0.4816    3.3350   24.7898 N.am    1  UNL1       -0.2533
      2 C           0.9190    2.1121   24.0395 C.2     1  UNL1        0.3092
      3 O          -0.0038    0.9355   23.9198 O.2     1  UNL1       -0.2521
      4 N           2.2791    2.0656   23.4087 N.am    1  UNL1       -0.2680
      5 H           1.0873    4.1072   24.8683 H       1  UNL1        0.1578
      6 H           2.8848    2.8377   23.4872 H       1  UNL1        0.1564
      7 C           2.7164    0.8426   22.6583 C.ar    1  UNL1        0.0516
      8 C           1.9840    0.4212   21.4190 C.ar    1  UNL1        0.0148
      9 C           2.4213   -0.8018   20.6686 C.ar    1  UNL1        0.0043
     10 C           3.5911   -1.6034   21.1575 C.ar    1  UNL1        0.0360
     11 C           4.3235   -1.1820   22.3968 C.ar    1  UNL1        0.0043
     12 C           3.8862    0.0410   23.1471 C.ar    1  UNL1        0.0148
     13 C           4.0284   -2.8264   20.4071 C.ar    1  UNL1        0.1665
     14 N           4.1733   -4.2060   20.9777 N.ar    1  UNL1       -0.1286
     15 N           4.6320   -5.1168   19.8776 N.ar    1  UNL1       -0.1255
     16 C           4.7706   -4.3000   18.6272 C.ar    1  UNL1        0.2027
     17 N           4.3975   -2.8844   18.9544 N.ar    1  UNL1       -0.2909
     18 C           4.3942   -1.7296   17.9971 C.3     1  UNL1        0.1336
     19 N          -1.2617    2.7709   26.7360 N.ar    1  UNL1       -0.2162
     20 N          -2.7142    3.0588   26.9751 N.ar    1  UNL1       -0.1683
     21 C          -3.2288    3.8474   25.8074 C.ar    1  UNL1        0.0810
     22 C          -2.0942    4.0468   24.8467 C.ar    1  UNL1        0.0509
     23 C          -0.8785    3.3815   25.4206 C.ar    1  UNL1        0.1380
     24 C           2.3770   -0.2864   30.3984 C.3     1  UNL1        0.0310
     25 C           1.4673    0.4779   29.4828 C.ar    1  UNL1       -0.0218
     26 C           0.3110   -0.2147   28.8247 C.ar    1  UNL1       -0.0027
     27 C          -0.5987    0.5496   27.9091 C.ar    1  UNL1        0.0189
     28 C          -0.3520    2.0065   27.6516 C.ar    1  UNL1        0.0842
     29 C           0.8043    2.6992   28.3097 C.ar    1  UNL1        0.0189
     30 C           1.7140    1.9349   29.2253 C.ar    1  UNL1       -0.0027
     31 C          -4.6316    4.3485   25.6314 C.3     1  UNL1        0.0372
     32 C          -4.5458    5.0528   26.9529 C.3     1  UNL1        0.0060
     33 C          -4.7174    3.6441   24.3098 C.3     1  UNL1        0.0060
     34 C          -6.0344    4.8496   25.4554 C.3     1  UNL1        0.0060
@<TRIPOS>BOND
     1    24    25    1
     2    25    26   ar
     3    26    27   ar
     4    27    28   ar
     5    28    19    1
     6    19    20   ar
     7    20    21   ar
     8    21    31    1
     9    31    32    1
    10    31    33    1
    11    31    34    1
    12    21    22   ar
    13    22    23   ar
    14    23     1    1
    15     1     2   am
    16     2     3    2
    17     2     4   am
    18     4     7    1
    19     7     8   ar
    20     8     9   ar
    21     9    10   ar
    22    10    13    1
    23    13    14   ar
    24    14    15   ar
    25    15    16   ar
    26    16    17   ar
    27    17    18    1
    28    10    11   ar
    29    11    12   ar
    30    28    29   ar
    31    29    30   ar
    32    30    25   ar
    33    23    19   ar
    34    12     7   ar
    35    17    13   ar
    36     1     5    1
    37     4     6    1
@<TRIPOS>MOLECULE
*****
 34 37 0 0 0
SMALL
GASTEIGER

@<TRIPOS>ATOM
      1 N           4.4358    0.4271   23.6514 N.am    1  UNL1       -0.2533
      2 C           4.7935   -0.9110   24.2272 C.2     1  UNL1        0.3092
      3 O           3.7146   -1.8238   24.7301 O.2     1  UNL1       -0.2521
      4 N           6.2301   -1.3364   24.3001 N.am    1  UNL1       -0.2680
      5 H           5.1439    1.0261   23.3214 H       1  UNL1        0.1578
      6 H           6.9382   -0.7374   23.9700 H       1  UNL1        0.1564
      7 C           6.5877   -2.6745   24.8758 C.ar    1  UNL1        0.0516
      8 C           7.0457   -3.7813   23.9729 C.ar    1  UNL1        0.0148
      9 C           7.4034   -5.1195   24.5487 C.ar    1  UNL1        0.0043
     10 C           7.3031   -5.3508   26.0273 C.ar    1  UNL1        0.0360
     11 C           6.8451   -4.2440   26.9302 C.ar    1  UNL1        0.0043
     12 C           6.4874   -2.9059   26.3544 C.ar    1  UNL1        0.0148
     13 C           7.6607   -6.6889   26.6031 C.ar    1  UNL1        0.1665
     14 N           7.0552   -8.0056   26.2161 N.ar    1  UNL1       -0.1286
     15 N           7.7069   -9.0758   27.0408 N.ar    1  UNL1       -0.1255
     16 C           8.7152   -8.4205   27.9374 C.ar    1  UNL1        0.2027
     17 N           8.6867   -6.9453   27.6669 N.ar    1  UNL1       -0.2909
     18 C           9.5351   -5.9086   28.3417 C.3     1  UNL1        0.1336
     19 N           2.1384    0.8439   22.3502 N.ar    1  UNL1       -0.2162
     20 N           0.7785    1.3473   22.7338 N.ar    1  UNL1       -0.1683
     21 C           0.7988    1.6670   24.1991 C.ar    1  UNL1        0.0810
     22 C           2.1714    1.3612   24.7213 C.ar    1  UNL1        0.0509
     23 C           2.9993    0.8525   23.5785 C.ar    1  UNL1        0.1380
     24 C           3.8366   -0.8983   16.8656 C.3     1  UNL1        0.0310
     25 C           3.4121   -0.4627   18.2367 C.ar    1  UNL1       -0.0218
     26 C           3.2382   -1.4790   19.3262 C.ar    1  UNL1       -0.0027
     27 C           2.8136   -1.0435   20.6973 C.ar    1  UNL1        0.0189
     28 C           2.5630    0.4083   20.9790 C.ar    1  UNL1        0.0842
     29 C           2.7369    1.4246   19.8896 C.ar    1  UNL1        0.0189
     30 C           3.1614    0.9891   18.5184 C.ar    1  UNL1       -0.0027
     31 C          -0.3514    2.1991   25.0015 C.3     1  UNL1        0.0372
     32 C          -0.0159    1.2490   26.1127 C.3     1  UNL1        0.0060
     33 C          -0.6870    3.1492   23.8903 C.3     1  UNL1        0.0060
     34 C          -1.5017    2.7312   25.8039 C.3     1  UNL1        0.0060
@<TRIPOS>BOND
     1    24    25    1
     2    25    26   ar
     3    26    27   ar
     4    27    28   ar
     5    28    19    1
     6    19    20   ar
     7    20    21   ar
     8    21    31    1
     9    31    32    1
    10    31    33    1
    11    31    34    1
    12    21    22   ar
    13    22    23   ar
    14    23     1    1
    15     1     2   am
    16     2     3    2
    17     2     4   am
    18     4     7    1
    19     7     8   ar
    20     8     9   ar
    21     9    10   ar
    22    10    13    1
    23    13    14   ar
    24    14    15   ar
    25    15    16   ar
    26    16    17   ar
    27    17    18    1
    28    10    11   ar
    29    11    12   ar
    30    28    29   ar
    31    29    30   ar
    32    30    25   ar
    33    23    19   ar
    34    12     7   ar
    35    17    13   ar
    36     1     5    1
    37     4     6    1
@<TRIPOS>MOLECULE
*****
 34 37 0 0 0
SMALL
GASTEIGER

@<TRIPOS>ATOM
      1 N          -0.3977    4.3038   22.7136 N.am    1  UNL1       -0.2533
      2 C           0.3789    3.2159   22.0331 C.2     1  UNL1        0.3092
      3 O          -0.2301    1.8563   21.8583 O.2     1  UNL1       -0.2521
      4 N           1.7647    3.4875   21.5272 N.am    1  UNL1       -0.2680
      5 H           0.0020    5.1962   22.8282 H       1  UNL1        0.1578
      6 H           2.1645    4.3799   21.6419 H       1  UNL1        0.1564
      7 C           2.5413    2.3996   20.8467 C.ar    1  UNL1        0.0516
      8 C           3.5200    1.5747   21.6290 C.ar    1  UNL1        0.0148
      9 C           4.2966    0.4868   20.9485 C.ar    1  UNL1        0.0043
     10 C           4.0947    0.2236   19.4857 C.ar    1  UNL1        0.0360
     11 C           3.1161    1.0484   18.7033 C.ar    1  UNL1        0.0043
     12 C           2.3395    2.1364   19.3839 C.ar    1  UNL1        0.0148
     13 C           4.8714   -0.8644   18.8051 C.ar    1  UNL1        0.1665
     14 N           6.0667   -0.6727   17.9195 N.ar    1  UNL1       -0.1286
     15 N           6.5231   -2.0249   17.4577 N.ar    1  UNL1       -0.1255
     16 C           5.6099   -3.0523   18.0580 C.ar    1  UNL1        0.2027
     17 N           4.5890   -2.3351   18.8908 N.ar    1  UNL1       -0.2909
     18 C           3.4804   -2.9760   19.6720 C.3     1  UNL1        0.1336
     19 N          -2.1344    3.4088   24.5378 N.ar    1  UNL1       -0.2162
     20 N          -3.6295    3.3277   24.6288 N.ar    1  UNL1       -0.1683
     21 C          -4.2025    3.9010   23.3667 C.ar    1  UNL1        0.0810
     22 C          -3.0616    4.3364   22.4956 C.ar    1  UNL1        0.0509
     23 C          -1.7835    4.0322   23.2194 C.ar    1  UNL1        0.1380
     24 C           1.7584    1.5634   28.7140 C.3     1  UNL1        0.0310
     25 C           0.7852    2.0248   27.6699 C.ar    1  UNL1       -0.0218
     26 C           0.6160    1.2395   26.4031 C.ar    1  UNL1       -0.0027
     27 C          -0.3572    1.7009   25.3591 C.ar    1  UNL1        0.0189
     28 C          -1.1612    2.9474   25.5818 C.ar    1  UNL1        0.0842
     29 C          -0.9920    3.7326   26.8486 C.ar    1  UNL1        0.0189
     30 C          -0.0188    3.2713   27.8927 C.ar    1  UNL1       -0.0027
     31 C          -5.6605    4.0182   23.0341 C.3     1  UNL1        0.0372
     32 C          -5.9591    4.3603   24.4637 C.3     1  UNL1        0.0060
     33 C          -5.3618    3.6762   21.6045 C.3     1  UNL1        0.0060
     34 C          -7.1184    4.1355   22.7015 C.3     1  UNL1        0.0060
@<TRIPOS>BOND
     1    24    25    1
     2    25    26   ar
     3    26    27   ar
     4    27    28   ar
     5    28    19    1
     6    19    20   ar
     7    20    21   ar
     8    21    31    1
     9    31    32    1
    10    31    33    1
    11    31    34    1
    12    21    22   ar
    13    22    23   ar
    14    23     1    1
    15     1     2   am
    16     2     3    2
    17     2     4   am
    18     4     7    1
    19     7     8   ar
    20     8     9   ar
    21     9    10   ar
    22    10    13    1
    23    13    14   ar
    24    14    15   ar
    25    15    16   ar
    26    16    17   ar
    27    17    18    1
    28    10    11   ar
    29    11    12   ar
    30    28    29   ar
    31    29    30   ar
    32    30    25   ar
    33    23    19   ar
    34    12     7   ar
    35    17    13   ar
    36     1     5    1
    37     4     6    1
@<TRIPOS>MOLECULE
*****
 34 37 0 0 0
SMALL
GASTEIGER

@<TRIPOS>ATOM
      1 N           6.9778   -1.6464   28.1983 N.am    1  UNL1       -0.2533
      2 C           5.9061   -1.3777   27.1839 C.2     1  UNL1        0.3092
      3 O           4.4629   -1.5550   27.5527 O.2     1  UNL1       -0.2521
      4 N           6.2773   -0.9316   25.8007 N.am    1  UNL1       -0.2680
      5 H           7.9250   -1.5300   27.9562 H       1  UNL1        0.1578
      6 H           7.2244   -0.8152   25.5586 H       1  UNL1        0.1564
      7 C           5.2054   -0.6629   24.7864 C.ar    1  UNL1        0.0516
      8 C           4.5987   -1.7989   24.0174 C.ar    1  UNL1        0.0148
      9 C           3.5269   -1.5302   23.0031 C.ar    1  UNL1        0.0043
     10 C           3.0617   -0.1254   22.7576 C.ar    1  UNL1        0.0360
     11 C           3.6684    1.0106   23.5266 C.ar    1  UNL1        0.0043
     12 C           4.7403    0.7419   24.5410 C.ar    1  UNL1        0.0148
     13 C           1.9898    0.1433   21.7433 C.ar    1  UNL1        0.1665
     14 N           0.6712    0.8073   22.0087 N.ar    1  UNL1       -0.1286
     15 N          -0.0851    0.8696   20.7149 N.ar    1  UNL1       -0.1255
     16 C           0.7660    0.2441   19.6498 C.ar    1  UNL1        0.2027
     17 N           2.0484   -0.2048   20.2854 N.ar    1  UNL1       -0.2909
     18 C           3.1891   -0.8827   19.5859 C.3     1  UNL1        0.1336
     19 N           6.6261   -3.5044   30.0875 N.ar    1  UNL1       -0.2162
     20 N           6.1822   -3.4894   31.5203 N.ar    1  UNL1       -0.1683
     21 C           5.8884   -2.0682   31.8997 C.ar    1  UNL1        0.0810
     22 C           6.1507   -1.2049   30.7014 C.ar    1  UNL1        0.0509
     23 C           6.6066   -2.0925   29.5815 C.ar    1  UNL1        0.1380
     24 C           8.2027   -8.3595   26.9344 C.3     1  UNL1        0.0310
     25 C           7.8085   -7.1457   27.7227 C.ar    1  UNL1       -0.0218
     26 C           8.4867   -6.8454   29.0264 C.ar    1  UNL1       -0.0027
     27 C           8.0925   -5.6316   29.8147 C.ar    1  UNL1        0.0189
     28 C           7.0202   -4.7182   29.2992 C.ar    1  UNL1        0.0842
     29 C           6.3421   -5.0185   27.9955 C.ar    1  UNL1        0.0189
     30 C           6.7362   -6.2323   27.2072 C.ar    1  UNL1       -0.0027
     31 C           5.4154   -1.5938   33.2418 C.3     1  UNL1        0.0372
     32 C           6.4423   -0.5008   33.2173 C.3     1  UNL1        0.0060
     33 C           4.3884   -2.6868   33.2662 C.3     1  UNL1        0.0060
     34 C           4.9423   -1.1193   34.5838 C.3     1  UNL1        0.0060
@<TRIPOS>BOND
     1    24    25    1
     2    25    26   ar
     3    26    27   ar
     4    27    28   ar
     5    28    19    1
     6    19    20   ar
     7    20    21   ar
     8    21    31    1
     9    31    32    1
    10    31    33    1
    11    31    34    1
    12    21    22   ar
    13    22    23   ar
    14    23     1    1
    15     1     2   am
    16     2     3    2
    17     2     4   am
    18     4     7    1
    19     7     8   ar
    20     8     9   ar
    21     9    10   ar
    22    10    13    1
    23    13    14   ar
    24    14    15   ar
    25    15    16   ar
    26    16    17   ar
    27    17    18    1
    28    10    11   ar
    29    11    12   ar
    30    28    29   ar
    31    29    30   ar
    32    30    25   ar
    33    23    19   ar
    34    12     7   ar
    35    17    13   ar
    36     1     5    1
    37     4     6    1
@<TRIPOS>MOLECULE
*****
 34 37 0 0 0
SMALL
GASTEIGER

@<TRIPOS>ATOM
      1 N          -0.8268    4.0607   20.7302 N.am    1  UNL1       -0.2533
      2 C          -0.1690    2.7240   20.5562 C.2     1  UNL1        0.3092
      3 O          -1.0020    1.4770   20.5218 O.2     1  UNL1       -0.2521
      4 N           1.3218    2.6342   20.4166 N.am    1  UNL1       -0.2680
      5 H          -0.2801    4.8792   20.7528 H       1  UNL1        0.1578
      6 H           1.8685    3.4526   20.4392 H       1  UNL1        0.1564
      7 C           1.9796    1.2974   20.2426 C.ar    1  UNL1        0.0516
      8 C           2.1078    0.3667   21.4120 C.ar    1  UNL1        0.0148
      9 C           2.7655   -0.9701   21.2380 C.ar    1  UNL1        0.0043
     10 C           3.2951   -1.3763   19.8947 C.ar    1  UNL1        0.0360
     11 C           3.1670   -0.4456   18.7253 C.ar    1  UNL1        0.0043
     12 C           2.5092    0.8912   18.8993 C.ar    1  UNL1        0.0148
     13 C           3.9529   -2.7131   19.7207 C.ar    1  UNL1        0.1665
     14 N           3.2759   -3.9789   19.2853 N.ar    1  UNL1       -0.1286
     15 N           4.3078   -5.0669   19.2471 N.ar    1  UNL1       -0.1255
     16 C           5.6225   -4.4735   19.6587 C.ar    1  UNL1        0.2027
     17 N           5.4032   -3.0188   19.9514 N.ar    1  UNL1       -0.2909
     18 C           6.4503   -2.0414   20.3967 C.3     1  UNL1        0.1336
     19 N          -3.0736    4.3331   22.1524 N.ar    1  UNL1       -0.2162
     20 N          -4.5374    4.3690   21.8266 N.ar    1  UNL1       -0.1683
     21 C          -4.6860    4.2087   20.3426 C.ar    1  UNL1        0.0810
     22 C          -3.3141    4.0737   19.7513 C.ar    1  UNL1        0.0509
     23 C          -2.3176    4.1506   20.8698 C.ar    1  UNL1        0.1380
     24 C          -0.6656    4.8321   27.6253 C.3     1  UNL1        0.0310
     25 C          -1.2676    4.7074   26.2571 C.ar    1  UNL1       -0.0218
     26 C          -1.0098    5.7648   25.2250 C.ar    1  UNL1       -0.0027
     27 C          -1.6118    5.6401   23.8568 C.ar    1  UNL1        0.0189
     28 C          -2.4716    4.4579   23.5207 C.ar    1  UNL1        0.0842
     29 C          -2.7294    3.4004   24.5528 C.ar    1  UNL1        0.0189
     30 C          -2.1274    3.5252   25.9210 C.ar    1  UNL1       -0.0027
     31 C          -5.9794    4.1871   19.5833 C.3     1  UNL1        0.0372
     32 C          -6.6894    4.7545   20.7766 C.3     1  UNL1        0.0060
     33 C          -5.2694    3.6197   18.3900 C.3     1  UNL1        0.0060
     34 C          -7.2728    4.1655   18.8240 C.3     1  UNL1        0.0060
@<TRIPOS>BOND
     1    24    25    1
     2    25    26   ar
     3    26    27   ar
     4    27    28   ar
     5    28    19    1
     6    19    20   ar
     7    20    21   ar
     8    21    31    1
     9    31    32    1
    10    31    33    1
    11    31    34    1
    12    21    22   ar
    13    22    23   ar
    14    23     1    1
    15     1     2   am
    16     2     3    2
    17     2     4   am
    18     4     7    1
    19     7     8   ar
    20     8     9   ar
    21     9    10   ar
    22    10    13    1
    23    13    14   ar
    24    14    15   ar
    25    15    16   ar
    26    16    17   ar
    27    17    18    1
    28    10    11   ar
    29    11    12   ar
    30    28    29   ar
    31    29    30   ar
    32    30    25   ar
    33    23    19   ar
    34    12     7   ar
    35    17    13   ar
    36     1     5    1
    37     4     6    1
@<TRIPOS>MOLECULE
*****
 34 37 0 0 0
SMALL
GASTEIGER

@<TRIPOS>ATOM
      1 N           3.0807    2.5090   21.0882 N.am    1  UNL1       -0.2533
      2 C           2.9143    1.9765   22.4805 C.2     1  UNL1        0.3092
      3 O           1.6026    1.3858   22.9058 O.2     1  UNL1       -0.2521
      4 N           4.0593    2.0346   23.4477 N.am    1  UNL1       -0.2680
      5 H           3.9416    2.8967   20.8092 H       1  UNL1        0.1578
      6 H           4.9202    2.4223   23.1687 H       1  UNL1        0.1564
      7 C           3.8928    1.5021   24.8401 C.ar    1  UNL1        0.0516
      8 C           3.6089    2.4424   25.9738 C.ar    1  UNL1        0.0148
      9 C           3.4423    1.9098   27.3661 C.ar    1  UNL1        0.0043
     10 C           3.5596    0.4370   27.6248 C.ar    1  UNL1        0.0360
     11 C           3.8435   -0.5033   26.4911 C.ar    1  UNL1        0.0043
     12 C           4.0101    0.0293   25.0988 C.ar    1  UNL1        0.0148
     13 C           3.3931   -0.0956   29.0172 C.ar    1  UNL1        0.1665
     14 N           2.0927   -0.4474   29.6769 N.ar    1  UNL1       -0.1286
     15 N           2.3936   -0.9391   31.0617 N.ar    1  UNL1       -0.1255
     16 C           3.8799   -0.8911   31.2579 C.ar    1  UNL1        0.2027
     17 N           4.4977   -0.3698   29.9942 N.ar    1  UNL1       -0.2909
     18 C           5.9627   -0.1596   29.7505 C.3     1  UNL1        0.1336
     19 N           1.6543    1.3397   19.1536 N.ar    1  UNL1       -0.2162
     20 N           0.4156    1.6959   18.3862 N.ar    1  UNL1       -0.1683
     21 C          -0.0684    3.0273   18.8793 C.ar    1  UNL1        0.0810
     22 C           0.8710    3.4939   19.9515 C.ar    1  UNL1        0.0509
     23 C           1.9357    2.4509   20.1210 C.ar    1  UNL1        0.1380
     24 C           4.9111   -3.6533   18.4730 C.3     1  UNL1        0.0310
     25 C           4.0969   -2.4050   18.6432 C.ar    1  UNL1       -0.0218
     26 C           4.1380   -1.3339   17.5939 C.ar    1  UNL1       -0.0027
     27 C           3.3238   -0.0857   17.7641 C.ar    1  UNL1        0.0189
     28 C           2.4685    0.0915   18.9834 C.ar    1  UNL1        0.0842
     29 C           2.4273   -0.9797   20.0327 C.ar    1  UNL1        0.0189
     30 C           3.2415   -2.2279   19.8626 C.ar    1  UNL1       -0.0027
     31 C          -1.2793    3.7628   18.3867 C.3     1  UNL1        0.0372
     32 C          -0.6459    3.8995   17.0339 C.3     1  UNL1        0.0060
     33 C          -1.9127    3.6261   19.7395 C.3     1  UNL1        0.0060
     34 C          -2.4902    4.4984   17.8940 C.3     1  UNL1        0.0060
@<TRIPOS>BOND
     1    24    25    1
     2    25    26   ar
     3    26    27   ar
     4    27    28   ar
     5    28    19    1
     6    19    20   ar
     7    20    21   ar
     8    21    31    1
     9    31    32    1
    10    31    33    1
    11    31    34    1
    12    21    22   ar
    13    22    23   ar
    14    23     1    1
    15     1     2   am
    16     2     3    2
    17     2     4   am
    18     4     7    1
    19     7     8   ar
    20     8     9   ar
    21     9    10   ar
    22    10    13    1
    23    13    14   ar
    24    14    15   ar
    25    15    16   ar
    26    16    17   ar
    27    17    18    1
    28    10    11   ar
    29    11    12   ar
    30    28    29   ar
    31    29    30   ar
    32    30    25   ar
    33    23    19   ar
    34    12     7   ar
    35    17    13   ar
    36     1     5    1
    37     4     6    1
