@<TRIPOS>MOLECULE
*****
 29 31 0 0 0
SMALL
GASTEIGER

@<TRIPOS>ATOM
      1 C          -7.9502  -17.8042   21.8873 C.ar    1  UNL1        0.1730
      2 C          -6.5203  -18.2098   22.0890 C.ar    1  UNL1        0.0401
      3 C          -5.9374  -19.3308   21.2806 C.ar    1  UNL1        0.0039
      4 C          -6.7845  -20.0463   20.2705 C.ar    1  UNL1        0.0034
      5 C          -8.2145  -19.6408   20.0688 C.ar    1  UNL1        0.0406
      6 C          -8.7973  -18.5198   20.8772 C.ar    1  UNL1        0.1790
      7 C          -4.5074  -19.7363   21.4824 C.2     1  UNL1        0.0113
      8 C          -3.4420  -19.2083   20.5680 C.2     1  UNL1        0.0873
      9 S          -3.6539  -18.2725   19.4150 S.3     1  UNL1       -0.0254
     10 C          -2.3205  -18.0092   18.7805 C.2     1  UNL1        0.2832
     11 O          -2.0676  -17.1276   17.5935 O.2     1  UNL1       -0.2622
     12 N          -1.2844  -18.7823   19.5413 N.am    1  UNL1       -0.2425
     13 C          -1.9775  -19.5233   20.6461 C.2     1  UNL1        0.2583
     14 O          -1.3213  -20.4217   21.6522 O.2     1  UNL1       -0.2692
     15 H          -0.3189  -18.8002   19.3493 H       1  UNL1        0.1587
     16 C          -7.6908  -15.4911   23.0415 C.3     1  UNL1        0.2526
     17 O          -8.5331  -16.6832   22.6958 O.3     1  UNL1       -0.4684
     18 O         -10.2274  -18.1142   20.6755 O.3     1  UNL1       -0.4496
     19 C         -11.2035  -18.2181   21.8096 C.ar    1  UNL1        0.1559
     20 C         -10.9826  -19.2248   22.8995 C.ar    1  UNL1        0.0383
     21 C         -11.9588  -19.3287   24.0336 C.ar    1  UNL1        0.0070
     22 C         -13.1559  -18.4259   24.0779 C.ar    1  UNL1        0.0725
     23 C         -13.3768  -17.4192   22.9881 C.ar    1  UNL1        0.0183
     24 C         -12.4006  -17.3153   21.8539 C.ar    1  UNL1        0.0920
     25 CL        -12.6215  -16.3087   20.7640 Cl      1  UNL1       -0.0791
     26 C         -14.1321  -18.5298   25.2120 C.3     1  UNL1        0.4186
     27 F         -15.1083  -18.6337   26.3461 F       1  UNL1       -0.1659
     28 F         -15.2687  -18.5342   24.2333 F       1  UNL1       -0.1659
     29 F         -12.9954  -18.5254   26.1907 F       1  UNL1       -0.1659
@<TRIPOS>BOND
     1    16    17    1
     2    17     1    1
     3     1     2   ar
     4     2     3   ar
     5     3     7    1
     6     7     8    2
     7     8     9    1
     8     9    10    1
     9    10    11    2
    10    10    12   am
    11    12    13   am
    12    13    14    2
    13     3     4   ar
    14     4     5   ar
    15     5     6   ar
    16     6    18    1
    17    18    19    1
    18    19    20   ar
    19    20    21   ar
    20    21    22   ar
    21    22    26    1
    22    26    27    1
    23    26    28    1
    24    26    29    1
    25    22    23   ar
    26    23    24   ar
    27    24    25    1
    28     6     1   ar
    29    24    19   ar
    30    13     8    1
    31    12    15    1
@<TRIPOS>MOLECULE
*****
 29 31 0 0 0
SMALL
GASTEIGER

@<TRIPOS>ATOM
      1 C          -6.5817  -17.6737   22.6704 C.ar    1  UNL1        0.1730
      2 C          -7.9370  -17.1640   22.2790 C.ar    1  UNL1        0.0401
      3 C          -8.8626  -18.0322   21.4793 C.ar    1  UNL1        0.0039
      4 C          -8.4329  -19.4100   21.0710 C.ar    1  UNL1        0.0034
      5 C          -7.0776  -19.9197   21.4624 C.ar    1  UNL1        0.0406
      6 C          -6.1519  -19.0515   22.2621 C.ar    1  UNL1        0.1790
      7 C         -10.2180  -17.5224   21.0880 C.2     1  UNL1        0.0113
      8 C         -11.3759  -17.6709   22.0299 C.2     1  UNL1        0.0873
      9 S         -11.3312  -18.3037   23.3892 S.3     1  UNL1       -0.0254
     10 C         -12.7094  -18.2366   23.9774 C.2     1  UNL1        0.2832
     11 O         -13.1191  -18.7531   25.3247 O.2     1  UNL1       -0.2622
     12 N         -13.6060  -17.5623   22.9817 N.am    1  UNL1       -0.2425
     13 C         -12.7818  -17.2127   21.7781 C.2     1  UNL1        0.2583
     14 O         -13.2767  -16.5255   20.5400 O.2     1  UNL1       -0.2692
     15 H         -14.5666  -17.3810   23.0977 H       1  UNL1        0.1587
     16 C          -6.0946  -15.4363   23.8980 C.3     1  UNL1        0.2526
     17 O          -5.6561  -16.8055   23.4701 O.3     1  UNL1       -0.4684
     18 O          -4.7965  -19.5613   22.6535 O.3     1  UNL1       -0.4496
     19 C          -3.5671  -18.9962   22.0062 C.ar    1  UNL1        0.1559
     20 C          -2.8284  -17.8652   22.6585 C.ar    1  UNL1        0.0383
     21 C          -1.5989  -17.3001   22.0112 C.ar    1  UNL1        0.0070
     22 C          -1.1081  -17.8659   20.7116 C.ar    1  UNL1        0.0725
     23 C          -1.8467  -18.9967   20.0593 C.ar    1  UNL1        0.0183
     24 C          -3.0762  -19.5619   20.7066 C.ar    1  UNL1        0.0920
     25 CL         -3.8148  -20.6928   20.0543 Cl      1  UNL1       -0.0791
     26 C           0.1214  -17.3008   20.0643 C.3     1  UNL1        0.4186
     27 F           1.3509  -16.7357   19.4170 F       1  UNL1       -0.1659
     28 F           0.5656  -18.6860   19.6986 F       1  UNL1       -0.1659
     29 F          -0.3228  -15.9155   20.4300 F       1  UNL1       -0.1659
@<TRIPOS>BOND
     1    16    17    1
     2    17     1    1
     3     1     2   ar
     4     2     3   ar
     5     3     7    1
     6     7     8    2
     7     8     9    1
     8     9    10    1
     9    10    11    2
    10    10    12   am
    11    12    13   am
    12    13    14    2
    13     3     4   ar
    14     4     5   ar
    15     5     6   ar
    16     6    18    1
    17    18    19    1
    18    19    20   ar
    19    20    21   ar
    20    21    22   ar
    21    22    26    1
    22    26    27    1
    23    26    28    1
    24    26    29    1
    25    22    23   ar
    26    23    24   ar
    27    24    25    1
    28     6     1   ar
    29    24    19   ar
    30    13     8    1
    31    12    15    1
@<TRIPOS>MOLECULE
*****
 29 31 0 0 0
SMALL
GASTEIGER

@<TRIPOS>ATOM
      1 C          -5.7881  -17.7366   23.1062 C.ar    1  UNL1        0.1730
      2 C          -4.3359  -17.6853   22.7345 C.ar    1  UNL1        0.0401
      3 C          -3.7184  -18.8149   21.9646 C.ar    1  UNL1        0.0039
      4 C          -4.5531  -19.9958   21.5664 C.ar    1  UNL1        0.0034
      5 C          -6.0054  -20.0471   21.9382 C.ar    1  UNL1        0.0406
      6 C          -6.6229  -18.9175   22.7080 C.ar    1  UNL1        0.1790
      7 C          -2.2660  -18.7635   21.5929 C.2     1  UNL1        0.0113
      8 C          -1.8570  -18.2895   20.2298 C.2     1  UNL1        0.0873
      9 S          -2.7823  -17.8373   19.1392 S.3     1  UNL1       -0.0254
     10 C          -1.9481  -17.4527   17.9533 C.2     1  UNL1        0.2832
     11 O          -2.4642  -16.9432   16.6403 O.2     1  UNL1       -0.2622
     12 N          -0.5072  -17.6671   18.3111 N.am    1  UNL1       -0.2425
     13 C          -0.4510  -18.1842   19.7180 C.2     1  UNL1        0.2583
     14 O           0.7930  -18.5346   20.4794 O.2     1  UNL1       -0.2692
     15 H           0.2658  -17.4981   17.7253 H       1  UNL1        0.1587
     16 C          -5.5373  -15.5248   24.4459 C.3     1  UNL1        0.2526
     17 O          -6.4056  -16.6070   23.8761 O.3     1  UNL1       -0.4684
     18 O          -8.0753  -18.9688   23.0797 O.3     1  UNL1       -0.4496
     19 C          -9.0841  -18.2099   22.2696 C.ar    1  UNL1        0.1559
     20 C          -9.3868  -18.6321   20.8624 C.ar    1  UNL1        0.0383
     21 C         -10.3956  -17.8732   20.0523 C.ar    1  UNL1        0.0070
     22 C         -11.1017  -16.6921   20.6493 C.ar    1  UNL1        0.0725
     23 C         -10.7990  -16.2699   22.0564 C.ar    1  UNL1        0.0183
     24 C          -9.7902  -17.0288   22.8667 C.ar    1  UNL1        0.0920
     25 CL         -9.4875  -16.6067   24.2738 Cl      1  UNL1       -0.0791
     26 C         -12.1105  -15.9332   19.8392 C.3     1  UNL1        0.4186
     27 F         -13.1193  -15.1742   19.0290 F       1  UNL1       -0.1659
     28 F         -11.0142  -15.4238   18.9512 F       1  UNL1       -0.1659
     29 F         -13.2068  -16.4426   20.7272 F       1  UNL1       -0.1659
@<TRIPOS>BOND
     1    16    17    1
     2    17     1    1
     3     1     2   ar
     4     2     3   ar
     5     3     7    1
     6     7     8    2
     7     8     9    1
     8     9    10    1
     9    10    11    2
    10    10    12   am
    11    12    13   am
    12    13    14    2
    13     3     4   ar
    14     4     5   ar
    15     5     6   ar
    16     6    18    1
    17    18    19    1
    18    19    20   ar
    19    20    21   ar
    20    21    22   ar
    21    22    26    1
    22    26    27    1
    23    26    28    1
    24    26    29    1
    25    22    23   ar
    26    23    24   ar
    27    24    25    1
    28     6     1   ar
    29    24    19   ar
    30    13     8    1
    31    12    15    1
@<TRIPOS>MOLECULE
*****
 29 31 0 0 0
SMALL
GASTEIGER

@<TRIPOS>ATOM
      1 C          -6.9454  -16.1664   24.5748 C.ar    1  UNL1        0.1730
      2 C          -8.4197  -16.3398   24.3602 C.ar    1  UNL1        0.0401
      3 C          -8.9192  -17.3260   23.3463 C.ar    1  UNL1        0.0039
      4 C          -7.9443  -18.1388   22.5471 C.ar    1  UNL1        0.0034
      5 C          -6.4700  -17.9654   22.7616 C.ar    1  UNL1        0.0406
      6 C          -5.9705  -16.9792   23.7755 C.ar    1  UNL1        0.1790
      7 C         -10.3937  -17.4993   23.1318 C.2     1  UNL1        0.0113
      8 C         -11.0491  -16.9114   21.9174 C.2     1  UNL1        0.0873
      9 S         -10.3631  -16.1293   20.8368 S.3     1  UNL1       -0.0254
     10 C         -11.3956  -15.7369   19.8219 C.2     1  UNL1        0.2832
     11 O         -11.1475  -14.9441   18.5729 O.2     1  UNL1       -0.2622
     12 N         -12.7197  -16.2765   20.2752 N.am    1  UNL1       -0.2425
     13 C         -12.5055  -17.0024   21.5703 C.2     1  UNL1        0.2583
     14 O         -13.5624  -17.6972   22.3767 O.2     1  UNL1       -0.2692
     15 H         -13.5786  -16.1725   19.8053 H       1  UNL1        0.1587
     16 C          -6.6320  -15.4499   27.0524 C.3     1  UNL1        0.2526
     17 O          -6.4459  -15.1802   25.5887 O.3     1  UNL1       -0.4684
     18 O          -4.4960  -16.8058   23.9901 O.3     1  UNL1       -0.4496
     19 C          -3.5389  -17.0631   22.8642 C.ar    1  UNL1        0.1559
     20 C          -2.7729  -15.9257   22.2561 C.ar    1  UNL1        0.0383
     21 C          -1.8158  -16.1831   21.1302 C.ar    1  UNL1        0.0070
     22 C          -1.6246  -17.5778   20.6123 C.ar    1  UNL1        0.0725
     23 C          -2.3906  -18.7151   21.2203 C.ar    1  UNL1        0.0183
     24 C          -3.3477  -18.4578   22.3462 C.ar    1  UNL1        0.0920
     25 CL         -4.1137  -19.5952   22.9542 Cl      1  UNL1       -0.0791
     26 C          -0.6675  -17.8351   19.4864 C.3     1  UNL1        0.4186
     27 F           0.2896  -18.0925   18.3604 F       1  UNL1       -0.1659
     28 F          -1.7406  -18.5741   18.7432 F       1  UNL1       -0.1659
     29 F           0.4055  -17.0961   20.2297 F       1  UNL1       -0.1659
@<TRIPOS>BOND
     1    16    17    1
     2    17     1    1
     3     1     2   ar
     4     2     3   ar
     5     3     7    1
     6     7     8    2
     7     8     9    1
     8     9    10    1
     9    10    11    2
    10    10    12   am
    11    12    13   am
    12    13    14    2
    13     3     4   ar
    14     4     5   ar
    15     5     6   ar
    16     6    18    1
    17    18    19    1
    18    19    20   ar
    19    20    21   ar
    20    21    22   ar
    21    22    26    1
    22    26    27    1
    23    26    28    1
    24    26    29    1
    25    22    23   ar
    26    23    24   ar
    27    24    25    1
    28     6     1   ar
    29    24    19   ar
    30    13     8    1
    31    12    15    1
@<TRIPOS>MOLECULE
*****
 29 31 0 0 0
SMALL
GASTEIGER

@<TRIPOS>ATOM
      1 C          -6.1718  -16.2155   23.8224 C.ar    1  UNL1        0.1730
      2 C          -4.9656  -17.0278   23.4543 C.ar    1  UNL1        0.0401
      3 C          -5.1121  -18.2280   22.5666 C.ar    1  UNL1        0.0039
      4 C          -6.4646  -18.6159   22.0469 C.ar    1  UNL1        0.0034
      5 C          -7.6707  -17.8037   22.4149 C.ar    1  UNL1        0.0406
      6 C          -7.5243  -16.6035   23.3027 C.ar    1  UNL1        0.1790
      7 C          -3.9058  -19.0402   22.1985 C.2     1  UNL1        0.0113
      8 C          -3.1544  -18.7373   20.9361 C.2     1  UNL1        0.0873
      9 S          -3.4885  -17.6591   19.9483 S.3     1  UNL1       -0.0254
     10 C          -2.4775  -17.7148   18.8416 C.2     1  UNL1        0.2832
     11 O          -2.4332  -16.8157   17.6418 O.2     1  UNL1       -0.2622
     12 N          -1.5186  -18.8276   19.1454 N.am    1  UNL1       -0.2425
     13 C          -1.9369  -19.4595   20.4399 C.2     1  UNL1        0.2583
     14 O          -1.2571  -20.6114   21.1189 O.2     1  UNL1       -0.2692
     15 H          -0.7496  -19.0960   18.5924 H       1  UNL1        0.1587
     16 C          -5.7587  -15.1943   26.1754 C.3     1  UNL1        0.2526
     17 O          -6.0253  -15.0154   24.7102 O.3     1  UNL1       -0.4684
     18 O          -8.7305  -15.7912   23.6708 O.3     1  UNL1       -0.4496
     19 C         -10.0877  -16.4296   23.6882 C.ar    1  UNL1        0.1559
     20 C         -11.1652  -15.9261   22.7742 C.ar    1  UNL1        0.0383
     21 C         -12.5225  -16.5644   22.7917 C.ar    1  UNL1        0.0070
     22 C         -12.8023  -17.7063   23.7232 C.ar    1  UNL1        0.0725
     23 C         -11.7248  -18.2099   24.6372 C.ar    1  UNL1        0.0183
     24 C         -10.3675  -17.5715   24.6198 C.ar    1  UNL1        0.0920
     25 CL         -9.2901  -18.0751   25.5338 Cl      1  UNL1       -0.0791
     26 C         -14.1595  -18.3447   23.7407 C.3     1  UNL1        0.4186
     27 F         -15.5168  -18.9831   23.7582 F       1  UNL1       -0.1659
     28 F         -14.0896  -18.4524   25.2351 F       1  UNL1       -0.1659
     29 F         -14.2294  -18.2370   22.2462 F       1  UNL1       -0.1659
@<TRIPOS>BOND
     1    16    17    1
     2    17     1    1
     3     1     2   ar
     4     2     3   ar
     5     3     7    1
     6     7     8    2
     7     8     9    1
     8     9    10    1
     9    10    11    2
    10    10    12   am
    11    12    13   am
    12    13    14    2
    13     3     4   ar
    14     4     5   ar
    15     5     6   ar
    16     6    18    1
    17    18    19    1
    18    19    20   ar
    19    20    21   ar
    20    21    22   ar
    21    22    26    1
    22    26    27    1
    23    26    28    1
    24    26    29    1
    25    22    23   ar
    26    23    24   ar
    27    24    25    1
    28     6     1   ar
    29    24    19   ar
    30    13     8    1
    31    12    15    1
@<TRIPOS>MOLECULE
*****
 29 31 0 0 0
SMALL
GASTEIGER

@<TRIPOS>ATOM
      1 C          -7.0514  -19.8841   20.8208 C.ar    1  UNL1        0.1730
      2 C          -8.3879  -19.2967   20.4764 C.ar    1  UNL1        0.0401
      3 C          -8.9026  -18.1086   21.2337 C.ar    1  UNL1        0.0039
      4 C          -8.0809  -17.5079   22.3355 C.ar    1  UNL1        0.0034
      5 C          -6.7444  -18.0953   22.6799 C.ar    1  UNL1        0.0406
      6 C          -6.2296  -19.2834   21.9226 C.ar    1  UNL1        0.1790
      7 C         -10.2392  -17.5212   20.8893 C.2     1  UNL1        0.0113
      8 C         -11.3843  -17.6483   21.8498 C.2     1  UNL1        0.0873
      9 S         -11.3437  -18.3310   23.1848 S.3     1  UNL1       -0.0254
     10 C         -12.7054  -18.2196   23.8041 C.2     1  UNL1        0.2832
     11 O         -13.1132  -18.7642   25.1409 O.2     1  UNL1       -0.2622
     12 N         -13.5876  -17.4680   22.8518 N.am    1  UNL1       -0.2425
     13 C         -12.7711  -17.1149   21.6440 C.2     1  UNL1        0.2583
     14 O         -13.2563  -16.3608   20.4415 O.2     1  UNL1       -0.2692
     15 H         -14.5359  -17.2455   22.9945 H       1  UNL1        0.1587
     16 C          -7.3327  -21.6384   18.9253 C.3     1  UNL1        0.2526
     17 O          -6.5367  -21.0721   20.0635 O.3     1  UNL1       -0.4684
     18 O          -4.8930  -19.8708   22.2670 O.3     1  UNL1       -0.4496
     19 C          -3.6388  -19.2462   21.7315 C.ar    1  UNL1        0.1559
     20 C          -3.0829  -19.6928   20.4118 C.ar    1  UNL1        0.0383
     21 C          -1.8287  -19.0682   19.8763 C.ar    1  UNL1        0.0070
     22 C          -1.1303  -17.9970   20.6605 C.ar    1  UNL1        0.0725
     23 C          -1.6862  -17.5504   21.9801 C.ar    1  UNL1        0.0183
     24 C          -2.9405  -18.1750   22.5157 C.ar    1  UNL1        0.0920
     25 CL         -3.4963  -17.7284   23.8353 Cl      1  UNL1       -0.0791
     26 C           0.1239  -17.3724   20.1250 C.3     1  UNL1        0.4186
     27 F           1.3782  -16.7479   19.5894 F       1  UNL1       -0.1659
     28 F           0.6603  -18.7335   19.7939 F       1  UNL1       -0.1659
     29 F          -0.4126  -16.0114   20.4560 F       1  UNL1       -0.1659
@<TRIPOS>BOND
     1    16    17    1
     2    17     1    1
     3     1     2   ar
     4     2     3   ar
     5     3     7    1
     6     7     8    2
     7     8     9    1
     8     9    10    1
     9    10    11    2
    10    10    12   am
    11    12    13   am
    12    13    14    2
    13     3     4   ar
    14     4     5   ar
    15     5     6   ar
    16     6    18    1
    17    18    19    1
    18    19    20   ar
    19    20    21   ar
    20    21    22   ar
    21    22    26    1
    22    26    27    1
    23    26    28    1
    24    26    29    1
    25    22    23   ar
    26    23    24   ar
    27    24    25    1
    28     6     1   ar
    29    24    19   ar
    30    13     8    1
    31    12    15    1
@<TRIPOS>MOLECULE
*****
 29 31 0 0 0
SMALL
GASTEIGER

@<TRIPOS>ATOM
      1 C          -7.8084  -20.4218   19.9615 C.ar    1  UNL1        0.1730
      2 C          -9.1407  -19.9422   20.4564 C.ar    1  UNL1        0.0401
      3 C          -9.2525  -19.3018   21.8082 C.ar    1  UNL1        0.0039
      4 C          -8.0320  -19.1410   22.6652 C.ar    1  UNL1        0.0034
      5 C          -6.6997  -19.6205   22.1703 C.ar    1  UNL1        0.0406
      6 C          -6.5879  -20.2609   20.8185 C.ar    1  UNL1        0.1790
      7 C         -10.5849  -18.8223   22.3030 C.2     1  UNL1        0.0113
      8 C         -11.3131  -17.7382   21.5650 C.2     1  UNL1        0.0873
      9 S         -10.8367  -17.0427   20.3244 S.3     1  UNL1       -0.0254
     10 C         -11.8747  -16.0339   19.9308 C.2     1  UNL1        0.2832
     11 O         -11.8066  -15.1145   18.7475 O.2     1  UNL1       -0.2622
     12 N         -12.9928  -16.1061   20.9281 N.am    1  UNL1       -0.2425
     13 C         -12.6457  -17.1594   21.9381 C.2     1  UNL1        0.2583
     14 O         -13.4840  -17.5629   23.1147 O.2     1  UNL1       -0.2692
     15 H         -13.8108  -15.5583   20.9211 H       1  UNL1        0.1587
     16 C          -8.9204  -21.2415   17.7612 C.3     1  UNL1        0.2526
     17 O          -7.6965  -21.0622   18.6097 O.3     1  UNL1       -0.4684
     18 O          -5.2554  -20.7405   20.3237 O.3     1  UNL1       -0.4496
     19 C          -4.0858  -19.8020   20.2902 C.ar    1  UNL1        0.1559
     20 C          -3.7348  -19.0860   19.0197 C.ar    1  UNL1        0.0383
     21 C          -2.5652  -18.1475   18.9862 C.ar    1  UNL1        0.0070
     22 C          -1.7464  -17.9251   20.2232 C.ar    1  UNL1        0.0725
     23 C          -2.0973  -18.6411   21.4937 C.ar    1  UNL1        0.0183
     24 C          -3.2670  -19.5796   21.5272 C.ar    1  UNL1        0.0920
     25 CL         -3.6179  -20.2956   22.7977 Cl      1  UNL1       -0.0791
     26 C          -0.5767  -16.9867   20.1897 C.3     1  UNL1        0.4186
     27 F           0.5930  -16.0481   20.1562 F       1  UNL1       -0.1659
     28 F          -1.2948  -16.0583   21.1237 F       1  UNL1       -0.1659
     29 F           0.1413  -17.9150   19.2556 F       1  UNL1       -0.1659
@<TRIPOS>BOND
     1    16    17    1
     2    17     1    1
     3     1     2   ar
     4     2     3   ar
     5     3     7    1
     6     7     8    2
     7     8     9    1
     8     9    10    1
     9    10    11    2
    10    10    12   am
    11    12    13   am
    12    13    14    2
    13     3     4   ar
    14     4     5   ar
    15     5     6   ar
    16     6    18    1
    17    18    19    1
    18    19    20   ar
    19    20    21   ar
    20    21    22   ar
    21    22    26    1
    22    26    27    1
    23    26    28    1
    24    26    29    1
    25    22    23   ar
    26    23    24   ar
    27    24    25    1
    28     6     1   ar
    29    24    19   ar
    30    13     8    1
    31    12    15    1
@<TRIPOS>MOLECULE
*****
 29 31 0 0 0
SMALL
GASTEIGER

@<TRIPOS>ATOM
      1 C          -6.8599  -19.7723   22.2923 C.ar    1  UNL1        0.1730
      2 C          -8.3554  -19.6588   22.2758 C.ar    1  UNL1        0.0401
      3 C          -9.0163  -18.3893   22.7247 C.ar    1  UNL1        0.0039
      4 C          -8.1816  -17.2332   23.1902 C.ar    1  UNL1        0.0034
      5 C          -6.6860  -17.3467   23.2067 C.ar    1  UNL1        0.0406
      6 C          -6.0251  -18.6162   22.7577 C.ar    1  UNL1        0.1790
      7 C         -10.5120  -18.2758   22.7082 C.2     1  UNL1        0.0113
      8 C         -11.1875  -17.4154   21.6819 C.2     1  UNL1        0.0873
      9 S         -10.5031  -16.6138   20.6148 S.3     1  UNL1       -0.0254
     10 C         -11.5587  -15.9085   19.8159 C.2     1  UNL1        0.2832
     11 O         -11.3194  -14.9974   18.6486 O.2     1  UNL1       -0.2622
     12 N         -12.8957  -16.2742   20.3893 N.am    1  UNL1       -0.2425
     13 C         -12.6662  -17.2056   21.5426 C.2     1  UNL1        0.2583
     14 O         -13.7290  -17.8193   22.4051 O.2     1  UNL1       -0.2692
     15 H         -13.7701  -15.9585   20.0656 H       1  UNL1        0.1587
     16 C          -6.1935  -21.4110   20.3895 C.3     1  UNL1        0.2526
     17 O          -6.1990  -21.0418   21.8434 O.3     1  UNL1       -0.4684
     18 O          -4.5295  -18.7296   22.7742 O.3     1  UNL1       -0.4496
     19 C          -3.7440  -18.4732   21.5224 C.ar    1  UNL1        0.1559
     20 C          -3.9685  -19.3251   20.3083 C.ar    1  UNL1        0.0383
     21 C          -3.1831  -19.0686   19.0564 C.ar    1  UNL1        0.0070
     22 C          -2.1730  -17.9602   19.0185 C.ar    1  UNL1        0.0725
     23 C          -1.9485  -17.1084   20.2325 C.ar    1  UNL1        0.0183
     24 C          -2.7340  -17.3648   21.4845 C.ar    1  UNL1        0.0920
     25 CL         -2.5094  -16.5129   22.6985 Cl      1  UNL1       -0.0791
     26 C          -1.3876  -17.7038   17.7667 C.3     1  UNL1        0.4186
     27 F          -0.6021  -17.4473   16.5147 F       1  UNL1       -0.1659
     28 F          -2.5975  -17.0816   17.1350 F       1  UNL1       -0.1659
     29 F          -0.1777  -18.3259   18.3984 F       1  UNL1       -0.1659
@<TRIPOS>BOND
     1    16    17    1
     2    17     1    1
     3     1     2   ar
     4     2     3   ar
     5     3     7    1
     6     7     8    2
     7     8     9    1
     8     9    10    1
     9    10    11    2
    10    10    12   am
    11    12    13   am
    12    13    14    2
    13     3     4   ar
    14     4     5   ar
    15     5     6   ar
    16     6    18    1
    17    18    19    1
    18    19    20   ar
    19    20    21   ar
    20    21    22   ar
    21    22    26    1
    22    26    27    1
    23    26    28    1
    24    26    29    1
    25    22    23   ar
    26    23    24   ar
    27    24    25    1
    28     6     1   ar
    29    24    19   ar
    30    13     8    1
    31    12    15    1
@<TRIPOS>MOLECULE
*****
 29 31 0 0 0
SMALL
GASTEIGER

@<TRIPOS>ATOM
      1 C           1.9474    1.9608   21.6708 C.ar    1  UNL1        0.1730
      2 C           2.6944    0.6601   21.6847 C.ar    1  UNL1        0.0401
      3 C           2.1760   -0.5109   20.9036 C.ar    1  UNL1        0.0039
      4 C           0.9107   -0.3811   20.1085 C.ar    1  UNL1        0.0034
      5 C           0.1638    0.9195   20.0945 C.ar    1  UNL1        0.0406
      6 C           0.6822    2.0905   20.8757 C.ar    1  UNL1        0.1790
      7 C           2.9230   -1.8116   20.9176 C.2     1  UNL1        0.0113
      8 C           4.0589   -2.0345   19.9635 C.2     1  UNL1        0.0873
      9 S           4.5592   -1.0545   18.9440 S.3     1  UNL1       -0.0254
     10 C           5.7034   -1.6908   18.2119 C.2     1  UNL1        0.2832
     11 O           6.5007   -1.0638   17.1068 O.2     1  UNL1       -0.2622
     12 N           5.9101   -3.0640   18.7788 N.am    1  UNL1       -0.2425
     13 C           4.8938   -3.2764   19.8614 C.2     1  UNL1        0.2583
     14 O           4.7395   -4.5136   20.6954 O.2     1  UNL1       -0.2692
     15 H           6.5930   -3.7121   18.4909 H       1  UNL1        0.1587
     16 C           2.8302    2.9668   23.8975 C.3     1  UNL1        0.2526
     17 O           2.4658    3.1317   22.4519 O.3     1  UNL1       -0.4684
     18 O          -0.0649    3.3913   20.8617 O.3     1  UNL1       -0.4496
     19 C          -1.4977    3.4380   21.3029 C.ar    1  UNL1        0.1559
     20 C          -2.5984    3.3391   20.2886 C.ar    1  UNL1        0.0383
     21 C          -4.0313    3.3859   20.7297 C.ar    1  UNL1        0.0070
     22 C          -4.3635    3.5316   22.1852 C.ar    1  UNL1        0.0725
     23 C          -3.2629    3.6305   23.1995 C.ar    1  UNL1        0.0183
     24 C          -1.8300    3.5837   22.7583 C.ar    1  UNL1        0.0920
     25 CL         -0.7294    3.6827   23.7726 Cl      1  UNL1       -0.0791
     26 C          -5.7964    3.5783   22.6264 C.3     1  UNL1        0.4186
     27 F          -7.2293    3.6251   23.0675 F       1  UNL1       -0.1659
     28 F          -6.2164    3.9161   21.2266 F       1  UNL1       -0.1659
     29 F          -5.3764    3.2406   24.0262 F       1  UNL1       -0.1659
@<TRIPOS>BOND
     1    16    17    1
     2    17     1    1
     3     1     2   ar
     4     2     3   ar
     5     3     7    1
     6     7     8    2
     7     8     9    1
     8     9    10    1
     9    10    11    2
    10    10    12   am
    11    12    13   am
    12    13    14    2
    13     3     4   ar
    14     4     5   ar
    15     5     6   ar
    16     6    18    1
    17    18    19    1
    18    19    20   ar
    19    20    21   ar
    20    21    22   ar
    21    22    26    1
    22    26    27    1
    23    26    28    1
    24    26    29    1
    25    22    23   ar
    26    23    24   ar
    27    24    25    1
    28     6     1   ar
    29    24    19   ar
    30    13     8    1
    31    12    15    1
