@<TRIPOS>MOLECULE
*****
 31 35 0 0 0
SMALL
GASTEIGER

@<TRIPOS>ATOM
      1 C           6.3980   -1.4360   18.4727 C.ar    1  UNL1        0.1388
      2 C           7.4445   -2.3401   19.0540 C.ar    1  UNL1        0.0384
      3 C           7.2624   -2.9111   20.4291 C.ar    1  UNL1        0.0221
      4 C           6.0340   -2.5781   21.2229 C.ar    1  UNL1        0.0827
      5 C           4.9877   -1.6740   20.6417 C.ar    1  UNL1        0.0217
      6 C           5.1697   -1.1031   19.2666 C.ar    1  UNL1        0.0384
      7 C           3.8898   -1.5253   21.6530 C.ar    1  UNL1        0.0163
      8 C           4.2578   -2.3374   22.8592 C.ar    1  UNL1        0.0996
      9 N           5.5829   -2.9881   22.5934 N.ar    1  UNL1       -0.2077
     10 C           2.6431   -0.7080   21.4872 C.2     1  UNL1       -0.0222
     11 C           2.2698    0.3095   22.5242 C.2     1  UNL1       -0.0132
     12 C           1.0231    1.1268   22.3584 C.3     1  UNL1        0.0950
     13 N           0.1496    0.9267   21.1555 N.3     1  UNL1       -0.2935
     14 C           0.5228   -0.0907   20.1184 C.3     1  UNL1        0.0735
     15 C           1.7696   -0.9080   20.2842 C.3     1  UNL1        0.0432
     16 H           0.0945    1.8267   20.6786 H       1  UNL1        0.1236
     17 S           6.3264   -3.8903   23.5332 S.O2    1  UNL1        0.0860
     18 O           6.0080   -2.9670   24.6716 O.2     1  UNL1       -0.1476
     19 O           6.6449   -4.8136   22.3948 O.2     1  UNL1       -0.1476
     20 C           7.0700   -4.7926   24.4730 C.ar    1  UNL1        0.1292
     21 C           8.0417   -5.8002   23.9339 C.ar    1  UNL1        0.0205
     22 C           8.7852   -6.7024   24.8737 C.ar    1  UNL1        0.0029
     23 C           8.5570   -6.5970   26.3525 C.ar    1  UNL1        0.0178
     24 C           9.3006   -7.4992   27.2922 C.ar    1  UNL1        0.0031
     25 C           9.0724   -7.3939   28.7710 C.ar    1  UNL1        0.0207
     26 C           8.1007   -6.3863   29.3100 C.ar    1  UNL1        0.0988
     27 N           7.3572   -5.4840   28.3703 N.ar    1  UNL1       -0.2438
     28 C           7.5854   -5.5894   26.8916 C.ar    1  UNL1        0.0827
     29 C           6.8418   -4.6872   25.9517 C.ar    1  UNL1        0.0395
     30 C           6.2925    0.5850   16.8436 C.3     1  UNL1        0.2525
     31 O           6.5801   -0.8651   17.0977 O.3     1  UNL1       -0.4714
@<TRIPOS>BOND
     1    30    31    1
     2    31     1    1
     3     1     2   ar
     4     2     3   ar
     5     3     4   ar
     6     4     5   ar
     7     5     6   ar
     8     5     7   ar
     9     7    10    1
    10    10    11    2
    11    11    12    1
    12    12    13    1
    13    13    14    1
    14    14    15    1
    15     7     8   ar
    16     8     9   ar
    17     9    17    1
    18    17    18    2
    19    17    19    2
    20    17    20    1
    21    20    21   ar
    22    21    22   ar
    23    22    23   ar
    24    23    24   ar
    25    24    25   ar
    26    25    26   ar
    27    26    27   ar
    28    27    28   ar
    29    28    29   ar
    30     6     1   ar
    31    15    10    1
    32    29    20   ar
    33     9     4   ar
    34    28    23   ar
    35    13    16    1
@<TRIPOS>MOLECULE
*****
 31 35 0 0 0
SMALL
GASTEIGER

@<TRIPOS>ATOM
      1 C           1.7243    2.5620   32.8537 C.ar    1  UNL1        0.1388
      2 C           2.0335    1.6806   31.6800 C.ar    1  UNL1        0.0384
      3 C           3.0232    0.5623   31.8219 C.ar    1  UNL1        0.0221
      4 C           3.7038    0.3256   33.1376 C.ar    1  UNL1        0.0827
      5 C           3.3946    1.2070   34.3112 C.ar    1  UNL1        0.0217
      6 C           2.4049    2.3251   34.1693 C.ar    1  UNL1        0.0384
      7 C           4.2161    0.7353   35.4743 C.ar    1  UNL1        0.0163
      8 C           5.0331   -0.4375   35.0194 C.ar    1  UNL1        0.0996
      9 N           4.7164   -0.6908   33.5752 N.ar    1  UNL1       -0.2077
     10 C           4.2201    1.3319   36.8506 C.2     1  UNL1       -0.0222
     11 C           5.4912    1.8831   37.4254 C.2     1  UNL1       -0.0132
     12 C           5.4951    2.4797   38.8016 C.3     1  UNL1        0.0950
     13 N           4.2279    2.5249   39.6031 N.3     1  UNL1       -0.2935
     14 C           2.9568    1.9736   39.0283 C.3     1  UNL1        0.0735
     15 C           2.9529    1.3771   37.6520 C.3     1  UNL1        0.0432
     16 H           4.0518    3.5058   39.8203 H       1  UNL1        0.1236
     17 S           5.3084   -1.7708   32.7190 S.O2    1  UNL1        0.0860
     18 O           6.5392   -0.9372   32.5186 O.2     1  UNL1       -0.1476
     19 O           4.0776   -2.6044   32.9195 O.2     1  UNL1       -0.1476
     20 C           5.9005   -2.8508   31.8628 C.ar    1  UNL1        0.1292
     21 C           6.3169   -4.1532   32.4796 C.ar    1  UNL1        0.0205
     22 C           6.9090   -5.2331   31.6234 C.ar    1  UNL1        0.0029
     23 C           7.0846   -5.0108   30.1504 C.ar    1  UNL1        0.0178
     24 C           7.6767   -6.0908   29.2942 C.ar    1  UNL1        0.0031
     25 C           7.8523   -5.8684   27.8213 C.ar    1  UNL1        0.0207
     26 C           7.4359   -4.5661   27.2044 C.ar    1  UNL1        0.0988
     27 N           6.8438   -3.4861   28.0606 N.ar    1  UNL1       -0.2438
     28 C           6.6682   -3.7084   29.5336 C.ar    1  UNL1        0.0827
     29 C           6.0761   -2.6284   30.3898 C.ar    1  UNL1        0.0395
     30 C           0.7322    4.8094   33.6990 C.3     1  UNL1        0.2525
     31 O           0.7346    3.6801   32.7118 O.3     1  UNL1       -0.4714
@<TRIPOS>BOND
     1    30    31    1
     2    31     1    1
     3     1     2   ar
     4     2     3   ar
     5     3     4   ar
     6     4     5   ar
     7     5     6   ar
     8     5     7   ar
     9     7    10    1
    10    10    11    2
    11    11    12    1
    12    12    13    1
    13    13    14    1
    14    14    15    1
    15     7     8   ar
    16     8     9   ar
    17     9    17    1
    18    17    18    2
    19    17    19    2
    20    17    20    1
    21    20    21   ar
    22    21    22   ar
    23    22    23   ar
    24    23    24   ar
    25    24    25   ar
    26    25    26   ar
    27    26    27   ar
    28    27    28   ar
    29    28    29   ar
    30     6     1   ar
    31    15    10    1
    32    29    20   ar
    33     9     4   ar
    34    28    23   ar
    35    13    16    1
@<TRIPOS>MOLECULE
*****
 31 35 0 0 0
SMALL
GASTEIGER

@<TRIPOS>ATOM
      1 C           3.1967   -0.5512   24.5732 C.ar    1  UNL1        0.1388
      2 C           2.2553    0.6139   24.4928 C.ar    1  UNL1        0.0384
      3 C           1.6699    1.0153   23.1713 C.ar    1  UNL1        0.0221
      4 C           2.0260    0.2516   21.9303 C.ar    1  UNL1        0.0827
      5 C           2.9673   -0.9134   22.0107 C.ar    1  UNL1        0.0217
      6 C           3.5527   -1.3148   23.3322 C.ar    1  UNL1        0.0384
      7 C           3.1323   -1.4724   20.6285 C.ar    1  UNL1        0.0163
      8 C           2.2929   -0.6527   19.6939 C.ar    1  UNL1        0.0996
      9 N           1.6091    0.4127   20.4984 N.ar    1  UNL1       -0.2077
     10 C           3.9867   -2.6450   20.2478 C.2     1  UNL1       -0.0222
     11 C           3.4317   -3.7213   19.3627 C.2     1  UNL1       -0.0132
     12 C           4.2860   -4.8940   18.9820 C.3     1  UNL1        0.0950
     13 N           5.6954   -4.9903   19.4865 N.3     1  UNL1       -0.2935
     14 C           6.2504   -3.9140   20.3717 C.3     1  UNL1        0.0735
     15 C           5.3960   -2.7414   20.7523 C.3     1  UNL1        0.0432
     16 H           6.2993   -5.0372   18.6659 H       1  UNL1        0.1236
     17 S           0.6729    1.4561   19.9648 S.O2    1  UNL1        0.0860
     18 O          -0.4962    0.6716   20.4820 O.2     1  UNL1       -0.1476
     19 O           1.8421    2.2407   19.4476 O.2     1  UNL1       -0.1476
     20 C          -0.2634    2.4996   19.4311 C.ar    1  UNL1        0.1292
     21 C          -0.0145    3.1125   18.0849 C.ar    1  UNL1        0.0205
     22 C          -0.9507    4.1559   17.5512 C.ar    1  UNL1        0.0029
     23 C          -2.1359    4.5864   18.3638 C.ar    1  UNL1        0.0178
     24 C          -3.0721    5.6297   17.8302 C.ar    1  UNL1        0.0031
     25 C          -4.2571    6.0602   18.6428 C.ar    1  UNL1        0.0207
     26 C          -4.5060    5.4472   19.9890 C.ar    1  UNL1        0.0988
     27 N          -3.5698    4.4038   20.5227 N.ar    1  UNL1       -0.2438
     28 C          -2.3847    3.9734   19.7101 C.ar    1  UNL1        0.0827
     29 C          -1.4484    2.9300   20.2437 C.ar    1  UNL1        0.0395
     30 C           3.1932   -0.4219   27.1680 C.3     1  UNL1        0.2525
     31 O           3.7821   -0.9526   25.8946 O.3     1  UNL1       -0.4714
@<TRIPOS>BOND
     1    30    31    1
     2    31     1    1
     3     1     2   ar
     4     2     3   ar
     5     3     4   ar
     6     4     5   ar
     7     5     6   ar
     8     5     7   ar
     9     7    10    1
    10    10    11    2
    11    11    12    1
    12    12    13    1
    13    13    14    1
    14    14    15    1
    15     7     8   ar
    16     8     9   ar
    17     9    17    1
    18    17    18    2
    19    17    19    2
    20    17    20    1
    21    20    21   ar
    22    21    22   ar
    23    22    23   ar
    24    23    24   ar
    25    24    25   ar
    26    25    26   ar
    27    26    27   ar
    28    27    28   ar
    29    28    29   ar
    30     6     1   ar
    31    15    10    1
    32    29    20   ar
    33     9     4   ar
    34    28    23   ar
    35    13    16    1
@<TRIPOS>MOLECULE
*****
 31 35 0 0 0
SMALL
GASTEIGER

@<TRIPOS>ATOM
      1 C          -1.9403    3.6928   24.9537 C.ar    1  UNL1        0.1388
      2 C          -0.6514    2.9366   24.8231 C.ar    1  UNL1        0.0384
      3 C          -0.1719    2.4997   23.4705 C.ar    1  UNL1        0.0221
      4 C          -0.9813    2.8191   22.2487 C.ar    1  UNL1        0.0827
      5 C          -2.2701    3.5753   22.3793 C.ar    1  UNL1        0.0217
      6 C          -2.7496    4.0121   23.7318 C.ar    1  UNL1        0.0384
      7 C          -2.8496    3.7445   21.0061 C.ar    1  UNL1        0.0163
      8 C          -1.9188    3.0929   20.0268 C.ar    1  UNL1        0.0996
      9 N          -0.7641    2.5210   20.7947 N.ar    1  UNL1       -0.2077
     10 C          -4.1341    4.4427   20.6710 C.2     1  UNL1       -0.0222
     11 C          -5.3407    3.6442   20.2754 C.2     1  UNL1       -0.0132
     12 C          -6.6253    4.3424   19.9403 C.3     1  UNL1        0.0950
     13 N          -6.7033    5.8392   20.0010 N.3     1  UNL1       -0.2935
     14 C          -5.4968    6.6377   20.3966 C.3     1  UNL1        0.0735
     15 C          -4.2122    5.9395   20.7317 C.3     1  UNL1        0.0432
     16 H          -7.4401    6.0688   20.6679 H       1  UNL1        0.1236
     17 S           0.4028    1.7809   20.2112 S.O2    1  UNL1        0.0860
     18 O           1.0582    3.0855   19.8673 O.2     1  UNL1       -0.1476
     19 O          -0.2527    0.4763   20.5552 O.2     1  UNL1       -0.1476
     20 C           1.5697    1.0407   19.6277 C.ar    1  UNL1        0.1292
     21 C           2.5282    1.7498   18.7174 C.ar    1  UNL1        0.0205
     22 C           3.6952    1.0097   18.1338 C.ar    1  UNL1        0.0029
     23 C           3.9037   -0.4394   18.4606 C.ar    1  UNL1        0.0178
     24 C           5.0706   -1.1794   17.8770 C.ar    1  UNL1        0.0031
     25 C           5.2790   -2.6285   18.2037 C.ar    1  UNL1        0.0207
     26 C           4.3205   -3.3375   19.1140 C.ar    1  UNL1        0.0988
     27 N           3.1536   -2.5974   19.6975 N.ar    1  UNL1       -0.2438
     28 C           2.9452   -1.1484   19.3708 C.ar    1  UNL1        0.0827
     29 C           1.7782   -0.4083   19.9544 C.ar    1  UNL1        0.0395
     30 C          -3.8629    3.9633   26.6801 C.3     1  UNL1        0.2525
     31 O          -2.4198    4.1296   26.3062 O.3     1  UNL1       -0.4714
@<TRIPOS>BOND
     1    30    31    1
     2    31     1    1
     3     1     2   ar
     4     2     3   ar
     5     3     4   ar
     6     4     5   ar
     7     5     6   ar
     8     5     7   ar
     9     7    10    1
    10    10    11    2
    11    11    12    1
    12    12    13    1
    13    13    14    1
    14    14    15    1
    15     7     8   ar
    16     8     9   ar
    17     9    17    1
    18    17    18    2
    19    17    19    2
    20    17    20    1
    21    20    21   ar
    22    21    22   ar
    23    22    23   ar
    24    23    24   ar
    25    24    25   ar
    26    25    26   ar
    27    26    27   ar
    28    27    28   ar
    29    28    29   ar
    30     6     1   ar
    31    15    10    1
    32    29    20   ar
    33     9     4   ar
    34    28    23   ar
    35    13    16    1
@<TRIPOS>MOLECULE
*****
 31 35 0 0 0
SMALL
GASTEIGER

@<TRIPOS>ATOM
      1 C           7.7674   -5.3763   29.8586 C.ar    1  UNL1        0.1388
      2 C           7.3841   -5.4970   28.4133 C.ar    1  UNL1        0.0384
      3 C           6.5847   -4.4109   27.7563 C.ar    1  UNL1        0.0221
      4 C           6.1687   -3.2044   28.5444 C.ar    1  UNL1        0.0827
      5 C           6.5520   -3.0838   29.9896 C.ar    1  UNL1        0.0217
      6 C           7.3514   -4.1698   30.6466 C.ar    1  UNL1        0.0384
      7 C           6.0031   -1.7877   30.5082 C.ar    1  UNL1        0.0163
      8 C           5.2806   -1.1073   29.3835 C.ar    1  UNL1        0.0996
      9 N           5.3829   -1.9828   28.1699 N.ar    1  UNL1       -0.2077
     10 C           6.1508   -1.2641   31.9061 C.2     1  UNL1       -0.0222
     11 C           5.0862   -1.5390   32.9263 C.2     1  UNL1       -0.0132
     12 C           5.2339   -1.0153   34.3242 C.3     1  UNL1        0.0950
     13 N           6.4462   -0.2167   34.7017 N.3     1  UNL1       -0.2935
     14 C           7.5108    0.0582   33.6814 C.3     1  UNL1        0.0735
     15 C           7.3631   -0.4654   32.2836 C.3     1  UNL1        0.0432
     16 H           6.8968   -0.7116   35.4714 H       1  UNL1        0.1236
     17 S           4.8016   -1.6885   26.8188 S.O2    1  UNL1        0.0860
     18 O           6.1795   -1.4432   26.2793 O.2     1  UNL1       -0.1476
     19 O           3.4236   -1.9338   27.3583 O.2     1  UNL1       -0.1476
     20 C           4.2202   -1.3942   25.4677 C.ar    1  UNL1        0.1292
     21 C           3.2590   -0.2554   25.2967 C.ar    1  UNL1        0.0205
     22 C           2.6776    0.0390   23.9457 C.ar    1  UNL1        0.0029
     23 C           3.0575   -0.8054   22.7655 C.ar    1  UNL1        0.0178
     24 C           2.4762   -0.5111   21.4145 C.ar    1  UNL1        0.0031
     25 C           2.8561   -1.3554   20.2344 C.ar    1  UNL1        0.0207
     26 C           3.8174   -2.4942   20.4054 C.ar    1  UNL1        0.0988
     27 N           4.3987   -2.7886   21.7564 N.ar    1  UNL1       -0.2438
     28 C           4.0188   -1.9442   22.9365 C.ar    1  UNL1        0.0827
     29 C           4.6001   -2.2385   24.2876 C.ar    1  UNL1        0.0395
     30 C           9.5135   -7.2937   29.7017 C.3     1  UNL1        0.2525
     31 O           8.5668   -6.4623   30.5156 O.3     1  UNL1       -0.4714
@<TRIPOS>BOND
     1    30    31    1
     2    31     1    1
     3     1     2   ar
     4     2     3   ar
     5     3     4   ar
     6     4     5   ar
     7     5     6   ar
     8     5     7   ar
     9     7    10    1
    10    10    11    2
    11    11    12    1
    12    12    13    1
    13    13    14    1
    14    14    15    1
    15     7     8   ar
    16     8     9   ar
    17     9    17    1
    18    17    18    2
    19    17    19    2
    20    17    20    1
    21    20    21   ar
    22    21    22   ar
    23    22    23   ar
    24    23    24   ar
    25    24    25   ar
    26    25    26   ar
    27    26    27   ar
    28    27    28   ar
    29    28    29   ar
    30     6     1   ar
    31    15    10    1
    32    29    20   ar
    33     9     4   ar
    34    28    23   ar
    35    13    16    1
@<TRIPOS>MOLECULE
*****
 31 35 0 0 0
SMALL
GASTEIGER

@<TRIPOS>ATOM
      1 C           2.4931    0.5612   31.4253 C.ar    1  UNL1        0.1388
      2 C           1.9984    1.6022   32.3854 C.ar    1  UNL1        0.0384
      3 C           2.7090    1.8185   33.6887 C.ar    1  UNL1        0.0221
      4 C           3.9141    0.9939   34.0317 C.ar    1  UNL1        0.0827
      5 C           4.4087   -0.0471   33.0716 C.ar    1  UNL1        0.0217
      6 C           3.6981   -0.2633   31.7684 C.ar    1  UNL1        0.0384
      7 C           5.6134   -0.7028   33.6789 C.ar    1  UNL1        0.0163
      8 C           5.8634   -0.0671   35.0143 C.ar    1  UNL1        0.0996
      9 N           4.8132    0.9815   35.2324 N.ar    1  UNL1       -0.2077
     10 C           6.4255   -1.8013   33.0595 C.2     1  UNL1       -0.0222
     11 C           5.7473   -3.0355   32.5430 C.2     1  UNL1       -0.0132
     12 C           6.5595   -4.1340   31.9236 C.3     1  UNL1        0.0950
     13 N           8.0498   -3.9983   31.8206 N.3     1  UNL1       -0.2935
     14 C           8.7280   -2.7641   32.3371 C.3     1  UNL1        0.0735
     15 C           7.9159   -1.6656   32.9565 C.3     1  UNL1        0.0432
     16 H           8.2844   -4.0708   30.8306 H       1  UNL1        0.1236
     17 S           4.6846    1.8630   36.4392 S.O2    1  UNL1        0.0860
     18 O           5.1403    3.0397   35.6283 O.2     1  UNL1       -0.1476
     19 O           4.2288    0.6863   37.2501 O.2     1  UNL1       -0.1476
     20 C           4.5560    2.7445   37.6461 C.ar    1  UNL1        0.1292
     21 C           3.5755    3.8798   37.6445 C.ar    1  UNL1        0.0205
     22 C           3.4469    4.7613   38.8513 C.ar    1  UNL1        0.0029
     23 C           4.2988    4.5076   40.0597 C.ar    1  UNL1        0.0178
     24 C           4.1701    5.3891   41.2664 C.ar    1  UNL1        0.0031
     25 C           5.0219    5.1354   42.4747 C.ar    1  UNL1        0.0207
     26 C           6.0024    4.0001   42.4763 C.ar    1  UNL1        0.0988
     27 N           6.1310    3.1186   41.2695 N.ar    1  UNL1       -0.2438
     28 C           5.2792    3.3723   40.0612 C.ar    1  UNL1        0.0827
     29 C           5.4078    2.4908   38.8543 C.ar    1  UNL1        0.0395
     30 C           2.3852   -0.5481   29.0784 C.3     1  UNL1        0.2525
     31 O           1.7825    0.3449   30.1221 O.3     1  UNL1       -0.4714
@<TRIPOS>BOND
     1    30    31    1
     2    31     1    1
     3     1     2   ar
     4     2     3   ar
     5     3     4   ar
     6     4     5   ar
     7     5     6   ar
     8     5     7   ar
     9     7    10    1
    10    10    11    2
    11    11    12    1
    12    12    13    1
    13    13    14    1
    14    14    15    1
    15     7     8   ar
    16     8     9   ar
    17     9    17    1
    18    17    18    2
    19    17    19    2
    20    17    20    1
    21    20    21   ar
    22    21    22   ar
    23    22    23   ar
    24    23    24   ar
    25    24    25   ar
    26    25    26   ar
    27    26    27   ar
    28    27    28   ar
    29    28    29   ar
    30     6     1   ar
    31    15    10    1
    32    29    20   ar
    33     9     4   ar
    34    28    23   ar
    35    13    16    1
@<TRIPOS>MOLECULE
*****
 31 35 0 0 0
SMALL
GASTEIGER

@<TRIPOS>ATOM
      1 C          -0.9898    3.1121   22.3974 C.ar    1  UNL1        0.1388
      2 C           0.2001    2.4433   23.0194 C.ar    1  UNL1        0.0384
      3 C           0.2362    2.2019   24.4995 C.ar    1  UNL1        0.0221
      4 C          -0.9175    2.6294   25.3575 C.ar    1  UNL1        0.0827
      5 C          -2.1074    3.2982   24.7355 C.ar    1  UNL1        0.0217
      6 C          -2.1434    3.5396   23.2555 C.ar    1  UNL1        0.0384
      7 C          -3.0888    3.6072   25.8271 C.ar    1  UNL1        0.0163
      8 C          -2.5054    3.1292   27.1237 C.ar    1  UNL1        0.0996
      9 N          -1.1635    2.5249   26.8335 N.ar    1  UNL1       -0.2077
     10 C          -4.4198    4.2765   25.6526 C.2     1  UNL1       -0.0222
     11 C          -5.2686    3.9578   24.4576 C.2     1  UNL1       -0.0132
     12 C          -6.5996    4.6271   24.2832 C.3     1  UNL1        0.0950
     13 N          -7.0817    5.6151   25.3037 N.3     1  UNL1       -0.2935
     14 C          -6.2329    5.9338   26.4987 C.3     1  UNL1        0.0735
     15 C          -4.9019    5.2645   26.6731 C.3     1  UNL1        0.0432
     16 H          -7.9699    5.2614   25.6593 H       1  UNL1        0.1236
     17 S          -0.2313    1.9220   27.8422 S.O2    1  UNL1        0.0860
     18 O           0.4025    3.2641   28.0586 O.2     1  UNL1       -0.1476
     19 O          -0.8652    0.5799   27.6258 O.2     1  UNL1       -0.1476
     20 C           0.7009    1.3191   28.8509 C.ar    1  UNL1        0.1292
     21 C           1.4495    0.0613   28.5226 C.ar    1  UNL1        0.0205
     22 C           2.3817   -0.5416   29.5313 C.ar    1  UNL1        0.0029
     23 C           2.5654    0.1133   30.8683 C.ar    1  UNL1        0.0178
     24 C           3.4977   -0.4896   31.8769 C.ar    1  UNL1        0.0031
     25 C           3.6814    0.1653   33.2138 C.ar    1  UNL1        0.0207
     26 C           2.9328    1.4230   33.5421 C.ar    1  UNL1        0.0988
     27 N           2.0006    2.0259   32.5334 N.ar    1  UNL1       -0.2438
     28 C           1.8169    1.3711   31.1965 C.ar    1  UNL1        0.0827
     29 C           0.8846    1.9740   30.1878 C.ar    1  UNL1        0.0395
     30 C          -2.3398    3.3857   20.1946 C.3     1  UNL1        0.2525
     31 O          -1.0259    3.3535   20.9174 O.3     1  UNL1       -0.4714
@<TRIPOS>BOND
     1    30    31    1
     2    31     1    1
     3     1     2   ar
     4     2     3   ar
     5     3     4   ar
     6     4     5   ar
     7     5     6   ar
     8     5     7   ar
     9     7    10    1
    10    10    11    2
    11    11    12    1
    12    12    13    1
    13    13    14    1
    14    14    15    1
    15     7     8   ar
    16     8     9   ar
    17     9    17    1
    18    17    18    2
    19    17    19    2
    20    17    20    1
    21    20    21   ar
    22    21    22   ar
    23    22    23   ar
    24    23    24   ar
    25    24    25   ar
    26    25    26   ar
    27    26    27   ar
    28    27    28   ar
    29    28    29   ar
    30     6     1   ar
    31    15    10    1
    32    29    20   ar
    33     9     4   ar
    34    28    23   ar
    35    13    16    1
@<TRIPOS>MOLECULE
*****
 31 35 0 0 0
SMALL
GASTEIGER

@<TRIPOS>ATOM
      1 C           0.8542    3.4135   32.4928 C.ar    1  UNL1        0.1388
      2 C           1.2313    2.6275   31.2720 C.ar    1  UNL1        0.0384
      3 C           2.2843    1.5628   31.3612 C.ar    1  UNL1        0.0221
      4 C           2.9602    1.2843   32.6710 C.ar    1  UNL1        0.0827
      5 C           2.5831    2.0704   33.8916 C.ar    1  UNL1        0.0217
      6 C           1.5302    3.1349   33.8025 C.ar    1  UNL1        0.0384
      7 C           3.4160    1.5758   35.0371 C.ar    1  UNL1        0.0163
      8 C           4.3077    0.4841   34.5242 C.ar    1  UNL1        0.0996
      9 N           4.0260    0.3040   33.0620 N.ar    1  UNL1       -0.2077
     10 C           3.3658    2.0837   36.4475 C.2     1  UNL1       -0.0222
     11 C           3.1436    1.1274   37.5816 C.2     1  UNL1       -0.0132
     12 C           3.0935    1.6353   38.9920 C.3     1  UNL1        0.0950
     13 N           3.2655    3.0996   39.2685 N.3     1  UNL1       -0.2935
     14 C           3.4877    4.0559   38.1344 C.3     1  UNL1        0.0735
     15 C           3.5379    3.5480   36.7239 C.3     1  UNL1        0.0432
     16 H           4.0685    3.1894   39.8910 H       1  UNL1        0.1236
     17 S           4.6930   -0.6832   32.1506 S.O2    1  UNL1        0.0860
     18 O           3.5722   -1.6531   32.3809 O.2     1  UNL1       -0.1476
     19 O           5.8138    0.2867   31.9204 O.2     1  UNL1       -0.1476
     20 C           5.3601   -1.6705   31.2393 C.ar    1  UNL1        0.1292
     21 C           5.4054   -1.4154   29.7618 C.ar    1  UNL1        0.0205
     22 C           6.0724   -2.4026   28.8505 C.ar    1  UNL1        0.0029
     23 C           6.6941   -3.6449   29.4166 C.ar    1  UNL1        0.0178
     24 C           7.3610   -4.6320   28.5052 C.ar    1  UNL1        0.0031
     25 C           7.9826   -5.8742   29.0714 C.ar    1  UNL1        0.0207
     26 C           7.9373   -6.1292   30.5488 C.ar    1  UNL1        0.0988
     27 N           7.2703   -5.1421   31.4602 N.ar    1  UNL1       -0.2438
     28 C           6.6487   -3.8999   30.8941 C.ar    1  UNL1        0.0827
     29 C           5.9817   -2.9126   31.8054 C.ar    1  UNL1        0.0395
     30 C          -0.2552    5.5654   33.4353 C.3     1  UNL1        0.2525
     31 O          -0.1987    4.4781   32.4036 O.3     1  UNL1       -0.4714
@<TRIPOS>BOND
     1    30    31    1
     2    31     1    1
     3     1     2   ar
     4     2     3   ar
     5     3     4   ar
     6     4     5   ar
     7     5     6   ar
     8     5     7   ar
     9     7    10    1
    10    10    11    2
    11    11    12    1
    12    12    13    1
    13    13    14    1
    14    14    15    1
    15     7     8   ar
    16     8     9   ar
    17     9    17    1
    18    17    18    2
    19    17    19    2
    20    17    20    1
    21    20    21   ar
    22    21    22   ar
    23    22    23   ar
    24    23    24   ar
    25    24    25   ar
    26    25    26   ar
    27    26    27   ar
    28    27    28   ar
    29    28    29   ar
    30     6     1   ar
    31    15    10    1
    32    29    20   ar
    33     9     4   ar
    34    28    23   ar
    35    13    16    1
@<TRIPOS>MOLECULE
*****
 31 35 0 0 0
SMALL
GASTEIGER

@<TRIPOS>ATOM
      1 C           1.5875    0.9607   23.4511 C.ar    1  UNL1        0.1388
      2 C           2.5912    0.4533   24.4438 C.ar    1  UNL1        0.0384
      3 C           2.3703    0.6708   25.9115 C.ar    1  UNL1        0.0221
      4 C           1.1459    1.3955   26.3864 C.ar    1  UNL1        0.0827
      5 C           0.1423    1.9028   25.3938 C.ar    1  UNL1        0.0217
      6 C           0.3631    1.6854   23.9261 C.ar    1  UNL1        0.0384
      7 C          -0.9614    2.5770   26.1537 C.ar    1  UNL1        0.0163
      8 C          -0.6399    2.4862   27.6160 C.ar    1  UNL1        0.0996
      9 N           0.6625    1.7561   27.7598 N.ar    1  UNL1       -0.2077
     10 C          -2.1737    3.2275   25.5562 C.2     1  UNL1       -0.0222
     11 C          -2.2176    3.5254   24.0867 C.2     1  UNL1       -0.0132
     12 C          -3.4299    4.1759   23.4892 C.3     1  UNL1        0.0950
     13 N          -4.5984    4.5286   24.3612 N.3     1  UNL1       -0.2935
     14 C          -4.5545    4.2308   25.8306 C.3     1  UNL1        0.0735
     15 C          -3.3422    3.5802   26.4281 C.3     1  UNL1        0.0432
     16 H          -5.4068    4.0338   23.9844 H       1  UNL1        0.1236
     17 S           1.3592    1.4417   29.0505 S.O2    1  UNL1        0.0860
     18 O           2.1921    2.6804   28.9026 O.2     1  UNL1       -0.1476
     19 O           0.5262    0.2030   29.1983 O.2     1  UNL1       -0.1476
     20 C           2.0559    1.1273   30.3412 C.ar    1  UNL1        0.1292
     21 C           2.2066    2.1890   31.3900 C.ar    1  UNL1        0.0205
     22 C           2.9033    1.8747   32.6807 C.ar    1  UNL1        0.0029
     23 C           3.4493    0.4987   32.9225 C.ar    1  UNL1        0.0178
     24 C           4.1459    0.1844   34.2132 C.ar    1  UNL1        0.0031
     25 C           4.6919   -1.1916   34.4550 C.ar    1  UNL1        0.0207
     26 C           4.5412   -2.2533   33.4061 C.ar    1  UNL1        0.0988
     27 N           3.8445   -1.9390   32.1155 N.ar    1  UNL1       -0.2438
     28 C           3.2985   -0.5630   31.8737 C.ar    1  UNL1        0.0827
     29 C           2.6018   -0.2487   30.5830 C.ar    1  UNL1        0.0395
     30 C           2.3873   -0.5518   21.4959 C.3     1  UNL1        0.2525
     31 O           1.8083    0.7432   21.9835 O.3     1  UNL1       -0.4714
@<TRIPOS>BOND
     1    30    31    1
     2    31     1    1
     3     1     2   ar
     4     2     3   ar
     5     3     4   ar
     6     4     5   ar
     7     5     6   ar
     8     5     7   ar
     9     7    10    1
    10    10    11    2
    11    11    12    1
    12    12    13    1
    13    13    14    1
    14    14    15    1
    15     7     8   ar
    16     8     9   ar
    17     9    17    1
    18    17    18    2
    19    17    19    2
    20    17    20    1
    21    20    21   ar
    22    21    22   ar
    23    22    23   ar
    24    23    24   ar
    25    24    25   ar
    26    25    26   ar
    27    26    27   ar
    28    27    28   ar
    29    28    29   ar
    30     6     1   ar
    31    15    10    1
    32    29    20   ar
    33     9     4   ar
    34    28    23   ar
    35    13    16    1
