@<TRIPOS>MOLECULE
*****
 26 29 0 0 0
SMALL
GASTEIGER

@<TRIPOS>ATOM
      1 C          -7.6524  -19.3065   22.3648 C.2     1  UNL1        0.1514
      2 N          -6.5278  -20.2939   22.2625 N.2     1  UNL1       -0.2531
      3 C          -5.2211  -19.8817   21.6521 C.3     1  UNL1        0.1051
      4 C          -4.9971  -20.0453   20.1780 C.3     1  UNL1        0.0244
      5 C          -3.6904  -19.6331   19.5675 C.3     1  UNL1        0.0020
      6 C          -2.6076  -19.0574   20.4314 C.3     1  UNL1        0.0001
      7 C          -2.8315  -18.8938   21.9055 C.3     1  UNL1        0.0020
      8 C          -4.1383  -19.3060   22.5159 C.3     1  UNL1        0.0244
      9 N          -8.9591  -19.7187   22.9752 N.pl3   1  UNL1       -0.3151
     10 H          -8.9816  -20.4269   23.6587 H       1  UNL1        0.1486
     11 C         -10.2317  -19.0519   22.5441 C.3     1  UNL1        0.0708
     12 C         -10.6194  -19.0415   21.0952 C.3     1  UNL1        0.0195
     13 C         -11.8920  -18.3746   20.6641 C.3     1  UNL1        0.0017
     14 C         -12.7769  -17.7181   21.6820 C.3     1  UNL1        0.0001
     15 C         -12.3890  -17.7284   23.1310 C.3     1  UNL1        0.0017
     16 C         -11.1164  -18.3953   23.5620 C.3     1  UNL1        0.0195
     17 S          -7.4702  -17.9069   21.8567 S.3     1  UNL1       -0.0744
     18 C          -7.8908  -16.7414   22.7021 C.3     1  UNL1        0.1066
     19 C          -5.5259  -16.1376   23.7918 C.2     1  UNL1        0.0494
     20 C          -7.0185  -16.2812   23.8322 C.2     1  UNL1        0.0484
     21 N          -7.4855  -15.8837   25.2011 N.pl3   1  UNL1       -0.2678
     22 C          -8.6966  -15.7267   26.0721 C.3     1  UNL1        0.1234
     23 C          -8.2412  -15.2405   27.4160 C.3     1  UNL1        0.1492
     24 N          -6.7486  -15.0969   27.3756 N.2     1  UNL1       -0.2486
     25 C          -6.2816  -15.4944   26.0067 C.2     1  UNL1        0.1623
     26 S          -5.0705  -15.6514   25.1358 S.3     1  UNL1       -0.0516
@<TRIPOS>BOND
     1    19    20    2
     2    20    18    1
     3    18    17    1
     4    17     1    1
     5     1     2    2
     6     2     3    1
     7     3     4    1
     8     4     5    1
     9     5     6    1
    10     6     7    1
    11     7     8    1
    12     1     9    1
    13     9    11    1
    14    11    12    1
    15    12    13    1
    16    13    14    1
    17    14    15    1
    18    15    16    1
    19    20    21    1
    20    21    22    1
    21    22    23    1
    22    23    24    1
    23    24    25    2
    24    25    26    1
    25    26    19    1
    26     8     3    1
    27    16    11    1
    28    25    21    1
    29     9    10    1
@<TRIPOS>MOLECULE
*****
 26 29 0 0 0
SMALL
GASTEIGER

@<TRIPOS>ATOM
      1 C          -7.4570  -17.6197   22.3485 C.2     1  UNL1        0.1514
      2 N          -6.9130  -16.3206   22.8647 N.2     1  UNL1       -0.2531
      3 C          -7.0946  -15.9518   24.3072 C.3     1  UNL1        0.1051
      4 C          -5.8963  -15.7584   25.1885 C.3     1  UNL1        0.0244
      5 C          -6.0778  -15.3896   26.6311 C.3     1  UNL1        0.0020
      6 C          -7.4578  -15.2140   27.1923 C.3     1  UNL1        0.0001
      7 C          -8.6561  -15.4073   26.3110 C.3     1  UNL1        0.0020
      8 C          -8.4745  -15.7762   24.8685 C.3     1  UNL1        0.0244
      9 N          -7.2754  -17.9886   20.9059 N.pl3   1  UNL1       -0.3151
     10 H          -7.8379  -17.5686   20.2158 H       1  UNL1        0.1486
     11 C          -6.2366  -18.9975   20.5149 C.3     1  UNL1        0.0708
     12 C          -4.8602  -18.5450   20.1267 C.3     1  UNL1        0.0195
     13 C          -3.8214  -19.5540   19.7357 C.3     1  UNL1        0.0017
     14 C          -4.1590  -21.0155   19.7329 C.3     1  UNL1        0.0001
     15 C          -5.5355  -21.4680   20.1211 C.3     1  UNL1        0.0017
     16 C          -6.5742  -20.4590   20.5121 C.3     1  UNL1        0.0195
     17 S          -8.1826  -18.5500   23.2749 S.3     1  UNL1       -0.0744
     18 C          -9.3985  -19.2869   22.7970 C.3     1  UNL1        0.1066
     19 C         -11.8475  -18.5975   23.6167 C.2     1  UNL1        0.0494
     20 C         -10.7036  -18.5629   22.6470 C.2     1  UNL1        0.0484
     21 N         -11.0938  -17.6771   21.5011 N.pl3   1  UNL1       -0.2678
     22 C         -10.6280  -17.1083   20.1936 C.3     1  UNL1        0.1234
     23 C         -11.7253  -16.2439   19.6470 C.3     1  UNL1        0.1492
     24 N         -12.8693  -16.2785   20.6166 N.2     1  UNL1       -0.2486
     25 C         -12.4790  -17.1643   21.7625 C.2     1  UNL1        0.1623
     26 S         -12.9448  -17.7331   23.0700 S.3     1  UNL1       -0.0516
@<TRIPOS>BOND
     1    19    20    2
     2    20    18    1
     3    18    17    1
     4    17     1    1
     5     1     2    2
     6     2     3    1
     7     3     4    1
     8     4     5    1
     9     5     6    1
    10     6     7    1
    11     7     8    1
    12     1     9    1
    13     9    11    1
    14    11    12    1
    15    12    13    1
    16    13    14    1
    17    14    15    1
    18    15    16    1
    19    20    21    1
    20    21    22    1
    21    22    23    1
    22    23    24    1
    23    24    25    2
    24    25    26    1
    25    26    19    1
    26     8     3    1
    27    16    11    1
    28    25    21    1
    29     9    10    1
@<TRIPOS>MOLECULE
*****
 26 29 0 0 0
SMALL
GASTEIGER

@<TRIPOS>ATOM
      1 C          -7.8581  -19.4348   22.2709 C.2     1  UNL1        0.1514
      2 N          -9.1660  -20.0596   22.6567 N.2     1  UNL1       -0.2531
      3 C         -10.4318  -19.2584   22.5792 C.3     1  UNL1        0.1051
      4 C         -11.0030  -18.8860   21.2431 C.3     1  UNL1        0.0244
      5 C         -12.2688  -18.0848   21.1655 C.3     1  UNL1        0.0020
      6 C         -12.9632  -17.6559   22.4241 C.3     1  UNL1        0.0001
      7 C         -12.3919  -18.0283   23.7601 C.3     1  UNL1        0.0020
      8 C         -11.1262  -18.8295   23.8376 C.3     1  UNL1        0.0244
      9 N          -6.5923  -20.2360   22.3485 N.pl3   1  UNL1       -0.3151
     10 H          -6.5908  -21.1117   22.7984 H       1  UNL1        0.1486
     11 C          -5.3289  -19.7030   21.7405 C.3     1  UNL1        0.0708
     12 C          -4.2556  -19.1335   22.6200 C.3     1  UNL1        0.0195
     13 C          -2.9922  -18.6005   22.0120 C.3     1  UNL1        0.0017
     14 C          -2.8021  -18.6369   20.5245 C.3     1  UNL1        0.0001
     15 C          -3.8755  -19.2065   19.6450 C.3     1  UNL1        0.0017
     16 C          -5.1389  -19.7395   20.2531 C.3     1  UNL1        0.0195
     17 S          -7.8158  -18.0087   21.8075 S.3     1  UNL1       -0.0744
     18 C          -8.2256  -16.9055   22.7375 C.3     1  UNL1        0.1066
     19 C          -5.7854  -16.1464   23.5212 C.2     1  UNL1        0.0494
     20 C          -7.2509  -16.3740   23.7462 C.2     1  UNL1        0.0484
     21 N          -7.5705  -15.9768   25.1569 N.pl3   1  UNL1       -0.2678
     22 C          -8.6737  -15.8720   26.1678 C.3     1  UNL1        0.1234
     23 C          -8.0876  -15.3341   27.4394 C.3     1  UNL1        0.1492
     24 N          -6.6221  -15.1065   27.2145 N.2     1  UNL1       -0.2486
     25 C          -6.3025  -15.5037   25.8038 C.2     1  UNL1        0.1623
     26 S          -5.1993  -15.6085   24.7929 S.3     1  UNL1       -0.0516
@<TRIPOS>BOND
     1    19    20    2
     2    20    18    1
     3    18    17    1
     4    17     1    1
     5     1     2    2
     6     2     3    1
     7     3     4    1
     8     4     5    1
     9     5     6    1
    10     6     7    1
    11     7     8    1
    12     1     9    1
    13     9    11    1
    14    11    12    1
    15    12    13    1
    16    13    14    1
    17    14    15    1
    18    15    16    1
    19    20    21    1
    20    21    22    1
    21    22    23    1
    22    23    24    1
    23    24    25    2
    24    25    26    1
    25    26    19    1
    26     8     3    1
    27    16    11    1
    28    25    21    1
    29     9    10    1
@<TRIPOS>MOLECULE
*****
 26 29 0 0 0
SMALL
GASTEIGER

@<TRIPOS>ATOM
      1 C          -8.0831  -16.9453   22.5539 C.2     1  UNL1        0.1514
      2 N          -8.4498  -15.8548   23.5164 N.2     1  UNL1       -0.2531
      3 C          -7.6990  -15.7098   24.8069 C.3     1  UNL1        0.1051
      4 C          -8.3584  -16.0760   26.1034 C.3     1  UNL1        0.0244
      5 C          -7.6077  -15.9310   27.3940 C.3     1  UNL1        0.0020
      6 C          -6.1975  -15.4197   27.3879 C.3     1  UNL1        0.0001
      7 C          -5.5381  -15.0534   26.0913 C.3     1  UNL1        0.0020
      8 C          -6.2889  -15.1985   24.8008 C.3     1  UNL1        0.0244
      9 N          -8.8339  -17.0903   21.2634 N.pl3   1  UNL1       -0.3151
     10 H          -8.3427  -17.1519   20.4124 H       1  UNL1        0.1486
     11 C         -10.3329  -17.1415   21.2695 C.3     1  UNL1        0.0708
     12 C         -11.0481  -18.0605   22.2150 C.3     1  UNL1        0.0195
     13 C         -12.5472  -18.1116   22.2211 C.3     1  UNL1        0.0017
     14 C         -13.3312  -17.2438   21.2818 C.3     1  UNL1        0.0001
     15 C         -12.6159  -16.3248   20.3363 C.3     1  UNL1        0.0017
     16 C         -11.1168  -16.2736   20.3302 C.3     1  UNL1        0.0195
     17 S          -6.9657  -17.8907   22.8818 S.3     1  UNL1       -0.0744
     18 C          -6.8509  -19.1974   22.1542 C.3     1  UNL1        0.1066
     19 C          -5.4111  -20.5107   20.3247 C.2     1  UNL1        0.0494
     20 C          -5.5617  -19.5728   21.4857 C.2     1  UNL1        0.0484
     21 N          -4.1968  -19.0763   21.8606 N.pl3   1  UNL1       -0.2678
     22 C          -3.4464  -18.1898   22.8098 C.3     1  UNL1        0.1234
     23 C          -1.9884  -18.2729   22.4672 C.3     1  UNL1        0.1492
     24 N          -1.8378  -19.2108   21.3063 N.2     1  UNL1       -0.2486
     25 C          -3.2026  -19.7073   20.9314 C.2     1  UNL1        0.1623
     26 S          -3.9530  -20.5939   19.9822 S.3     1  UNL1       -0.0516
@<TRIPOS>BOND
     1    19    20    2
     2    20    18    1
     3    18    17    1
     4    17     1    1
     5     1     2    2
     6     2     3    1
     7     3     4    1
     8     4     5    1
     9     5     6    1
    10     6     7    1
    11     7     8    1
    12     1     9    1
    13     9    11    1
    14    11    12    1
    15    12    13    1
    16    13    14    1
    17    14    15    1
    18    15    16    1
    19    20    21    1
    20    21    22    1
    21    22    23    1
    22    23    24    1
    23    24    25    2
    24    25    26    1
    25    26    19    1
    26     8     3    1
    27    16    11    1
    28    25    21    1
    29     9    10    1
@<TRIPOS>MOLECULE
*****
 26 29 0 0 0
SMALL
GASTEIGER

@<TRIPOS>ATOM
      1 C          -7.3158  -17.8165   22.8329 C.2     1  UNL1        0.1514
      2 N          -5.8864  -17.5012   22.5050 N.2     1  UNL1       -0.2531
      3 C          -5.0375  -18.5162   21.7986 C.3     1  UNL1        0.1051
      4 C          -5.5337  -19.1632   20.5395 C.3     1  UNL1        0.0244
      5 C          -4.6848  -20.1783   19.8330 C.3     1  UNL1        0.0020
      6 C          -3.3397  -20.5462   20.3856 C.3     1  UNL1        0.0001
      7 C          -2.8435  -19.8992   21.6446 C.3     1  UNL1        0.0020
      8 C          -3.6924  -18.8842   22.3511 C.3     1  UNL1        0.0244
      9 N          -8.1647  -16.8014   23.5393 N.pl3   1  UNL1       -0.3151
     10 H          -9.0080  -16.4965   23.1330 H       1  UNL1        0.1486
     11 C          -7.7288  -16.2512   24.8648 C.3     1  UNL1        0.0708
     12 C          -6.3996  -15.5679   24.9927 C.3     1  UNL1        0.0195
     13 C          -5.9637  -15.0176   26.3183 C.3     1  UNL1        0.0017
     14 C          -6.8569  -15.1505   27.5160 C.3     1  UNL1        0.0001
     15 C          -8.1862  -15.8338   27.3881 C.3     1  UNL1        0.0017
     16 C          -8.6221  -16.3841   26.0625 C.3     1  UNL1        0.0195
     17 S          -7.8963  -19.1468   22.4542 S.3     1  UNL1       -0.0744
     18 C          -9.1174  -19.6601   23.1582 C.3     1  UNL1        0.1066
     19 C         -11.5148  -18.8548   24.0234 C.2     1  UNL1        0.0494
     20 C         -10.4310  -18.9554   22.9913 C.2     1  UNL1        0.0484
     21 N         -10.8915  -18.2277   21.7631 N.pl3   1  UNL1       -0.2678
     22 C         -10.5061  -17.8401   20.3663 C.3     1  UNL1        0.1234
     23 C         -11.6365  -17.0502   19.7760 C.3     1  UNL1        0.1492
     24 N         -12.7203  -16.9496   20.8080 N.2     1  UNL1       -0.2486
     25 C         -12.2599  -17.6773   22.0362 C.2     1  UNL1        0.1623
     26 S         -12.6452  -18.0649   23.4331 S.3     1  UNL1       -0.0516
@<TRIPOS>BOND
     1    19    20    2
     2    20    18    1
     3    18    17    1
     4    17     1    1
     5     1     2    2
     6     2     3    1
     7     3     4    1
     8     4     5    1
     9     5     6    1
    10     6     7    1
    11     7     8    1
    12     1     9    1
    13     9    11    1
    14    11    12    1
    15    12    13    1
    16    13    14    1
    17    14    15    1
    18    15    16    1
    19    20    21    1
    20    21    22    1
    21    22    23    1
    22    23    24    1
    23    24    25    2
    24    25    26    1
    25    26    19    1
    26     8     3    1
    27    16    11    1
    28    25    21    1
    29     9    10    1
@<TRIPOS>MOLECULE
*****
 26 29 0 0 0
SMALL
GASTEIGER

@<TRIPOS>ATOM
      1 C          -7.0180  -18.0162   22.3752 C.2     1  UNL1        0.1514
      2 N          -6.4735  -16.7316   22.9259 N.2     1  UNL1       -0.2531
      3 C          -6.9692  -16.2099   24.2420 C.3     1  UNL1        0.1051
      4 C          -8.4303  -15.9312   24.4360 C.3     1  UNL1        0.0244
      5 C          -8.9261  -15.4095   25.7521 C.3     1  UNL1        0.0020
      6 C          -7.9607  -15.1666   26.8742 C.3     1  UNL1        0.0001
      7 C          -6.4996  -15.4453   26.6802 C.3     1  UNL1        0.0020
      8 C          -6.0039  -15.9670   25.3641 C.3     1  UNL1        0.0244
      9 N          -6.5223  -18.5379   21.0591 N.pl3   1  UNL1       -0.3151
     10 H          -7.1439  -18.6333   20.3017 H       1  UNL1        0.1486
     11 C          -5.0794  -18.9142   20.8970 C.3     1  UNL1        0.0708
     12 C          -4.4527  -18.9139   19.5342 C.3     1  UNL1        0.0195
     13 C          -3.0097  -19.2902   19.3722 C.3     1  UNL1        0.0017
     14 C          -2.1934  -19.6669   20.5729 C.3     1  UNL1        0.0001
     15 C          -2.8202  -19.6672   21.9358 C.3     1  UNL1        0.0017
     16 C          -4.2631  -19.2909   22.0978 C.3     1  UNL1        0.0195
     17 S          -8.0583  -18.7792   23.1406 S.3     1  UNL1       -0.0744
     18 C          -9.2395  -19.3626   22.4235 C.3     1  UNL1        0.1066
     19 C         -11.5968  -18.7015   23.4964 C.2     1  UNL1        0.0494
     20 C         -10.5511  -18.6346   22.4231 C.2     1  UNL1        0.0484
     21 N         -11.0471  -17.7120   21.3494 N.pl3   1  UNL1       -0.2678
     22 C         -10.7073  -17.1005   20.0226 C.3     1  UNL1        0.1234
     23 C         -11.8496  -16.2193   19.6122 C.3     1  UNL1        0.1492
     24 N         -12.8954  -16.2861   20.6854 N.2     1  UNL1       -0.2486
     25 C         -12.3994  -17.2087   21.7591 C.2     1  UNL1        0.1623
     26 S         -12.7392  -17.8202   23.0860 S.3     1  UNL1       -0.0516
@<TRIPOS>BOND
     1    19    20    2
     2    20    18    1
     3    18    17    1
     4    17     1    1
     5     1     2    2
     6     2     3    1
     7     3     4    1
     8     4     5    1
     9     5     6    1
    10     6     7    1
    11     7     8    1
    12     1     9    1
    13     9    11    1
    14    11    12    1
    15    12    13    1
    16    13    14    1
    17    14    15    1
    18    15    16    1
    19    20    21    1
    20    21    22    1
    21    22    23    1
    22    23    24    1
    23    24    25    2
    24    25    26    1
    25    26    19    1
    26     8     3    1
    27    16    11    1
    28    25    21    1
    29     9    10    1
@<TRIPOS>MOLECULE
*****
 26 29 0 0 0
SMALL
GASTEIGER

@<TRIPOS>ATOM
      1 C          -6.7941  -18.3143   21.9486 C.2     1  UNL1        0.1514
      2 N          -6.2455  -17.0709   22.5834 N.2     1  UNL1       -0.2531
      3 C          -6.9135  -16.4895   23.7941 C.3     1  UNL1        0.1051
      4 C          -8.4031  -16.3146   23.8174 C.3     1  UNL1        0.0244
      5 C          -9.0712  -15.7332   25.0281 C.3     1  UNL1        0.0020
      6 C          -8.2495  -15.3267   26.2155 C.3     1  UNL1        0.0001
      7 C          -6.7600  -15.5016   26.1921 C.3     1  UNL1        0.0020
      8 C          -6.0920  -16.0830   24.9814 C.3     1  UNL1        0.0244
      9 N          -6.1261  -18.8957   20.7379 N.pl3   1  UNL1       -0.3151
     10 H          -6.6702  -19.2448   19.9954 H       1  UNL1        0.1486
     11 C          -4.6291  -18.9452   20.6585 C.3     1  UNL1        0.0708
     12 C          -3.8302  -19.4075   21.8409 C.3     1  UNL1        0.0195
     13 C          -2.3331  -19.4569   21.7614 C.3     1  UNL1        0.0017
     14 C          -1.6348  -19.0442   20.4997 C.3     1  UNL1        0.0001
     15 C          -2.4338  -18.5819   19.3172 C.3     1  UNL1        0.0017
     16 C          -3.9309  -18.5325   19.3967 C.3     1  UNL1        0.0195
     17 S          -8.0107  -18.9764   22.5245 S.3     1  UNL1       -0.0744
     18 C          -9.1379  -19.3875   21.6243 C.3     1  UNL1        0.1066
     19 C         -11.0192  -17.8133   20.5624 C.2     1  UNL1        0.0494
     20 C         -10.4412  -18.6462   21.6680 C.2     1  UNL1        0.0484
     21 N         -11.3952  -18.6077   22.8248 N.pl3   1  UNL1       -0.2678
     22 C         -11.6276  -19.0987   24.2230 C.3     1  UNL1        0.1234
     23 C         -12.9389  -18.5454   24.6965 C.3     1  UNL1        0.1492
     24 N         -13.5170  -17.7124   23.5911 N.2     1  UNL1       -0.2486
     25 C         -12.5629  -17.7509   22.4342 C.2     1  UNL1        0.1623
     26 S         -12.3305  -17.2599   21.0361 S.3     1  UNL1       -0.0516
@<TRIPOS>BOND
     1    19    20    2
     2    20    18    1
     3    18    17    1
     4    17     1    1
     5     1     2    2
     6     2     3    1
     7     3     4    1
     8     4     5    1
     9     5     6    1
    10     6     7    1
    11     7     8    1
    12     1     9    1
    13     9    11    1
    14    11    12    1
    15    12    13    1
    16    13    14    1
    17    14    15    1
    18    15    16    1
    19    20    21    1
    20    21    22    1
    21    22    23    1
    22    23    24    1
    23    24    25    2
    24    25    26    1
    25    26    19    1
    26     8     3    1
    27    16    11    1
    28    25    21    1
    29     9    10    1
@<TRIPOS>MOLECULE
*****
 26 29 0 0 0
SMALL
GASTEIGER

@<TRIPOS>ATOM
      1 C          -7.3597  -19.6847   20.7425 C.2     1  UNL1        0.1514
      2 N          -8.6653  -19.7927   20.0119 N.2     1  UNL1       -0.2531
      3 C          -9.8944  -19.1404   20.5722 C.3     1  UNL1        0.1051
      4 C         -10.5213  -17.9815   19.8555 C.3     1  UNL1        0.0244
      5 C         -11.7504  -17.3291   20.4157 C.3     1  UNL1        0.0020
      6 C         -12.3526  -17.8359   21.6927 C.3     1  UNL1        0.0001
      7 C         -11.7256  -18.9949   22.4094 C.3     1  UNL1        0.0020
      8 C         -10.4965  -19.6471   21.8492 C.3     1  UNL1        0.0244
      9 N          -6.1306  -20.3370   20.1822 N.pl3   1  UNL1       -0.3151
     10 H          -6.2063  -21.1800   19.6795 H       1  UNL1        0.1486
     11 C          -4.7860  -19.7047   20.3879 C.3     1  UNL1        0.0708
     12 C          -4.2310  -18.7696   19.3547 C.3     1  UNL1        0.0195
     13 C          -2.8864  -18.1373   19.5605 C.3     1  UNL1        0.0017
     14 C          -2.0968  -18.4401   20.7994 C.3     1  UNL1        0.0001
     15 C          -2.6519  -19.3753   21.8326 C.3     1  UNL1        0.0017
     16 C          -3.9965  -20.0075   21.6269 C.3     1  UNL1        0.0195
     17 S          -7.2831  -18.9243   22.0333 S.3     1  UNL1       -0.0744
     18 C          -7.4306  -17.4316   22.0344 C.3     1  UNL1        0.1066
     19 C          -9.0902  -16.4186   23.8686 C.2     1  UNL1        0.0494
     20 C          -7.7266  -16.7082   23.3146 C.2     1  UNL1        0.0484
     21 N          -6.7112  -16.1473   24.2655 N.pl3   1  UNL1       -0.2678
     22 C          -5.2409  -15.9797   24.5108 C.3     1  UNL1        0.1234
     23 C          -5.0682  -15.2398   25.8041 C.3     1  UNL1        0.1492
     24 N          -6.4317  -14.9502   26.3582 N.2     1  UNL1       -0.2486
     25 C          -7.4471  -15.5111   25.4073 C.2     1  UNL1        0.1623
     26 S          -8.9174  -15.6788   25.1620 S.3     1  UNL1       -0.0516
@<TRIPOS>BOND
     1    19    20    2
     2    20    18    1
     3    18    17    1
     4    17     1    1
     5     1     2    2
     6     2     3    1
     7     3     4    1
     8     4     5    1
     9     5     6    1
    10     6     7    1
    11     7     8    1
    12     1     9    1
    13     9    11    1
    14    11    12    1
    15    12    13    1
    16    13    14    1
    17    14    15    1
    18    15    16    1
    19    20    21    1
    20    21    22    1
    21    22    23    1
    22    23    24    1
    23    24    25    2
    24    25    26    1
    25    26    19    1
    26     8     3    1
    27    16    11    1
    28    25    21    1
    29     9    10    1
@<TRIPOS>MOLECULE
*****
 26 29 0 0 0
SMALL
GASTEIGER

@<TRIPOS>ATOM
      1 C          -7.3473  -17.4750   22.4711 C.2     1  UNL1        0.1514
      2 N          -5.8801  -17.6738   22.7114 N.2     1  UNL1       -0.2531
      3 C          -5.1182  -18.6835   21.9051 C.3     1  UNL1        0.1051
      4 C          -3.6217  -18.7382   21.9924 C.3     1  UNL1        0.0244
      5 C          -2.8597  -19.7477   21.1862 C.3     1  UNL1        0.0020
      6 C          -3.5942  -20.7027   20.2925 C.3     1  UNL1        0.0001
      7 C          -5.0907  -20.6480   20.2051 C.3     1  UNL1        0.0020
      8 C          -5.8526  -19.6384   21.0114 C.3     1  UNL1        0.0244
      9 N          -8.1093  -16.4654   23.2774 N.pl3   1  UNL1       -0.3151
     10 H          -8.9247  -16.0549   22.9087 H       1  UNL1        0.1486
     11 C          -7.6290  -16.0812   24.6454 C.3     1  UNL1        0.0708
     12 C          -8.5158  -16.2882   25.8373 C.3     1  UNL1        0.0195
     13 C          -8.0354  -15.9039   27.2054 C.3     1  UNL1        0.0017
     14 C          -6.6681  -15.3128   27.3816 C.3     1  UNL1        0.0001
     15 C          -5.7812  -15.1058   26.1897 C.3     1  UNL1        0.0017
     16 C          -6.2617  -15.4901   24.8216 C.3     1  UNL1        0.0195
     17 S          -8.0527  -18.2858   21.4246 S.3     1  UNL1       -0.0744
     18 C          -9.2441  -19.1176   21.7969 C.3     1  UNL1        0.1066
     19 C         -11.2633  -17.7352   20.7214 C.2     1  UNL1        0.0494
     20 C         -10.6093  -18.4972   21.8357 C.2     1  UNL1        0.0484
     21 N         -11.5599  -18.5298   22.9955 N.pl3   1  UNL1       -0.2678
     22 C         -11.7432  -19.0210   24.4009 C.3     1  UNL1        0.1234
     23 C         -13.0982  -18.5827   24.8720 C.3     1  UNL1        0.1492
     24 N         -13.7523  -17.8207   23.7578 N.2     1  UNL1       -0.2486
     25 C         -12.8016  -17.7880   22.5980 C.2     1  UNL1        0.1623
     26 S         -12.6184  -17.2969   21.1926 S.3     1  UNL1       -0.0516
@<TRIPOS>BOND
     1    19    20    2
     2    20    18    1
     3    18    17    1
     4    17     1    1
     5     1     2    2
     6     2     3    1
     7     3     4    1
     8     4     5    1
     9     5     6    1
    10     6     7    1
    11     7     8    1
    12     1     9    1
    13     9    11    1
    14    11    12    1
    15    12    13    1
    16    13    14    1
    17    14    15    1
    18    15    16    1
    19    20    21    1
    20    21    22    1
    21    22    23    1
    22    23    24    1
    23    24    25    2
    24    25    26    1
    25    26    19    1
    26     8     3    1
    27    16    11    1
    28    25    21    1
    29     9    10    1
