@<TRIPOS>MOLECULE
*****
 22 24 0 0 0
SMALL
GASTEIGER

@<TRIPOS>ATOM
      1 N          -6.6168  -15.9262   24.0327 N.am    1  UNL1       -0.2606
      2 C          -7.3849  -15.4127   25.2143 C.3     1  UNL1        0.1169
      3 C          -8.8440  -15.6460   24.9555 C.3     1  UNL1        0.1212
      4 N          -8.9774  -16.3036   23.6139 N.am    1  UNL1       -0.2413
      5 C          -7.6009  -16.4768   23.0436 C.2     1  UNL1        0.3111
      6 O          -7.2672  -17.0925   21.7172 O.2     1  UNL1       -0.2520
      7 C         -10.2618  -16.7157   22.9579 C.ar    1  UNL1        0.0562
      8 C         -11.1653  -17.7046   23.6330 C.ar    1  UNL1        0.0150
      9 C         -12.4497  -18.1167   22.9769 C.ar    1  UNL1        0.0021
     10 C         -12.8307  -17.5399   21.6458 C.ar    1  UNL1        0.0115
     11 C         -11.9272  -16.5509   20.9706 C.ar    1  UNL1        0.0589
     12 CL        -12.3083  -15.9740   19.6394 Cl      1  UNL1       -0.0822
     13 C         -10.6428  -16.1389   21.6267 C.ar    1  UNL1        0.0263
     14 C          -5.1260  -15.8946   23.8689 C.3     1  UNL1        0.1123
     15 C          -4.3477  -17.1765   23.8373 C.3     1  UNL1        0.0939
     16 C          -4.0114  -20.5178   19.8722 C.3     1  UNL1        0.0014
     17 C          -3.5192  -19.2925   20.5837 C.3     1  UNL1        0.0160
     18 C          -2.3666  -18.5125   20.0241 C.3     1  UNL1        0.0028
     19 C          -1.8744  -17.2871   20.7356 C.3     1  UNL1        0.0174
     20 C          -2.5347  -16.8418   22.0067 C.3     1  UNL1        0.0721
     21 N          -3.6873  -17.6218   22.5662 N.3     1  UNL1       -0.2712
     22 C          -4.1795  -18.8472   21.8547 C.3     1  UNL1        0.0721
@<TRIPOS>BOND
     1    16    17    1
     2    17    18    1
     3    18    19    1
     4    19    20    1
     5    20    21    1
     6    21    15    1
     7    15    14    1
     8    14     1    1
     9     1     2    1
    10     2     3    1
    11     3     4    1
    12     4     7    1
    13     7     8   ar
    14     8     9   ar
    15     9    10   ar
    16    10    11   ar
    17    11    12    1
    18    11    13   ar
    19     4     5   am
    20     5     6    2
    21    21    22    1
    22    22    17    1
    23     5     1   am
    24    13     7   ar
@<TRIPOS>MOLECULE
*****
 22 24 0 0 0
SMALL
GASTEIGER

@<TRIPOS>ATOM
      1 N          -6.5980  -16.1117   23.8191 N.am    1  UNL1       -0.2606
      2 C          -7.3463  -15.6028   25.0154 C.3     1  UNL1        0.1169
      3 C          -8.8105  -15.8227   24.7742 C.3     1  UNL1        0.1212
      4 N          -8.9670  -16.4673   23.4289 N.am    1  UNL1       -0.2413
      5 C          -7.5996  -16.6459   22.8386 C.2     1  UNL1        0.3111
      6 O          -7.2884  -17.2523   21.5024 O.2     1  UNL1       -0.2520
      7 C         -10.2631  -16.8638   22.7866 C.ar    1  UNL1        0.0562
      8 C         -10.3956  -16.8484   21.2925 C.ar    1  UNL1        0.0150
      9 C         -11.6918  -17.2448   20.6503 C.ar    1  UNL1        0.0021
     10 C         -12.8557  -17.6567   21.5021 C.ar    1  UNL1        0.0115
     11 C         -12.7234  -17.6721   22.9962 C.ar    1  UNL1        0.0589
     12 CL        -13.8874  -18.0840   23.8480 Cl      1  UNL1       -0.0822
     13 C         -11.4271  -17.2757   23.6384 C.ar    1  UNL1        0.0263
     14 C          -5.1094  -16.0900   23.6355 C.3     1  UNL1        0.1123
     15 C          -4.3349  -17.3745   23.6362 C.3     1  UNL1        0.0939
     16 C          -0.5229  -17.1833   20.1102 C.3     1  UNL1        0.0014
     17 C          -1.8074  -17.7806   20.6035 C.3     1  UNL1        0.0160
     18 C          -2.4703  -18.8796   19.8272 C.3     1  UNL1        0.0028
     19 C          -3.7548  -19.4769   20.3206 C.3     1  UNL1        0.0174
     20 C          -4.3763  -18.9752   21.5902 C.3     1  UNL1        0.0721
     21 N          -3.7134  -17.8762   22.3665 N.3     1  UNL1       -0.2712
     22 C          -2.4289  -17.2789   21.8731 C.3     1  UNL1        0.0721
@<TRIPOS>BOND
     1    16    17    1
     2    17    18    1
     3    18    19    1
     4    19    20    1
     5    20    21    1
     6    21    15    1
     7    15    14    1
     8    14     1    1
     9     1     2    1
    10     2     3    1
    11     3     4    1
    12     4     7    1
    13     7     8   ar
    14     8     9   ar
    15     9    10   ar
    16    10    11   ar
    17    11    12    1
    18    11    13   ar
    19     4     5   am
    20     5     6    2
    21    21    22    1
    22    22    17    1
    23     5     1   am
    24    13     7   ar
@<TRIPOS>MOLECULE
*****
 22 24 0 0 0
SMALL
GASTEIGER

@<TRIPOS>ATOM
      1 N          -7.1818  -16.0490   24.2371 N.am    1  UNL1       -0.2606
      2 C          -6.1499  -15.5484   25.2039 C.3     1  UNL1        0.1169
      3 C          -4.8091  -16.0431   24.7480 C.3     1  UNL1        0.1212
      4 N          -5.0125  -16.8494   23.4995 N.am    1  UNL1       -0.2413
      5 C          -6.4789  -16.8530   23.1838 C.2     1  UNL1        0.3111
      6 O          -7.1284  -17.5400   22.0193 O.2     1  UNL1       -0.2520
      7 C          -3.9382  -17.5321   22.7061 C.ar    1  UNL1        0.0562
      8 C          -3.9296  -19.0273   22.5863 C.ar    1  UNL1        0.0150
      9 C          -2.8553  -19.7100   21.7929 C.ar    1  UNL1        0.0021
     10 C          -1.7894  -18.8976   21.1192 C.ar    1  UNL1        0.0115
     11 C          -1.7978  -17.4024   21.2390 C.ar    1  UNL1        0.0589
     12 CL         -0.7319  -16.5900   20.5654 Cl      1  UNL1       -0.0822
     13 C          -2.8722  -16.7197   22.0325 C.ar    1  UNL1        0.0263
     14 C          -8.6576  -15.7908   24.3108 C.3     1  UNL1        0.1123
     15 C          -9.6212  -16.9403   24.3079 C.3     1  UNL1        0.0939
     16 C         -11.5850  -15.9267   19.6051 C.3     1  UNL1        0.0014
     17 C         -11.1930  -16.9143   20.6639 C.3     1  UNL1        0.0160
     18 C         -11.3911  -18.3827   20.4301 C.3     1  UNL1        0.0028
     19 C         -10.9992  -19.3703   21.4889 C.3     1  UNL1        0.0174
     20 C         -10.4092  -18.8895   22.7815 C.3     1  UNL1        0.0721
     21 N         -10.2112  -17.4212   23.0153 N.3     1  UNL1       -0.2712
     22 C         -10.6031  -16.4336   21.9565 C.3     1  UNL1        0.0721
@<TRIPOS>BOND
     1    16    17    1
     2    17    18    1
     3    18    19    1
     4    19    20    1
     5    20    21    1
     6    21    15    1
     7    15    14    1
     8    14     1    1
     9     1     2    1
    10     2     3    1
    11     3     4    1
    12     4     7    1
    13     7     8   ar
    14     8     9   ar
    15     9    10   ar
    16    10    11   ar
    17    11    12    1
    18    11    13   ar
    19     4     5   am
    20     5     6    2
    21    21    22    1
    22    22    17    1
    23     5     1   am
    24    13     7   ar
@<TRIPOS>MOLECULE
*****
 22 24 0 0 0
SMALL
GASTEIGER

@<TRIPOS>ATOM
      1 N          -7.9562  -19.7900   19.8595 N.am    1  UNL1       -0.2606
      2 C          -7.2132  -21.0628   19.5802 C.3     1  UNL1        0.1169
      3 C          -5.8137  -20.9053   20.0966 C.3     1  UNL1        0.1212
      4 N          -5.6918  -19.5352   20.6950 N.am    1  UNL1       -0.2413
      5 C          -7.0160  -18.8460   20.5485 C.2     1  UNL1        0.3111
      6 O          -7.3426  -17.4566   21.0098 O.2     1  UNL1       -0.2520
      7 C          -4.4618  -18.9561   21.3286 C.ar    1  UNL1        0.0562
      8 C          -4.4855  -18.5395   22.7694 C.ar    1  UNL1        0.0150
      9 C          -3.2555  -17.9604   23.4031 C.ar    1  UNL1        0.0021
     10 C          -2.0017  -17.7978   22.5960 C.ar    1  UNL1        0.0115
     11 C          -1.9778  -18.2144   21.1551 C.ar    1  UNL1        0.0589
     12 CL         -0.7240  -18.0519   20.3480 Cl      1  UNL1       -0.0822
     13 C          -3.2080  -18.7936   20.5215 C.ar    1  UNL1        0.0263
     14 C          -9.3882  -19.5105   19.5110 C.3     1  UNL1        0.1123
     15 C         -10.4669  -19.7460   20.5263 C.3     1  UNL1        0.0939
     16 C         -13.7702  -17.8854   24.0796 C.3     1  UNL1        0.0014
     17 C         -12.7855  -17.6509   22.9726 C.3     1  UNL1        0.0160
     18 C         -12.4678  -16.2517   22.5353 C.3     1  UNL1        0.0028
     19 C         -11.4832  -16.0173   21.4283 C.3     1  UNL1        0.0174
     20 C         -10.8162  -17.1820   20.7586 C.3     1  UNL1        0.0721
     21 N         -11.1339  -18.5812   21.1960 N.3     1  UNL1       -0.2712
     22 C         -12.1186  -18.8156   22.3030 C.3     1  UNL1        0.0721
@<TRIPOS>BOND
     1    16    17    1
     2    17    18    1
     3    18    19    1
     4    19    20    1
     5    20    21    1
     6    21    15    1
     7    15    14    1
     8    14     1    1
     9     1     2    1
    10     2     3    1
    11     3     4    1
    12     4     7    1
    13     7     8   ar
    14     8     9   ar
    15     9    10   ar
    16    10    11   ar
    17    11    12    1
    18    11    13   ar
    19     4     5   am
    20     5     6    2
    21    21    22    1
    22    22    17    1
    23     5     1   am
    24    13     7   ar
@<TRIPOS>MOLECULE
*****
 22 24 0 0 0
SMALL
GASTEIGER

@<TRIPOS>ATOM
      1 N          -6.3984  -18.3988   22.5371 N.am    1  UNL1       -0.2606
      2 C          -6.8491  -19.7182   21.9839 C.3     1  UNL1        0.1169
      3 C          -8.3211  -19.6273   21.7097 C.3     1  UNL1        0.1212
      4 N          -8.7800  -18.2517   22.0935 N.am    1  UNL1       -0.2413
      5 C          -7.5917  -17.4925   22.6049 C.2     1  UNL1        0.3111
      6 O          -7.5959  -16.0757   23.0975 O.2     1  UNL1       -0.2520
      7 C         -10.1811  -17.7275   21.9849 C.ar    1  UNL1        0.0562
      8 C         -10.5539  -16.8110   20.8574 C.ar    1  UNL1        0.0150
      9 C         -11.9550  -16.2868   20.7489 C.ar    1  UNL1        0.0021
     10 C         -12.9836  -16.6790   21.7679 C.ar    1  UNL1        0.0115
     11 C         -12.6109  -17.5954   22.8955 C.ar    1  UNL1        0.0589
     12 CL        -13.6394  -17.9875   23.9145 Cl      1  UNL1       -0.0822
     13 C         -11.2097  -18.1196   23.0039 C.ar    1  UNL1        0.0263
     14 C          -4.9998  -18.0474   22.9501 C.3     1  UNL1        0.1123
     15 C          -3.8530  -18.9195   22.5327 C.3     1  UNL1        0.0939
     16 C           0.5091  -17.4885   20.0987 C.3     1  UNL1        0.0014
     17 C          -0.9295  -17.9100   20.0460 C.3     1  UNL1        0.0160
     18 C          -1.6257  -18.0375   18.7234 C.3     1  UNL1        0.0028
     19 C          -3.0642  -18.4591   18.6707 C.3     1  UNL1        0.0174
     20 C          -3.8067  -18.7531   19.9404 C.3     1  UNL1        0.0721
     21 N          -3.1106  -18.6255   21.2629 N.3     1  UNL1       -0.2712
     22 C          -1.6720  -18.2040   21.3157 C.3     1  UNL1        0.0721
@<TRIPOS>BOND
     1    16    17    1
     2    17    18    1
     3    18    19    1
     4    19    20    1
     5    20    21    1
     6    21    15    1
     7    15    14    1
     8    14     1    1
     9     1     2    1
    10     2     3    1
    11     3     4    1
    12     4     7    1
    13     7     8   ar
    14     8     9   ar
    15     9    10   ar
    16    10    11   ar
    17    11    12    1
    18    11    13   ar
    19     4     5   am
    20     5     6    2
    21    21    22    1
    22    22    17    1
    23     5     1   am
    24    13     7   ar
@<TRIPOS>MOLECULE
*****
 22 24 0 0 0
SMALL
GASTEIGER

@<TRIPOS>ATOM
      1 N          -9.1662  -18.3055   22.9645 N.am    1  UNL1       -0.2606
      2 C          -9.2522  -19.7558   23.3375 C.3     1  UNL1        0.1169
      3 C          -7.9846  -20.4243   22.8942 C.3     1  UNL1        0.1212
      4 N          -7.1153  -19.3871   22.2473 N.am    1  UNL1       -0.2413
      5 C          -7.8455  -18.0776   22.2908 C.2     1  UNL1        0.3111
      6 O          -7.3434  -16.7698   21.7546 O.2     1  UNL1       -0.2520
      7 C          -5.7547  -19.6187   21.6601 C.ar    1  UNL1        0.0562
      8 C          -5.5962  -20.5064   20.4614 C.ar    1  UNL1        0.0150
      9 C          -4.2356  -20.7380   19.8742 C.ar    1  UNL1        0.0021
     10 C          -3.0332  -20.0820   20.4857 C.ar    1  UNL1        0.0115
     11 C          -3.1915  -19.1942   21.6844 C.ar    1  UNL1        0.0589
     12 CL         -1.9892  -18.5382   22.2959 Cl      1  UNL1       -0.0822
     13 C          -4.5523  -18.9626   22.2716 C.ar    1  UNL1        0.0263
     14 C         -10.2165  -17.2655   23.2204 C.3     1  UNL1        0.1123
     15 C          -9.8550  -15.9920   23.9254 C.3     1  UNL1        0.0939
     16 C          -5.1543  -14.7828   25.7806 C.3     1  UNL1        0.0014
     17 C          -6.5049  -15.4069   25.9712 C.3     1  UNL1        0.0160
     18 C          -6.8558  -16.0505   27.2798 C.3     1  UNL1        0.0028
     19 C          -8.2064  -16.6746   27.4703 C.3     1  UNL1        0.0174
     20 C          -9.2061  -16.6551   26.3523 C.3     1  UNL1        0.0721
     21 N          -8.8552  -16.0115   25.0436 N.3     1  UNL1       -0.2712
     22 C          -7.5046  -15.3874   24.8531 C.3     1  UNL1        0.0721
@<TRIPOS>BOND
     1    16    17    1
     2    17    18    1
     3    18    19    1
     4    19    20    1
     5    20    21    1
     6    21    15    1
     7    15    14    1
     8    14     1    1
     9     1     2    1
    10     2     3    1
    11     3     4    1
    12     4     7    1
    13     7     8   ar
    14     8     9   ar
    15     9    10   ar
    16    10    11   ar
    17    11    12    1
    18    11    13   ar
    19     4     5   am
    20     5     6    2
    21    21    22    1
    22    22    17    1
    23     5     1   am
    24    13     7   ar
@<TRIPOS>MOLECULE
*****
 22 24 0 0 0
SMALL
GASTEIGER

@<TRIPOS>ATOM
      1 N          -6.6317  -15.8708   23.9913 N.am    1  UNL1       -0.2606
      2 C          -5.3468  -15.9439   24.7619 C.3     1  UNL1        0.1169
      3 C          -4.4718  -16.9719   24.1076 C.3     1  UNL1        0.1212
      4 N          -5.2161  -17.5339   22.9327 N.am    1  UNL1       -0.2413
      5 C          -6.5509  -16.8534   22.8609 C.2     1  UNL1        0.3111
      6 O          -7.6176  -17.1104   21.8382 O.2     1  UNL1       -0.2520
      7 C          -4.7137  -18.5909   21.9945 C.ar    1  UNL1        0.0562
      8 C          -3.2579  -18.6462   21.6372 C.ar    1  UNL1        0.0150
      9 C          -2.7555  -19.7031   20.6990 C.ar    1  UNL1        0.0021
     10 C          -3.7089  -20.7049   20.1179 C.ar    1  UNL1        0.0115
     11 C          -5.1647  -20.6496   20.4752 C.ar    1  UNL1        0.0589
     12 CL         -6.1181  -21.6513   19.8941 Cl      1  UNL1       -0.0822
     13 C          -5.6670  -19.5926   21.4135 C.ar    1  UNL1        0.0263
     14 C          -7.7934  -14.9726   24.2976 C.3     1  UNL1        0.1123
     15 C          -8.9985  -15.5195   25.0036 C.3     1  UNL1        0.0939
     16 C         -12.3660  -17.4028   21.5232 C.3     1  UNL1        0.0014
     17 C         -11.4331  -17.6200   22.6776 C.3     1  UNL1        0.0160
     18 C         -11.2511  -18.9961   23.2460 C.3     1  UNL1        0.0028
     19 C         -10.3182  -19.2134   24.4004 C.3     1  UNL1        0.0174
     20 C          -9.5673  -18.0545   24.9862 C.3     1  UNL1        0.0721
     21 N          -9.7494  -16.6785   24.4178 N.3     1  UNL1       -0.2712
     22 C         -10.6823  -16.4612   23.2634 C.3     1  UNL1        0.0721
@<TRIPOS>BOND
     1    16    17    1
     2    17    18    1
     3    18    19    1
     4    19    20    1
     5    20    21    1
     6    21    15    1
     7    15    14    1
     8    14     1    1
     9     1     2    1
    10     2     3    1
    11     3     4    1
    12     4     7    1
    13     7     8   ar
    14     8     9   ar
    15     9    10   ar
    16    10    11   ar
    17    11    12    1
    18    11    13   ar
    19     4     5   am
    20     5     6    2
    21    21    22    1
    22    22    17    1
    23     5     1   am
    24    13     7   ar
@<TRIPOS>MOLECULE
*****
 22 24 0 0 0
SMALL
GASTEIGER

@<TRIPOS>ATOM
      1 N          -7.0148  -19.9692   20.7294 N.am    1  UNL1       -0.2606
      2 C          -6.9326  -19.8411   22.2216 C.3     1  UNL1        0.1169
      3 C          -8.1588  -19.1170   22.6929 C.3     1  UNL1        0.1212
      4 N          -8.9989  -18.7977   21.4919 N.am    1  UNL1       -0.2413
      5 C          -8.2918  -19.3244   20.2784 C.2     1  UNL1        0.3111
      6 O          -8.7766  -19.2239   18.8625 O.2     1  UNL1       -0.2520
      7 C         -10.3148  -18.0780   21.5025 C.ar    1  UNL1        0.0562
      8 C         -10.6253  -17.0667   20.4391 C.ar    1  UNL1        0.0150
      9 C         -11.9413  -16.3470   20.4497 C.ar    1  UNL1        0.0021
     10 C         -12.9469  -16.6386   21.5238 C.ar    1  UNL1        0.0115
     11 C         -12.6365  -17.6500   22.5873 C.ar    1  UNL1        0.0589
     12 CL        -13.6422  -17.9416   23.6614 Cl      1  UNL1       -0.0822
     13 C         -11.3205  -18.3696   22.5766 C.ar    1  UNL1        0.0263
     14 C          -5.9984  -20.6268   19.8436 C.3     1  UNL1        0.1123
     15 C          -4.5730  -20.7438   20.2960 C.3     1  UNL1        0.0939
     16 C          -2.4346  -16.5766   22.5457 C.3     1  UNL1        0.0014
     17 C          -2.5946  -17.4692   21.3509 C.3     1  UNL1        0.0160
     18 C          -1.8453  -17.1710   20.0862 C.3     1  UNL1        0.0028
     19 C          -2.0052  -18.0636   18.8914 C.3     1  UNL1        0.0174
     20 C          -2.9145  -19.2546   18.9613 C.3     1  UNL1        0.0721
     21 N          -3.6637  -19.5528   20.2260 N.3     1  UNL1       -0.2712
     22 C          -3.5038  -18.6602   21.4208 C.3     1  UNL1        0.0721
@<TRIPOS>BOND
     1    16    17    1
     2    17    18    1
     3    18    19    1
     4    19    20    1
     5    20    21    1
     6    21    15    1
     7    15    14    1
     8    14     1    1
     9     1     2    1
    10     2     3    1
    11     3     4    1
    12     4     7    1
    13     7     8   ar
    14     8     9   ar
    15     9    10   ar
    16    10    11   ar
    17    11    12    1
    18    11    13   ar
    19     4     5   am
    20     5     6    2
    21    21    22    1
    22    22    17    1
    23     5     1   am
    24    13     7   ar
@<TRIPOS>MOLECULE
*****
 22 24 0 0 0
SMALL
GASTEIGER

@<TRIPOS>ATOM
      1 N          -5.8374  -16.5853   23.6852 N.am    1  UNL1       -0.2606
      2 C          -6.3666  -15.2444   24.0997 C.3     1  UNL1        0.1169
      3 C          -7.8041  -15.1630   23.6786 C.3     1  UNL1        0.1212
      4 N          -8.1631  -16.4537   23.0038 N.am    1  UNL1       -0.2413
      5 C          -6.9477  -17.3327   23.0079 C.2     1  UNL1        0.3111
      6 O          -6.8582  -18.7162   22.4353 O.2     1  UNL1       -0.2520
      7 C          -9.5024  -16.8039   22.4264 C.ar    1  UNL1        0.0562
      8 C         -10.7543  -16.2734   23.0600 C.ar    1  UNL1        0.0150
      9 C         -12.0936  -16.6236   22.4825 C.ar    1  UNL1        0.0021
     10 C         -12.1812  -17.5042   21.2714 C.ar    1  UNL1        0.0115
     11 C         -10.9293  -18.0347   20.6377 C.ar    1  UNL1        0.0589
     12 CL        -11.0168  -18.9153   19.4266 Cl      1  UNL1       -0.0822
     13 C          -9.5900  -17.6845   21.2152 C.ar    1  UNL1        0.0263
     14 C          -4.4427  -17.0902   23.9088 C.3     1  UNL1        0.1123
     15 C          -3.3778  -16.8300   22.8850 C.3     1  UNL1        0.0939
     16 C          -1.7653  -17.6480   18.0136 C.3     1  UNL1        0.0014
     17 C          -2.4380  -18.1428   19.2596 C.3     1  UNL1        0.0160
     18 C          -2.9771  -19.5414   19.3160 C.3     1  UNL1        0.0028
     19 C          -3.6498  -20.0362   20.5621 C.3     1  UNL1        0.0174
     20 C          -3.7834  -19.1325   21.7517 C.3     1  UNL1        0.0721
     21 N          -3.2442  -17.7339   21.6953 N.3     1  UNL1       -0.2712
     22 C          -2.5715  -17.2391   20.4493 C.3     1  UNL1        0.0721
@<TRIPOS>BOND
     1    16    17    1
     2    17    18    1
     3    18    19    1
     4    19    20    1
     5    20    21    1
     6    21    15    1
     7    15    14    1
     8    14     1    1
     9     1     2    1
    10     2     3    1
    11     3     4    1
    12     4     7    1
    13     7     8   ar
    14     8     9   ar
    15     9    10   ar
    16    10    11   ar
    17    11    12    1
    18    11    13   ar
    19     4     5   am
    20     5     6    2
    21    21    22    1
    22    22    17    1
    23     5     1   am
    24    13     7   ar
