@<TRIPOS>MOLECULE
*****
 16 17 0 0 0
SMALL
GASTEIGER

@<TRIPOS>ATOM
      1 C          -9.9595  -19.2490   20.9715 C.ar    1  UNL1        0.1386
      2 C          -9.1654  -19.4456   19.7143 C.ar    1  UNL1        0.0369
      3 C          -7.6723  -19.5725   19.7823 C.ar    1  UNL1        0.0037
      4 C          -6.9734  -19.5030   21.1076 C.ar    1  UNL1        0.0077
      5 C          -7.7674  -19.3065   22.3649 C.ar    1  UNL1        0.0037
      6 C          -9.2605  -19.1795   22.2968 C.ar    1  UNL1        0.0369
      7 C          -5.4803  -19.6299   21.1757 C.ar    1  UNL1        0.0490
      8 C          -4.5900  -20.1589   20.0905 C.ar    1  UNL1        0.0292
      9 C          -3.1748  -20.1061   20.5850 C.ar    1  UNL1        0.1078
     10 N          -3.1905  -19.5445   21.9758 N.ar    1  UNL1       -0.2076
     11 S          -4.6153  -19.2502   22.3409 S.2     1  UNL1        0.0130
     12 O         -11.4526  -19.1221   20.9035 O.3     1  UNL1       -0.4755
     13 C         -12.0930  -17.7665   20.9515 C.3     1  UNL1        0.2054
     14 C         -12.5824  -17.2141   22.2573 C.3     1  UNL1        0.0473
     15 C         -14.0060  -18.0805   24.2505 C.3     1  UNL1        0.0001
     16 C         -12.7433  -18.1202   23.4419 C.3     1  UNL1        0.0038
@<TRIPOS>BOND
     1    15    16    1
     2    16    14    1
     3    14    13    1
     4    13    12    1
     5    12     1    1
     6     1     2   ar
     7     2     3   ar
     8     3     4   ar
     9     4     7    1
    10     7     8   ar
    11     8     9   ar
    12     9    10   ar
    13    10    11   ar
    14     4     5   ar
    15     5     6   ar
    16     6     1   ar
    17    11     7   ar
@<TRIPOS>MOLECULE
*****
 16 17 0 0 0
SMALL
GASTEIGER

@<TRIPOS>ATOM
      1 C          -9.9031  -18.2126   23.2938 C.ar    1  UNL1        0.1386
      2 C          -9.5494  -19.6629   23.1474 C.ar    1  UNL1        0.0369
      3 C          -8.2019  -20.0567   22.6191 C.ar    1  UNL1        0.0037
      4 C          -7.2080  -19.0001   22.2372 C.ar    1  UNL1        0.0077
      5 C          -7.5617  -17.5498   22.3836 C.ar    1  UNL1        0.0037
      6 C          -8.9092  -17.1561   22.9119 C.ar    1  UNL1        0.0369
      7 C          -5.8605  -19.3939   21.7089 C.ar    1  UNL1        0.0490
      8 C          -5.5983  -20.1665   20.4502 C.ar    1  UNL1        0.0292
      9 C          -4.1143  -20.3343   20.3098 C.ar    1  UNL1        0.1078
     10 N          -3.4594  -19.6654   21.4818 N.ar    1  UNL1       -0.2076
     11 S          -4.5386  -19.0842   22.3464 S.2     1  UNL1        0.0130
     12 O         -11.2506  -17.8189   23.8222 O.3     1  UNL1       -0.4755
     13 C         -12.2950  -17.2829   22.8884 C.3     1  UNL1        0.2054
     14 C         -12.4902  -17.9121   21.5408 C.3     1  UNL1        0.0473
     15 C         -10.7002  -18.4363   19.7322 C.3     1  UNL1        0.0001
     16 C         -11.6500  -17.4720   20.3787 C.3     1  UNL1        0.0038
@<TRIPOS>BOND
     1    15    16    1
     2    16    14    1
     3    14    13    1
     4    13    12    1
     5    12     1    1
     6     1     2   ar
     7     2     3   ar
     8     3     4   ar
     9     4     7    1
    10     7     8   ar
    11     8     9   ar
    12     9    10   ar
    13    10    11   ar
    14     4     5   ar
    15     5     6   ar
    16     6     1   ar
    17    11     7   ar
@<TRIPOS>MOLECULE
*****
 16 17 0 0 0
SMALL
GASTEIGER

@<TRIPOS>ATOM
      1 C          -4.2906  -19.5617   21.5217 C.ar    1  UNL1        0.1386
      2 C          -4.9975  -20.2402   20.3860 C.ar    1  UNL1        0.0369
      3 C          -6.4674  -20.0230   20.1806 C.ar    1  UNL1        0.0037
      4 C          -7.2304  -19.1273   21.1109 C.ar    1  UNL1        0.0077
      5 C          -6.5235  -18.4488   22.2467 C.ar    1  UNL1        0.0037
      6 C          -5.0536  -18.6660   22.4521 C.ar    1  UNL1        0.0369
      7 C          -8.7003  -18.9102   20.9055 C.ar    1  UNL1        0.0490
      8 C          -9.4975  -19.3448   19.7115 C.ar    1  UNL1        0.0292
      9 C         -10.9210  -18.9235   19.9261 C.ar    1  UNL1        0.1078
     10 N         -11.0037  -18.2285   21.2528 N.ar    1  UNL1       -0.2076
     11 S          -9.6313  -18.2203   21.8581 S.2     1  UNL1        0.0130
     12 O          -2.8207  -19.7788   21.7271 O.3     1  UNL1       -0.4755
     13 C          -1.8416  -19.3120   20.6911 C.3     1  UNL1        0.2054
     14 C          -2.0179  -17.9708   20.0430 C.3     1  UNL1        0.0473
     15 C          -2.2531  -16.1978   21.9274 C.3     1  UNL1        0.0001
     16 C          -1.5226  -16.7339   20.7321 C.3     1  UNL1        0.0038
@<TRIPOS>BOND
     1    15    16    1
     2    16    14    1
     3    14    13    1
     4    13    12    1
     5    12     1    1
     6     1     2   ar
     7     2     3   ar
     8     3     4   ar
     9     4     7    1
    10     7     8   ar
    11     8     9   ar
    12     9    10   ar
    13    10    11   ar
    14     4     5   ar
    15     5     6   ar
    16     6     1   ar
    17    11     7   ar
@<TRIPOS>MOLECULE
*****
 16 17 0 0 0
SMALL
GASTEIGER

@<TRIPOS>ATOM
      1 C          -6.6073  -20.1550   20.6127 C.ar    1  UNL1        0.1386
      2 C          -7.6784  -19.8438   19.6098 C.ar    1  UNL1        0.0369
      3 C          -9.0169  -19.3486   20.0713 C.ar    1  UNL1        0.0037
      4 C          -9.2844  -19.1646   21.5357 C.ar    1  UNL1        0.0077
      5 C          -8.2134  -19.4759   22.5386 C.ar    1  UNL1        0.0037
      6 C          -6.8748  -19.9711   22.0771 C.ar    1  UNL1        0.0369
      7 C         -10.6230  -18.6694   21.9972 C.ar    1  UNL1        0.0490
      8 C         -11.2151  -18.8700   23.3607 C.ar    1  UNL1        0.0292
      9 C         -12.5626  -18.2113   23.3824 C.ar    1  UNL1        0.1078
     10 N         -12.8032  -17.6035   22.0324 N.ar    1  UNL1       -0.2076
     11 S         -11.6045  -17.8867   21.1763 S.2     1  UNL1        0.0130
     12 O          -5.2687  -20.6502   20.1512 O.3     1  UNL1       -0.4755
     13 C          -4.0364  -19.8368   20.4151 C.3     1  UNL1        0.2054
     14 C          -3.6039  -18.7899   19.4318 C.3     1  UNL1        0.0473
     15 C          -1.6711  -17.2715   20.2737 C.3     1  UNL1        0.0001
     16 C          -2.1668  -18.3639   19.3732 C.3     1  UNL1        0.0038
@<TRIPOS>BOND
     1    15    16    1
     2    16    14    1
     3    14    13    1
     4    13    12    1
     5    12     1    1
     6     1     2   ar
     7     2     3   ar
     8     3     4   ar
     9     4     7    1
    10     7     8   ar
    11     8     9   ar
    12     9    10   ar
    13    10    11   ar
    14     4     5   ar
    15     5     6   ar
    16     6     1   ar
    17    11     7   ar
@<TRIPOS>MOLECULE
*****
 16 17 0 0 0
SMALL
GASTEIGER

@<TRIPOS>ATOM
      1 C         -10.6200  -17.3232   21.9906 C.ar    1  UNL1        0.1386
      2 C          -9.6021  -16.2671   21.6766 C.ar    1  UNL1        0.0369
      3 C          -8.6396  -15.8150   22.7345 C.ar    1  UNL1        0.0037
      4 C          -8.6950  -16.4190   24.1064 C.ar    1  UNL1        0.0077
      5 C          -9.7128  -17.4750   24.4203 C.ar    1  UNL1        0.0037
      6 C         -10.6753  -17.9271   23.3624 C.ar    1  UNL1        0.0369
      7 C          -7.7324  -15.9669   25.1643 C.ar    1  UNL1        0.0490
      8 C          -7.9907  -15.9489   26.6417 C.ar    1  UNL1        0.0292
      9 C          -6.7606  -15.4243   27.3211 C.ar    1  UNL1        0.1078
     10 N          -5.7419  -15.1181   26.2634 N.ar    1  UNL1       -0.2076
     11 S          -6.3426  -15.4534   24.9305 S.2     1  UNL1        0.0130
     12 O         -11.5825  -17.7753   20.9326 O.3     1  UNL1       -0.4755
     13 C         -11.0863  -18.5540   19.7506 C.3     1  UNL1        0.2054
     14 C         -10.0884  -19.6570   19.9444 C.3     1  UNL1        0.0473
     15 C          -7.5724  -19.3950   20.5374 C.3     1  UNL1        0.0001
     16 C          -8.6649  -19.4650   19.5119 C.3     1  UNL1        0.0038
@<TRIPOS>BOND
     1    15    16    1
     2    16    14    1
     3    14    13    1
     4    13    12    1
     5    12     1    1
     6     1     2   ar
     7     2     3   ar
     8     3     4   ar
     9     4     7    1
    10     7     8   ar
    11     8     9   ar
    12     9    10   ar
    13    10    11   ar
    14     4     5   ar
    15     5     6   ar
    16     6     1   ar
    17    11     7   ar
@<TRIPOS>MOLECULE
*****
 16 17 0 0 0
SMALL
GASTEIGER

@<TRIPOS>ATOM
      1 C          -8.9353  -16.7704   25.8901 C.ar    1  UNL1        0.1386
      2 C          -9.4904  -18.1367   25.6164 C.ar    1  UNL1        0.0369
      3 C          -9.9723  -18.4887   24.2403 C.ar    1  UNL1        0.0037
      4 C          -9.8992  -17.4743   23.1378 C.ar    1  UNL1        0.0077
      5 C          -9.3441  -16.1079   23.4114 C.ar    1  UNL1        0.0037
      6 C          -8.8622  -15.7560   24.7876 C.ar    1  UNL1        0.0369
      7 C         -10.3811  -17.8262   21.7616 C.ar    1  UNL1        0.0490
      8 C          -9.9695  -19.0279   20.9637 C.ar    1  UNL1        0.0292
      9 C         -10.6933  -18.9827   19.6507 C.ar    1  UNL1        0.1078
     10 N         -11.5522  -17.7530   19.6370 N.ar    1  UNL1       -0.2076
     11 S         -11.3592  -17.0383   20.9416 S.2     1  UNL1        0.0130
     12 O          -8.4534  -16.4184   27.2663 O.3     1  UNL1       -0.4755
     13 C          -7.2947  -15.4816   27.4384 C.3     1  UNL1        0.2054
     14 C          -5.9463  -15.8482   26.8930 C.3     1  UNL1        0.0473
     15 C          -5.1948  -15.8450   24.4060 C.3     1  UNL1        0.0001
     16 C          -5.3950  -15.1194   25.7035 C.3     1  UNL1        0.0038
@<TRIPOS>BOND
     1    15    16    1
     2    16    14    1
     3    14    13    1
     4    13    12    1
     5    12     1    1
     6     1     2   ar
     7     2     3   ar
     8     3     4   ar
     9     4     7    1
    10     7     8   ar
    11     8     9   ar
    12     9    10   ar
    13    10    11   ar
    14     4     5   ar
    15     5     6   ar
    16     6     1   ar
    17    11     7   ar
@<TRIPOS>MOLECULE
*****
 16 17 0 0 0
SMALL
GASTEIGER

@<TRIPOS>ATOM
      1 C          -6.4343  -15.7598   23.8289 C.ar    1  UNL1        0.1386
      2 C          -6.0045  -17.0822   23.2662 C.ar    1  UNL1        0.0369
      3 C          -6.9840  -17.9290   22.5089 C.ar    1  UNL1        0.0037
      4 C          -8.3932  -17.4534   22.3142 C.ar    1  UNL1        0.0077
      5 C          -8.8229  -16.1311   22.8769 C.ar    1  UNL1        0.0037
      6 C          -7.8435  -15.2843   23.6342 C.ar    1  UNL1        0.0369
      7 C          -9.3727  -18.3002   21.5569 C.ar    1  UNL1        0.0490
      8 C          -9.1018  -19.0272   20.2731 C.ar    1  UNL1        0.0292
      9 C         -10.3567  -19.7450   19.8731 C.ar    1  UNL1        0.1078
     10 N         -11.4032  -19.4617   20.9097 N.ar    1  UNL1       -0.2076
     11 S         -10.7950  -18.5688   21.9503 S.2     1  UNL1        0.0130
     12 O          -5.4548  -14.9130   24.5862 O.3     1  UNL1       -0.4755
     13 C          -5.2561  -15.1298   26.0571 C.3     1  UNL1        0.2054
     14 C          -6.4255  -15.0435   26.9926 C.3     1  UNL1        0.0473
     15 C          -8.5181  -16.5784   27.1162 C.3     1  UNL1        0.0001
     16 C          -7.0903  -16.2969   27.4798 C.3     1  UNL1        0.0038
@<TRIPOS>BOND
     1    15    16    1
     2    16    14    1
     3    14    13    1
     4    13    12    1
     5    12     1    1
     6     1     2   ar
     7     2     3   ar
     8     3     4   ar
     9     4     7    1
    10     7     8   ar
    11     8     9   ar
    12     9    10   ar
    13    10    11   ar
    14     4     5   ar
    15     5     6   ar
    16     6     1   ar
    17    11     7   ar
@<TRIPOS>MOLECULE
*****
 16 17 0 0 0
SMALL
GASTEIGER

@<TRIPOS>ATOM
      1 C          -9.6319  -18.6210   22.2186 C.ar    1  UNL1        0.1386
      2 C          -8.2526  -18.1912   21.8151 C.ar    1  UNL1        0.0369
      3 C          -7.4307  -17.3431   22.7399 C.ar    1  UNL1        0.0037
      4 C          -7.9880  -16.9248   24.0681 C.ar    1  UNL1        0.0077
      5 C          -9.3673  -17.3546   24.4716 C.ar    1  UNL1        0.0037
      6 C         -10.1892  -18.2027   23.5468 C.ar    1  UNL1        0.0369
      7 C          -7.1661  -16.0768   24.9929 C.ar    1  UNL1        0.0490
      8 C          -7.4997  -15.7477   26.4178 C.ar    1  UNL1        0.0292
      9 C          -6.4061  -14.8764   26.9607 C.ar    1  UNL1        0.1078
     10 N          -5.3964  -14.6670   25.8713 N.ar    1  UNL1       -0.2076
     11 S          -5.8662  -15.4088   24.6551 S.2     1  UNL1        0.0130
     12 O         -10.4538  -19.4691   21.2938 O.3     1  UNL1       -0.4755
     13 C         -11.4737  -18.8306   20.3983 C.3     1  UNL1        0.2054
     14 C         -11.1760  -17.5160   19.7402 C.3     1  UNL1        0.0473
     15 C         -12.4245  -16.2566   21.6389 C.3     1  UNL1        0.0001
     16 C         -11.7618  -16.2507   20.2933 C.3     1  UNL1        0.0038
@<TRIPOS>BOND
     1    15    16    1
     2    16    14    1
     3    14    13    1
     4    13    12    1
     5    12     1    1
     6     1     2   ar
     7     2     3   ar
     8     3     4   ar
     9     4     7    1
    10     7     8   ar
    11     8     9   ar
    12     9    10   ar
    13    10    11   ar
    14     4     5   ar
    15     5     6   ar
    16     6     1   ar
    17    11     7   ar
@<TRIPOS>MOLECULE
*****
 16 17 0 0 0
SMALL
GASTEIGER

@<TRIPOS>ATOM
      1 C         -12.8587   -4.4470   18.2136 C.ar    1  UNL1        0.1386
      2 C         -13.0869   -5.3811   17.0625 C.ar    1  UNL1        0.0369
      3 C         -13.9038   -6.6242   17.2559 C.ar    1  UNL1        0.0037
      4 C         -14.4924   -6.9332   18.6005 C.ar    1  UNL1        0.0077
      5 C         -14.2642   -5.9990   19.7517 C.ar    1  UNL1        0.0037
      6 C         -13.4474   -4.7559   19.5582 C.ar    1  UNL1        0.0369
      7 C         -15.3093   -8.1763   18.7940 C.ar    1  UNL1        0.0490
      8 C         -16.4346   -8.3487   19.7706 C.ar    1  UNL1        0.0292
      9 C         -16.9651   -9.7442   19.6250 C.ar    1  UNL1        0.1078
     10 N         -16.1675  -10.4343   18.5584 N.ar    1  UNL1       -0.2076
     11 S         -15.1442   -9.4653   18.0448 S.2     1  UNL1        0.0130
     12 O         -12.0419   -3.2038   18.0202 O.3     1  UNL1       -0.4755
     13 C         -10.5442   -3.2858   18.0019 C.3     1  UNL1        0.2054
     14 C          -9.8412   -4.3440   18.7994 C.3     1  UNL1        0.0473
     15 C         -10.0773   -6.9313   18.7791 C.3     1  UNL1        0.0001
     16 C          -9.5310   -5.6720   18.1744 C.3     1  UNL1        0.0038
@<TRIPOS>BOND
     1    15    16    1
     2    16    14    1
     3    14    13    1
     4    13    12    1
     5    12     1    1
     6     1     2   ar
     7     2     3   ar
     8     3     4   ar
     9     4     7    1
    10     7     8   ar
    11     8     9   ar
    12     9    10   ar
    13    10    11   ar
    14     4     5   ar
    15     5     6   ar
    16     6     1   ar
    17    11     7   ar
