@<TRIPOS>MOLECULE
*****
 37 40 0 0 0
SMALL
GASTEIGER

@<TRIPOS>ATOM
      1 C           8.2055   -6.7039   24.4678 C.3     1  UNL1        0.0553
      2 C           7.5734   -5.4790   23.8761 C.ar    1  UNL1        0.0939
      3 N           7.6468   -5.0556   22.4389 N.ar    1  UNL1       -0.1721
      4 N           6.8757   -3.7774   22.2922 N.ar    1  UNL1       -0.2463
      5 C           6.3257   -3.4108   23.6387 C.ar    1  UNL1        0.1112
      6 C           6.7568   -4.4624   24.6176 C.ar    1  UNL1        0.0850
      7 N           6.4290   -4.4922   26.0810 N.am    1  UNL1       -0.2765
      8 C           7.4731   -4.1193   27.0912 C.2     1  UNL1        0.2754
      9 O           8.8451   -3.7165   26.6381 O.2     1  UNL1       -0.2675
     10 H           5.5285   -4.7566   26.3785 H       1  UNL1        0.1553
     11 C           7.1453   -4.1491   28.5546 C.ar    1  UNL1        0.1872
     12 N           7.0943   -5.3718   29.4220 N.ar    1  UNL1       -0.1361
     13 N           6.7284   -4.9398   30.8111 N.ar    1  UNL1       -0.1391
     14 C           6.5533   -3.4501   30.8022 C.ar    1  UNL1        0.1514
     15 S           6.8109   -2.9614   29.4077 S.2     1  UNL1       -0.0395
     16 C           6.1851   -2.5986   31.9809 C.ar    1  UNL1        0.1068
     17 C           7.1672   -1.6025   32.5225 C.ar    1  UNL1        0.0213
     18 C           6.7990   -0.7510   33.7013 C.ar    1  UNL1        0.0032
     19 C           5.4488   -0.8956   34.3384 C.ar    1  UNL1        0.0207
     20 C           4.4667   -1.8916   33.7968 C.ar    1  UNL1        0.0989
     21 N           4.8348   -2.7432   32.6181 N.ar    1  UNL1       -0.2417
     22 C           6.6877   -3.0020   21.0221 C.3     1  UNL1        0.1274
     23 C           7.7761   -2.9773   19.9903 C.3     1  UNL1        0.0312
     24 C           5.4111   -2.2512   20.7837 C.ar    1  UNL1        0.0038
     25 C           5.2265   -0.8815   21.3667 C.ar    1  UNL1       -0.0025
     26 C           3.9499   -0.1308   21.1283 C.ar    1  UNL1        0.0036
     27 C           2.8580   -0.7498   20.3070 C.ar    1  UNL1        0.0714
     28 C           3.0426   -2.1194   19.7240 C.ar    1  UNL1        0.0074
     29 C           4.3192   -2.8701   19.9624 C.ar    1  UNL1        0.0692
     30 C           1.5814    0.0010   20.0686 C.3     1  UNL1        0.4186
     31 F           0.3049    0.7518   19.8303 F       1  UNL1       -0.1659
     32 F           0.8174   -1.2895   20.0955 F       1  UNL1       -0.1659
     33 F           2.3455    1.2915   20.0418 F       1  UNL1       -0.1659
     34 C           4.5038   -4.2399   19.3794 C.3     1  UNL1        0.4183
     35 F           4.6885   -5.6095   18.7963 F       1  UNL1       -0.1659
     36 F           5.1029   -3.6337   18.1450 F       1  UNL1       -0.1659
     37 F           3.9048   -4.8461   20.6137 F       1  UNL1       -0.1659
@<TRIPOS>BOND
     1     1     2    1
     2     2     3   ar
     3     3     4   ar
     4     4    22    1
     5    22    23    1
     6    22    24    1
     7    24    25   ar
     8    25    26   ar
     9    26    27   ar
    10    27    30    1
    11    30    31    1
    12    30    32    1
    13    30    33    1
    14    27    28   ar
    15    28    29   ar
    16    29    34    1
    17    34    35    1
    18    34    36    1
    19    34    37    1
    20     4     5   ar
    21     5     6   ar
    22     6     7    1
    23     7     8   am
    24     8     9    2
    25     8    11    1
    26    11    12   ar
    27    12    13   ar
    28    13    14   ar
    29    14    16    1
    30    16    17   ar
    31    17    18   ar
    32    18    19   ar
    33    19    20   ar
    34    20    21   ar
    35    14    15   ar
    36     6     2   ar
    37    15    11   ar
    38    29    24   ar
    39    21    16   ar
    40     7    10    1
@<TRIPOS>MOLECULE
*****
 37 40 0 0 0
SMALL
GASTEIGER

@<TRIPOS>ATOM
      1 C           2.6854   -0.5586   30.5718 C.3     1  UNL1        0.0553
      2 C           3.7123   -0.1002   31.5645 C.ar    1  UNL1        0.0939
      3 N           3.5179    0.9590   32.6086 N.ar    1  UNL1       -0.1721
      4 N           4.7992    1.0933   33.3769 N.ar    1  UNL1       -0.2463
      5 C           5.7854    0.1170   32.8076 C.ar    1  UNL1        0.1112
      6 C           5.1137   -0.6207   31.6875 C.ar    1  UNL1        0.0850
      7 N           5.7344   -1.6908   30.8392 N.am    1  UNL1       -0.2765
      8 C           6.0100   -3.0448   31.4229 C.2     1  UNL1        0.2754
      9 O           5.6648   -3.3287   32.8547 O.2     1  UNL1       -0.2675
     10 H           5.9610   -1.5045   29.8995 H       1  UNL1        0.1553
     11 C           6.6307   -4.1149   30.5747 C.ar    1  UNL1        0.1872
     12 N           7.3726   -5.3182   31.0765 N.ar    1  UNL1       -0.1361
     13 N           7.8189   -6.1166   29.8877 N.ar    1  UNL1       -0.1391
     14 C           7.3529   -5.4069   28.6512 C.ar    1  UNL1        0.1514
     15 S           6.6185   -4.1697   29.0757 S.2     1  UNL1       -0.0395
     16 C           7.5811   -5.8555   27.2381 C.ar    1  UNL1        0.1068
     17 C           7.8039   -7.3084   26.9392 C.ar    1  UNL1        0.0213
     18 C           8.0321   -7.7569   25.5261 C.ar    1  UNL1        0.0032
     19 C           8.0376   -6.7525   24.4120 C.ar    1  UNL1        0.0207
     20 C           7.8149   -5.2996   24.7109 C.ar    1  UNL1        0.0989
     21 N           7.5867   -4.8510   26.1240 N.ar    1  UNL1       -0.2417
     22 C           5.0502    2.0380   34.5147 C.3     1  UNL1        0.1274
     23 C           6.1943    3.0056   34.4477 C.3     1  UNL1        0.0312
     24 C           4.1570    2.0149   35.7196 C.ar    1  UNL1        0.0038
     25 C           2.9952    2.9594   35.8102 C.ar    1  UNL1       -0.0025
     26 C           2.1021    2.9363   37.0150 C.ar    1  UNL1        0.0036
     27 C           2.3707    1.9688   38.1293 C.ar    1  UNL1        0.0714
     28 C           3.5325    1.0243   38.0388 C.ar    1  UNL1        0.0074
     29 C           4.4256    1.0474   36.8339 C.ar    1  UNL1        0.0692
     30 C           1.4775    1.9457   39.3343 C.3     1  UNL1        0.4186
     31 F           0.5844    1.9227   40.5391 F       1  UNL1       -0.1659
     32 F           0.8606    0.6662   38.8525 F       1  UNL1       -0.1659
     33 F           2.0945    3.2252   39.8160 F       1  UNL1       -0.1659
     34 C           5.5875    0.1029   36.7433 C.3     1  UNL1        0.4183
     35 F           6.7492   -0.8416   36.6527 F       1  UNL1       -0.1659
     36 F           4.7285   -0.8833   36.0088 F       1  UNL1       -0.1659
     37 F           6.4465    1.0890   37.4779 F       1  UNL1       -0.1659
@<TRIPOS>BOND
     1     1     2    1
     2     2     3   ar
     3     3     4   ar
     4     4    22    1
     5    22    23    1
     6    22    24    1
     7    24    25   ar
     8    25    26   ar
     9    26    27   ar
    10    27    30    1
    11    30    31    1
    12    30    32    1
    13    30    33    1
    14    27    28   ar
    15    28    29   ar
    16    29    34    1
    17    34    35    1
    18    34    36    1
    19    34    37    1
    20     4     5   ar
    21     5     6   ar
    22     6     7    1
    23     7     8   am
    24     8     9    2
    25     8    11    1
    26    11    12   ar
    27    12    13   ar
    28    13    14   ar
    29    14    16    1
    30    16    17   ar
    31    17    18   ar
    32    18    19   ar
    33    19    20   ar
    34    20    21   ar
    35    14    15   ar
    36     6     2   ar
    37    15    11   ar
    38    29    24   ar
    39    21    16   ar
    40     7    10    1
@<TRIPOS>MOLECULE
*****
 37 40 0 0 0
SMALL
GASTEIGER

@<TRIPOS>ATOM
      1 C           8.4164   -4.5598   22.8840 C.3     1  UNL1        0.0553
      2 C           7.0079   -4.1787   22.5365 C.ar    1  UNL1        0.0939
      3 N           6.4306   -4.1027   21.1541 N.ar    1  UNL1       -0.1721
      4 N           4.9953   -3.6837   21.2735 N.ar    1  UNL1       -0.2463
      5 C           4.6855   -3.5007   22.7297 C.ar    1  UNL1        0.1112
      6 C           5.9294   -3.8066   23.5103 C.ar    1  UNL1        0.0850
      7 N           6.0699   -3.7503   25.0026 N.am    1  UNL1       -0.2765
      8 C           6.4240   -2.4567   25.6743 C.2     1  UNL1        0.2754
      9 O           6.6374   -1.2194   24.8537 O.2     1  UNL1       -0.2675
     10 H           5.9299   -4.5624   25.5412 H       1  UNL1        0.1553
     11 C           6.5645   -2.4004   27.1666 C.ar    1  UNL1        0.1872
     12 N           7.7718   -2.8145   27.9547 N.ar    1  UNL1       -0.1361
     13 N           7.4760   -2.5902   29.4081 N.ar    1  UNL1       -0.1391
     14 C           6.0859   -2.0374   29.5182 C.ar    1  UNL1        0.1514
     15 S           5.5226   -1.9201   28.1329 S.2     1  UNL1       -0.0395
     16 C           5.3826   -1.6670   30.7902 C.ar    1  UNL1        0.1068
     17 C           5.7104   -2.3858   32.0652 C.ar    1  UNL1        0.0213
     18 C           5.0070   -2.0153   33.3373 C.ar    1  UNL1        0.0032
     19 C           3.9759   -0.9260   33.3343 C.ar    1  UNL1        0.0207
     20 C           3.6480   -0.2071   32.0592 C.ar    1  UNL1        0.0989
     21 N           4.3514   -0.5776   30.7872 N.ar    1  UNL1       -0.2417
     22 C           4.0378   -3.4830   20.1364 C.3     1  UNL1        0.1274
     23 C           3.4741   -4.6694   19.4122 C.3     1  UNL1        0.0312
     24 C           3.6441   -2.0957   19.7235 C.ar    1  UNL1        0.0038
     25 C           2.3443   -1.5135   20.1942 C.ar    1  UNL1       -0.0025
     26 C           1.9507   -0.1263   19.7813 C.ar    1  UNL1        0.0036
     27 C           2.8568    0.6788   18.8976 C.ar    1  UNL1        0.0714
     28 C           4.1566    0.0966   18.4269 C.ar    1  UNL1        0.0074
     29 C           4.5502   -1.2906   18.8399 C.ar    1  UNL1        0.0692
     30 C           2.4631    2.0661   18.4847 C.3     1  UNL1        0.4186
     31 F           2.0693    3.4533   18.0718 F       1  UNL1       -0.1659
     32 F           3.8167    2.5705   18.8886 F       1  UNL1       -0.1659
     33 F           1.1094    1.5617   18.0809 F       1  UNL1       -0.1659
     34 C           5.8501   -1.8728   18.3692 C.3     1  UNL1        0.4183
     35 F           7.1499   -2.4550   17.8985 F       1  UNL1       -0.1659
     36 F           6.5533   -1.2468   19.5368 F       1  UNL1       -0.1659
     37 F           5.1469   -2.4989   17.2015 F       1  UNL1       -0.1659
@<TRIPOS>BOND
     1     1     2    1
     2     2     3   ar
     3     3     4   ar
     4     4    22    1
     5    22    23    1
     6    22    24    1
     7    24    25   ar
     8    25    26   ar
     9    26    27   ar
    10    27    30    1
    11    30    31    1
    12    30    32    1
    13    30    33    1
    14    27    28   ar
    15    28    29   ar
    16    29    34    1
    17    34    35    1
    18    34    36    1
    19    34    37    1
    20     4     5   ar
    21     5     6   ar
    22     6     7    1
    23     7     8   am
    24     8     9    2
    25     8    11    1
    26    11    12   ar
    27    12    13   ar
    28    13    14   ar
    29    14    16    1
    30    16    17   ar
    31    17    18   ar
    32    18    19   ar
    33    19    20   ar
    34    20    21   ar
    35    14    15   ar
    36     6     2   ar
    37    15    11   ar
    38    29    24   ar
    39    21    16   ar
    40     7    10    1
@<TRIPOS>MOLECULE
*****
 37 40 0 0 0
SMALL
GASTEIGER

@<TRIPOS>ATOM
      1 C           2.7562   -0.4546   30.8976 C.3     1  UNL1        0.0553
      2 C           3.5468   -0.1680   32.1397 C.ar    1  UNL1        0.0939
      3 N           3.4427    1.0661   32.9860 N.ar    1  UNL1       -0.1721
      4 N           4.4118    0.9317   34.1230 N.ar    1  UNL1       -0.2463
      5 C           5.1148   -0.3856   33.9794 C.ar    1  UNL1        0.1112
      6 C           4.5802   -1.0652   32.7537 C.ar    1  UNL1        0.0850
      7 N           5.0046   -2.4066   32.2334 N.am    1  UNL1       -0.2765
      8 C           6.2007   -2.5185   31.3354 C.2     1  UNL1        0.2754
      9 O           6.9726   -1.2891   30.9576 O.2     1  UNL1       -0.2675
     10 H           4.4980   -3.2135   32.4814 H       1  UNL1        0.1553
     11 C           6.6251   -3.8598   30.8151 C.ar    1  UNL1        0.1872
     12 N           6.8619   -5.0905   31.6393 N.ar    1  UNL1       -0.1361
     13 N           7.2703   -6.1973   30.7129 N.ar    1  UNL1       -0.1391
     14 C           7.2859   -5.6506   29.3161 C.ar    1  UNL1        0.1514
     15 S           6.8871   -4.2060   29.3793 S.2     1  UNL1       -0.0395
     16 C           7.6383   -6.4144   28.0742 C.ar    1  UNL1        0.1068
     17 C           7.2853   -5.8588   26.7264 C.ar    1  UNL1        0.0213
     18 C           7.6378   -6.6227   25.4845 C.ar    1  UNL1        0.0032
     19 C           8.3433   -7.9422   25.5904 C.ar    1  UNL1        0.0207
     20 C           8.6963   -8.4978   26.9382 C.ar    1  UNL1        0.0989
     21 N           8.3438   -7.7340   28.1801 N.ar    1  UNL1       -0.2417
     22 C           4.6381    1.9378   35.2122 C.3     1  UNL1        0.1274
     23 C           5.7491    2.9381   35.0902 C.3     1  UNL1        0.0312
     24 C           3.7534    1.9436   36.4236 C.ar    1  UNL1        0.0038
     25 C           3.9153    0.8868   37.4756 C.ar    1  UNL1       -0.0025
     26 C           3.0306    0.8926   38.6869 C.ar    1  UNL1        0.0036
     27 C           1.9839    1.9552   38.8460 C.ar    1  UNL1        0.0714
     28 C           1.8219    3.0120   37.7940 C.ar    1  UNL1        0.0074
     29 C           2.7067    3.0062   36.5827 C.ar    1  UNL1        0.0692
     30 C           1.0991    1.9609   40.0574 C.3     1  UNL1        0.4186
     31 F           0.2144    1.9667   41.2687 F       1  UNL1       -0.1659
     32 F           0.5563    0.6182   39.6673 F       1  UNL1       -0.1659
     33 F           1.6420    3.3037   40.4475 F       1  UNL1       -0.1659
     34 C           2.5447    4.0630   35.5306 C.3     1  UNL1        0.4183
     35 F           2.3828    5.1198   34.4785 F       1  UNL1       -0.1659
     36 F           3.4140    4.9897   36.3277 F       1  UNL1       -0.1659
     37 F           1.6755    3.1362   34.7334 F       1  UNL1       -0.1659
@<TRIPOS>BOND
     1     1     2    1
     2     2     3   ar
     3     3     4   ar
     4     4    22    1
     5    22    23    1
     6    22    24    1
     7    24    25   ar
     8    25    26   ar
     9    26    27   ar
    10    27    30    1
    11    30    31    1
    12    30    32    1
    13    30    33    1
    14    27    28   ar
    15    28    29   ar
    16    29    34    1
    17    34    35    1
    18    34    36    1
    19    34    37    1
    20     4     5   ar
    21     5     6   ar
    22     6     7    1
    23     7     8   am
    24     8     9    2
    25     8    11    1
    26    11    12   ar
    27    12    13   ar
    28    13    14   ar
    29    14    16    1
    30    16    17   ar
    31    17    18   ar
    32    18    19   ar
    33    19    20   ar
    34    20    21   ar
    35    14    15   ar
    36     6     2   ar
    37    15    11   ar
    38    29    24   ar
    39    21    16   ar
    40     7    10    1
@<TRIPOS>MOLECULE
*****
 37 40 0 0 0
SMALL
GASTEIGER

@<TRIPOS>ATOM
      1 C           2.1652    4.2792   24.8813 C.3     1  UNL1        0.0553
      2 C           2.6614    3.2008   23.9644 C.ar    1  UNL1        0.0939
      3 N           2.7366    3.2809   22.4684 N.ar    1  UNL1       -0.1721
      4 N           3.2913    1.9826   21.9619 N.ar    1  UNL1       -0.2463
      5 C           3.5590    1.1000   23.1449 C.ar    1  UNL1        0.1112
      6 C           3.1697    1.8529   24.3825 C.ar    1  UNL1        0.0850
      7 N           3.2709    1.3467   25.7908 N.am    1  UNL1       -0.2765
      8 C           2.0331    0.9325   26.5297 C.2     1  UNL1        0.2754
      9 O           0.6939    1.0245   25.8603 O.2     1  UNL1       -0.2675
     10 H           4.1498    1.2863   26.2302 H       1  UNL1        0.1553
     11 C           2.1343    0.4264   27.9381 C.ar    1  UNL1        0.1872
     12 N           0.9946    0.2594   28.8990 N.ar    1  UNL1       -0.1361
     13 N           1.5489   -0.2719   30.1876 N.ar    1  UNL1       -0.1391
     14 C           3.0310   -0.4332   30.0231 C.ar    1  UNL1        0.1514
     15 S           3.3929   -0.0017   28.6328 S.2     1  UNL1       -0.0395
     16 C           3.9841   -0.9376   31.0658 C.ar    1  UNL1        0.1068
     17 C           5.4296   -1.1453   30.7231 C.ar    1  UNL1        0.0213
     18 C           6.3826   -1.6497   31.7659 C.ar    1  UNL1        0.0032
     19 C           5.8903   -1.9463   33.1514 C.ar    1  UNL1        0.0207
     20 C           4.4448   -1.7386   33.4941 C.ar    1  UNL1        0.0989
     21 N           3.4917   -1.2342   32.4514 N.ar    1  UNL1       -0.2417
     22 C           3.5355    1.6289   20.5248 C.3     1  UNL1        0.1274
     23 C           3.5354    2.7028   19.4776 C.3     1  UNL1        0.0312
     24 C           3.7798    0.2012   20.1349 C.ar    1  UNL1        0.0038
     25 C           5.1836   -0.3110   20.0045 C.ar    1  UNL1       -0.0025
     26 C           5.4279   -1.7387   19.6146 C.ar    1  UNL1        0.0036
     27 C           4.2683   -2.6542   19.3550 C.ar    1  UNL1        0.0714
     28 C           2.8646   -2.1420   19.4854 C.ar    1  UNL1        0.0074
     29 C           2.6203   -0.7143   19.8753 C.ar    1  UNL1        0.0692
     30 C           4.5127   -4.0819   18.9651 C.3     1  UNL1        0.4186
     31 F           4.7569   -5.5095   18.5752 F       1  UNL1       -0.1659
     32 F           5.9901   -3.8699   19.1144 F       1  UNL1       -0.1659
     33 F           3.0353   -4.2939   18.8158 F       1  UNL1       -0.1659
     34 C           1.2165   -0.2021   20.0057 C.3     1  UNL1        0.4183
     35 F          -0.1873    0.3101   20.1361 F       1  UNL1       -0.1659
     36 F           1.2261   -0.5474   21.4653 F       1  UNL1       -0.1659
     37 F           1.2068    0.1432   18.5460 F       1  UNL1       -0.1659
@<TRIPOS>BOND
     1     1     2    1
     2     2     3   ar
     3     3     4   ar
     4     4    22    1
     5    22    23    1
     6    22    24    1
     7    24    25   ar
     8    25    26   ar
     9    26    27   ar
    10    27    30    1
    11    30    31    1
    12    30    32    1
    13    30    33    1
    14    27    28   ar
    15    28    29   ar
    16    29    34    1
    17    34    35    1
    18    34    36    1
    19    34    37    1
    20     4     5   ar
    21     5     6   ar
    22     6     7    1
    23     7     8   am
    24     8     9    2
    25     8    11    1
    26    11    12   ar
    27    12    13   ar
    28    13    14   ar
    29    14    16    1
    30    16    17   ar
    31    17    18   ar
    32    18    19   ar
    33    19    20   ar
    34    20    21   ar
    35    14    15   ar
    36     6     2   ar
    37    15    11   ar
    38    29    24   ar
    39    21    16   ar
    40     7    10    1
@<TRIPOS>MOLECULE
*****
 37 40 0 0 0
SMALL
GASTEIGER

@<TRIPOS>ATOM
      1 C           2.9970    2.5942   25.6054 C.3     1  UNL1        0.0553
      2 C           2.8462    2.4268   24.1224 C.ar    1  UNL1        0.0939
      3 N           3.8899    1.8972   23.1842 N.ar    1  UNL1       -0.1721
      4 N           3.3139    1.9026   21.7992 N.ar    1  UNL1       -0.2463
      5 C           1.9142    2.4355   21.8814 C.ar    1  UNL1        0.1112
      6 C           1.6251    2.7594   23.3172 C.ar    1  UNL1        0.0850
      7 N           0.3405    3.3180   23.8536 N.am    1  UNL1       -0.2765
      8 C          -0.5456    2.4673   24.7145 C.2     1  UNL1        0.2754
      9 O          -0.1471    1.0581   25.0390 O.2     1  UNL1       -0.2675
     10 H           0.0789    4.2429   23.6407 H       1  UNL1        0.1553
     11 C          -1.8303    3.0259   25.2509 C.ar    1  UNL1        0.1872
     12 N          -2.1646    3.2347   26.6982 N.ar    1  UNL1       -0.1361
     13 N          -3.5471    3.8115   26.7760 N.ar    1  UNL1       -0.1391
     14 C          -4.0671    3.9593   25.3768 C.ar    1  UNL1        0.1514
     15 S          -3.0061    3.4737   24.4343 S.2     1  UNL1       -0.0395
     16 C          -5.4121    4.4980   24.9884 C.ar    1  UNL1        0.1068
     17 C          -6.0537    4.0593   23.7055 C.ar    1  UNL1        0.0213
     18 C          -7.3987    4.5980   23.3171 C.ar    1  UNL1        0.0032
     19 C          -8.1020    5.5754   24.2115 C.ar    1  UNL1        0.0207
     20 C          -7.4604    6.0141   25.4944 C.ar    1  UNL1        0.0989
     21 N          -6.1154    5.4754   25.8829 N.ar    1  UNL1       -0.2417
     22 C           4.0146    1.4539   20.5511 C.3     1  UNL1        0.1274
     23 C           4.6072    2.4678   19.6180 C.3     1  UNL1        0.0312
     24 C           4.1227   -0.0087   20.2363 C.ar    1  UNL1        0.0038
     25 C           5.3156   -0.7900   20.7018 C.ar    1  UNL1       -0.0025
     26 C           5.4236   -2.2525   20.3870 C.ar    1  UNL1        0.0036
     27 C           4.3388   -2.9339   19.6066 C.ar    1  UNL1        0.0714
     28 C           3.1460   -2.1526   19.1410 C.ar    1  UNL1        0.0074
     29 C           3.0380   -0.6901   19.4559 C.ar    1  UNL1        0.0692
     30 C           4.4470   -4.3965   19.2917 C.3     1  UNL1        0.4186
     31 F           4.5550   -5.8591   18.9769 F       1  UNL1       -0.1659
     32 F           5.8564   -4.4029   19.8049 F       1  UNL1       -0.1659
     33 F           3.0375   -4.3902   18.7785 F       1  UNL1       -0.1659
     34 C           1.8451    0.0912   18.9903 C.3     1  UNL1        0.4183
     35 F           0.6523    0.8725   18.5248 F       1  UNL1       -0.1659
     36 F           1.0927   -0.3254   20.2192 F       1  UNL1       -0.1659
     37 F           2.5975    0.5079   17.7614 F       1  UNL1       -0.1659
@<TRIPOS>BOND
     1     1     2    1
     2     2     3   ar
     3     3     4   ar
     4     4    22    1
     5    22    23    1
     6    22    24    1
     7    24    25   ar
     8    25    26   ar
     9    26    27   ar
    10    27    30    1
    11    30    31    1
    12    30    32    1
    13    30    33    1
    14    27    28   ar
    15    28    29   ar
    16    29    34    1
    17    34    35    1
    18    34    36    1
    19    34    37    1
    20     4     5   ar
    21     5     6   ar
    22     6     7    1
    23     7     8   am
    24     8     9    2
    25     8    11    1
    26    11    12   ar
    27    12    13   ar
    28    13    14   ar
    29    14    16    1
    30    16    17   ar
    31    17    18   ar
    32    18    19   ar
    33    19    20   ar
    34    20    21   ar
    35    14    15   ar
    36     6     2   ar
    37    15    11   ar
    38    29    24   ar
    39    21    16   ar
    40     7    10    1
@<TRIPOS>MOLECULE
*****
 37 40 0 0 0
SMALL
GASTEIGER

@<TRIPOS>ATOM
      1 C           8.5470   -3.3474   22.7328 C.3     1  UNL1        0.0553
      2 C           7.0814   -3.3298   22.4143 C.ar    1  UNL1        0.0939
      3 N           6.4779   -3.2387   21.0440 N.ar    1  UNL1       -0.1721
      4 N           4.9854   -3.2527   21.1929 N.ar    1  UNL1       -0.2463
      5 C           4.6664   -3.3525   22.6551 C.ar    1  UNL1        0.1112
      6 C           5.9617   -3.4001   23.4100 C.ar    1  UNL1        0.0850
      7 N           6.1112   -3.5005   24.8992 N.am    1  UNL1       -0.2765
      8 C           6.7542   -4.7109   25.5085 C.2     1  UNL1        0.2754
      9 O           7.2478   -5.8209   24.6287 O.2     1  UNL1       -0.2675
     10 H           5.7872   -2.7719   25.4766 H       1  UNL1        0.1553
     11 C           6.9037   -4.8112   26.9976 C.ar    1  UNL1        0.1872
     12 N           6.9372   -6.0801   27.7969 N.ar    1  UNL1       -0.1361
     13 N           7.1001   -5.7135   29.2422 N.ar    1  UNL1       -0.1391
     14 C           7.1673   -4.2179   29.3363 C.ar    1  UNL1        0.1514
     15 S           7.0459   -3.6603   27.9491 S.2     1  UNL1       -0.0395
     16 C           7.3276   -3.4201   30.5963 C.ar    1  UNL1        0.1068
     17 C           6.1308   -2.7833   31.2383 C.ar    1  UNL1        0.0213
     18 C           6.2913   -1.9854   32.4983 C.ar    1  UNL1        0.0032
     19 C           7.6485   -1.8243   33.1164 C.ar    1  UNL1        0.0207
     20 C           8.8453   -2.4611   32.4744 C.ar    1  UNL1        0.0989
     21 N           8.6849   -3.2590   31.2144 N.ar    1  UNL1       -0.2417
     22 C           3.9872   -3.1798   20.0756 C.3     1  UNL1        0.1274
     23 C           3.5803   -4.4284   19.3507 C.3     1  UNL1        0.0312
     24 C           3.3958   -1.8583   19.6833 C.ar    1  UNL1        0.0038
     25 C           2.0742   -1.4304   20.2492 C.ar    1  UNL1       -0.0025
     26 C           1.4829   -0.1089   19.8569 C.ar    1  UNL1        0.0036
     27 C           2.2132    0.7847   18.8987 C.ar    1  UNL1        0.0714
     28 C           3.5348    0.3569   18.3328 C.ar    1  UNL1        0.0074
     29 C           4.1261   -0.9646   18.7251 C.ar    1  UNL1        0.0692
     30 C           1.6218    2.1063   18.5064 C.3     1  UNL1        0.4186
     31 F           1.0305    3.4278   18.1141 F       1  UNL1       -0.1659
     32 F           0.2728    1.6393   18.9667 F       1  UNL1       -0.1659
     33 F           2.9709    2.5733   18.0460 F       1  UNL1       -0.1659
     34 C           5.4477   -1.3926   18.1592 C.3     1  UNL1        0.4183
     35 F           6.7693   -1.8206   17.5933 F       1  UNL1       -0.1659
     36 F           4.7386   -2.1531   17.0782 F       1  UNL1       -0.1659
     37 F           6.1569   -0.6321   19.2402 F       1  UNL1       -0.1659
@<TRIPOS>BOND
     1     1     2    1
     2     2     3   ar
     3     3     4   ar
     4     4    22    1
     5    22    23    1
     6    22    24    1
     7    24    25   ar
     8    25    26   ar
     9    26    27   ar
    10    27    30    1
    11    30    31    1
    12    30    32    1
    13    30    33    1
    14    27    28   ar
    15    28    29   ar
    16    29    34    1
    17    34    35    1
    18    34    36    1
    19    34    37    1
    20     4     5   ar
    21     5     6   ar
    22     6     7    1
    23     7     8   am
    24     8     9    2
    25     8    11    1
    26    11    12   ar
    27    12    13   ar
    28    13    14   ar
    29    14    16    1
    30    16    17   ar
    31    17    18   ar
    32    18    19   ar
    33    19    20   ar
    34    20    21   ar
    35    14    15   ar
    36     6     2   ar
    37    15    11   ar
    38    29    24   ar
    39    21    16   ar
    40     7    10    1
@<TRIPOS>MOLECULE
*****
 37 40 0 0 0
SMALL
GASTEIGER

@<TRIPOS>ATOM
      1 C          -0.3726    1.2731   26.1753 C.3     1  UNL1        0.0553
      2 C           0.9083    1.1217   25.4096 C.ar    1  UNL1        0.0939
      3 N           1.0511    1.1452   23.9166 N.ar    1  UNL1       -0.1721
      4 N           2.5023    0.9583   23.5867 N.ar    1  UNL1       -0.2463
      5 C           3.2565    0.8193   24.8758 C.ar    1  UNL1        0.1112
      6 C           2.2714    0.9203   26.0025 C.ar    1  UNL1        0.0850
      7 N           2.5929    0.8348   27.4651 N.am    1  UNL1       -0.2765
      8 C           3.0760   -0.4579   28.0525 C.2     1  UNL1        0.2754
      9 O           3.2377   -1.6654   27.1773 O.2     1  UNL1       -0.2675
     10 H           2.4868    1.6273   28.0395 H       1  UNL1        0.1553
     11 C           3.3975   -0.5434   29.5152 C.ar    1  UNL1        0.1872
     12 N           2.4114   -0.7675   30.6230 N.ar    1  UNL1       -0.1361
     13 N           3.1659   -0.7824   31.9193 N.ar    1  UNL1       -0.1391
     14 C           4.6184   -0.5674   31.6126 C.ar    1  UNL1        0.1514
     15 S           4.7616   -0.4197   30.1268 S.2     1  UNL1       -0.0395
     16 C           5.7323   -0.5101   32.6157 C.ar    1  UNL1        0.1068
     17 C           5.5113    0.1486   33.9450 C.ar    1  UNL1        0.0213
     18 C           6.6253    0.2058   34.9480 C.ar    1  UNL1        0.0032
     19 C           7.9600   -0.3957   34.6217 C.ar    1  UNL1        0.0207
     20 C           8.1810   -1.0544   33.2923 C.ar    1  UNL1        0.0989
     21 N           7.0671   -1.1117   32.2893 N.ar    1  UNL1       -0.2417
     22 C           3.0953    0.9175   22.2095 C.3     1  UNL1        0.1274
     23 C           3.4057    2.1957   21.4884 C.3     1  UNL1        0.0312
     24 C           3.3779   -0.4015   21.5533 C.ar    1  UNL1        0.0038
     25 C           4.4553   -1.2932   22.0954 C.ar    1  UNL1       -0.0025
     26 C           4.7378   -2.6122   21.4392 C.ar    1  UNL1        0.0036
     27 C           3.9429   -3.0393   20.2410 C.ar    1  UNL1        0.0714
     28 C           2.8655   -2.1475   19.6989 C.ar    1  UNL1        0.0074
     29 C           2.5830   -0.8286   20.3551 C.ar    1  UNL1        0.0692
     30 C           4.2255   -4.3583   19.5848 C.3     1  UNL1        0.4186
     31 F           4.5080   -5.6772   18.9286 F       1  UNL1       -0.1659
     32 F           5.6141   -4.3429   20.1517 F       1  UNL1       -0.1659
     33 F           2.8368   -4.3737   19.0179 F       1  UNL1       -0.1659
     34 C           1.5056    0.0633   19.8130 C.3     1  UNL1        0.4183
     35 F           0.4281    0.9551   19.2711 F       1  UNL1       -0.1659
     36 F           0.5475   -0.4730   20.8350 F       1  UNL1       -0.1659
     37 F           2.4636    0.5997   18.7911 F       1  UNL1       -0.1659
@<TRIPOS>BOND
     1     1     2    1
     2     2     3   ar
     3     3     4   ar
     4     4    22    1
     5    22    23    1
     6    22    24    1
     7    24    25   ar
     8    25    26   ar
     9    26    27   ar
    10    27    30    1
    11    30    31    1
    12    30    32    1
    13    30    33    1
    14    27    28   ar
    15    28    29   ar
    16    29    34    1
    17    34    35    1
    18    34    36    1
    19    34    37    1
    20     4     5   ar
    21     5     6   ar
    22     6     7    1
    23     7     8   am
    24     8     9    2
    25     8    11    1
    26    11    12   ar
    27    12    13   ar
    28    13    14   ar
    29    14    16    1
    30    16    17   ar
    31    17    18   ar
    32    18    19   ar
    33    19    20   ar
    34    20    21   ar
    35    14    15   ar
    36     6     2   ar
    37    15    11   ar
    38    29    24   ar
    39    21    16   ar
    40     7    10    1
@<TRIPOS>MOLECULE
*****
 37 40 0 0 0
SMALL
GASTEIGER

@<TRIPOS>ATOM
      1 C           7.0530   -4.4364   23.7739 C.3     1  UNL1        0.0553
      2 C           5.9139   -3.7626   23.0677 C.ar    1  UNL1        0.0939
      3 N           5.5709   -3.9030   21.6142 N.ar    1  UNL1       -0.1721
      4 N           4.3629   -3.0573   21.3393 N.ar    1  UNL1       -0.2463
      5 C           3.9594   -2.3943   22.6228 C.ar    1  UNL1        0.1112
      6 C           4.9179   -2.8302   23.6911 C.ar    1  UNL1        0.0850
      7 N           4.8861   -2.4078   25.1300 N.am    1  UNL1       -0.2765
      8 C           3.9411   -1.3314   25.5749 C.2     1  UNL1        0.2754
      9 O           3.0278   -0.6772   24.5809 O.2     1  UNL1       -0.2675
     10 H           5.4855   -2.8372   25.7825 H       1  UNL1        0.1553
     11 C           3.9092   -0.9090   27.0139 C.ar    1  UNL1        0.1872
     12 N           4.8704   -1.3414   28.0812 N.ar    1  UNL1       -0.1361
     13 N           4.4659   -0.6797   29.3651 N.ar    1  UNL1       -0.1391
     14 C           3.2546    0.1616   29.0913 C.ar    1  UNL1        0.1514
     15 S           2.9106    0.0199   27.6382 S.2     1  UNL1       -0.0395
     16 C           2.5169    0.9979   30.0946 C.ar    1  UNL1        0.1068
     17 C           1.5019    2.0013   29.6332 C.ar    1  UNL1        0.0213
     18 C           0.7642    2.8375   30.6365 C.ar    1  UNL1        0.0032
     19 C           1.0415    2.6704   32.1011 C.ar    1  UNL1        0.0207
     20 C           2.0565    1.6669   32.5625 C.ar    1  UNL1        0.0989
     21 N           2.7942    0.8307   31.5593 N.ar    1  UNL1       -0.2417
     22 C           3.6786   -2.9019   20.0135 C.3     1  UNL1        0.1274
     23 C           3.5084   -4.0898   19.1136 C.3     1  UNL1        0.0312
     24 C           3.1645   -1.5586   19.5877 C.ar    1  UNL1        0.0038
     25 C           1.8109   -1.0961   20.0390 C.ar    1  UNL1       -0.0025
     26 C           1.2969    0.2472   19.6133 C.ar    1  UNL1        0.0036
     27 C           2.1365    1.1280   18.7362 C.ar    1  UNL1        0.0714
     28 C           3.4901    0.6655   18.2849 C.ar    1  UNL1        0.0074
     29 C           4.0041   -0.6778   18.7107 C.ar    1  UNL1        0.0692
     30 C           1.6224    2.4713   18.3104 C.3     1  UNL1        0.4186
     31 F           1.1083    3.8146   17.8846 F       1  UNL1       -0.1659
     32 F           0.2828    1.8649   18.0143 F       1  UNL1       -0.1659
     33 F           2.9619    3.0777   18.6065 F       1  UNL1       -0.1659
     34 C           5.3578   -1.1404   18.2594 C.3     1  UNL1        0.4183
     35 F           6.7114   -1.6029   17.8080 F       1  UNL1       -0.1659
     36 F           4.7494   -1.6996   17.0076 F       1  UNL1       -0.1659
     37 F           5.9663   -0.5812   19.5111 F       1  UNL1       -0.1659
@<TRIPOS>BOND
     1     1     2    1
     2     2     3   ar
     3     3     4   ar
     4     4    22    1
     5    22    23    1
     6    22    24    1
     7    24    25   ar
     8    25    26   ar
     9    26    27   ar
    10    27    30    1
    11    30    31    1
    12    30    32    1
    13    30    33    1
    14    27    28   ar
    15    28    29   ar
    16    29    34    1
    17    34    35    1
    18    34    36    1
    19    34    37    1
    20     4     5   ar
    21     5     6   ar
    22     6     7    1
    23     7     8   am
    24     8     9    2
    25     8    11    1
    26    11    12   ar
    27    12    13   ar
    28    13    14   ar
    29    14    16    1
    30    16    17   ar
    31    17    18   ar
    32    18    19   ar
    33    19    20   ar
    34    20    21   ar
    35    14    15   ar
    36     6     2   ar
    37    15    11   ar
    38    29    24   ar
    39    21    16   ar
    40     7    10    1
