@<TRIPOS>MOLECULE
*****
 33 36 0 0 0
SMALL
GASTEIGER

@<TRIPOS>ATOM
      1 C         -10.5940  -18.1221   19.8975 C.ar    1  UNL1        0.1746
      2 C         -10.3797  -19.2893   18.9802 C.ar    1  UNL1        0.0593
      3 C          -9.1318  -20.1139   19.0944 C.ar    1  UNL1        0.0890
      4 N          -8.9176  -21.2811   18.1770 N.ar    1  UNL1       -0.2238
      5 C          -7.6697  -22.1056   18.2913 C.ar    1  UNL1        0.2000
      6 N          -6.6362  -21.7628   19.3229 N.ar    1  UNL1       -0.2089
      7 C          -6.8504  -20.5955   20.2403 C.ar    1  UNL1        0.1355
      8 C          -8.0983  -19.7711   20.1260 C.ar    1  UNL1        0.0527
      9 C          -8.3126  -18.6038   21.0434 C.ar    1  UNL1        0.0451
     10 C          -9.5605  -17.7793   20.9292 C.ar    1  UNL1        0.1839
     11 C         -11.7508  -15.8460   19.4166 C.3     1  UNL1        0.2526
     12 O         -11.8419  -17.2976   19.7833 O.3     1  UNL1       -0.4683
     13 N          -5.8169  -20.2528   21.2719 N.pl3   1  UNL1       -0.2961
     14 H          -5.9355  -20.5465   22.2041 H       1  UNL1        0.1537
     15 C          -4.6026  -19.4625   20.8833 C.ar    1  UNL1        0.0780
     16 C          -4.0008  -19.6341   19.5201 C.ar    1  UNL1        0.0170
     17 C          -2.7865  -18.8438   19.1315 C.ar    1  UNL1        0.0023
     18 C          -2.1740  -17.8820   20.1061 C.ar    1  UNL1        0.0138
     19 C          -2.7758  -17.7105   21.4693 C.ar    1  UNL1        0.0863
     20 CL         -2.1634  -16.7487   22.4439 Cl      1  UNL1       -0.0799
     21 C          -3.9902  -18.5007   21.8579 C.ar    1  UNL1        0.1639
     22 F          -4.5919  -18.3292   23.2211 F       1  UNL1       -0.2020
     23 O          -9.7748  -16.6120   21.8465 O.3     1  UNL1       -0.4070
     24 C          -8.6094  -15.7692   22.2727 C.2     1  UNL1        0.4095
     25 O          -7.8968  -14.9122   21.2689 O.2     1  UNL1       -0.2258
     26 N          -8.1567  -15.7834   23.7027 N.am    1  UNL1       -0.2445
     27 C          -6.9914  -14.9406   24.1289 C.3     1  UNL1        0.1140
     28 C          -6.5387  -14.9549   25.5588 C.3     1  UNL1        0.0940
     29 N          -7.2513  -15.8119   26.5627 N.3     1  UNL1       -0.2686
     30 C          -6.7986  -15.8261   27.9926 C.3     1  UNL1        0.0897
     31 C          -8.4167  -16.6547   26.1365 C.3     1  UNL1        0.0923
     32 C          -8.8694  -16.6404   24.7064 C.3     1  UNL1        0.0946
     33 C         -10.0347  -17.4832   24.2803 C.3     1  UNL1        0.0231
@<TRIPOS>BOND
     1    11    12    1
     2    12     1    1
     3     1     2   ar
     4     2     3   ar
     5     3     4   ar
     6     4     5   ar
     7     5     6   ar
     8     6     7   ar
     9     7    13    1
    10    13    15    1
    11    15    16   ar
    12    16    17   ar
    13    17    18   ar
    14    18    19   ar
    15    19    20    1
    16    19    21   ar
    17    21    22    1
    18     7     8   ar
    19     8     9   ar
    20     9    10   ar
    21    10    23    1
    22    23    24    1
    23    24    25    2
    24    24    26   am
    25    26    27    1
    26    27    28    1
    27    28    29    1
    28    29    30    1
    29    29    31    1
    30    31    32    1
    31    32    33    1
    32    10     1   ar
    33    32    26    1
    34     8     3   ar
    35    21    15   ar
    36    13    14    1
@<TRIPOS>MOLECULE
*****
 33 36 0 0 0
SMALL
GASTEIGER

@<TRIPOS>ATOM
      1 C          -8.3062  -19.9981   19.7644 C.ar    1  UNL1        0.1746
      2 C          -9.7114  -19.5667   19.4661 C.ar    1  UNL1        0.0593
      3 C         -10.2874  -18.3622   20.1499 C.ar    1  UNL1        0.0890
      4 N         -11.6926  -17.9307   19.8516 N.ar    1  UNL1       -0.2238
      5 C         -12.2685  -16.7262   20.5355 C.ar    1  UNL1        0.2000
      6 N         -11.4390  -15.9533   21.5176 N.ar    1  UNL1       -0.2089
      7 C         -10.0338  -16.3847   21.8159 C.ar    1  UNL1        0.1355
      8 C          -9.4579  -17.5892   21.1320 C.ar    1  UNL1        0.0527
      9 C          -8.0526  -18.0207   21.4303 C.ar    1  UNL1        0.0451
     10 C          -7.4768  -19.2251   20.7465 C.ar    1  UNL1        0.1839
     11 C          -8.4758  -21.8531   17.9532 C.3     1  UNL1        0.2526
     12 O          -7.7303  -21.2026   19.0806 O.3     1  UNL1       -0.4683
     13 N          -9.2044  -15.6117   22.7980 N.pl3   1  UNL1       -0.2961
     14 H          -8.7866  -14.7620   22.5282 H       1  UNL1        0.1537
     15 C          -9.0114  -16.1333   24.1910 C.ar    1  UNL1        0.0780
     16 C          -9.7613  -17.3498   24.6470 C.ar    1  UNL1        0.0170
     17 C          -9.5684  -17.8714   26.0401 C.ar    1  UNL1        0.0023
     18 C          -8.6256  -17.1765   26.9772 C.ar    1  UNL1        0.0138
     19 C          -7.8757  -15.9601   26.5213 C.ar    1  UNL1        0.0863
     20 CL         -6.9328  -15.2652   27.4585 Cl      1  UNL1       -0.0799
     21 C          -8.0686  -15.4385   25.1282 C.ar    1  UNL1        0.1639
     22 F          -7.3187  -14.2220   24.6723 F       1  UNL1       -0.2020
     23 O          -6.0714  -19.6567   21.0448 O.3     1  UNL1       -0.4070
     24 C          -5.1681  -18.7674   21.8468 C.2     1  UNL1        0.4095
     25 O          -5.6742  -18.1198   23.1016 O.2     1  UNL1       -0.2258
     26 N          -3.7586  -18.5258   21.3940 N.am    1  UNL1       -0.2445
     27 C          -2.8553  -17.6365   22.1960 C.3     1  UNL1        0.1140
     28 C          -1.4458  -17.3949   21.7433 C.3     1  UNL1        0.0940
     29 N          -0.9397  -18.0425   20.4885 N.3     1  UNL1       -0.2686
     30 C           0.4698  -17.8009   20.0357 C.3     1  UNL1        0.0897
     31 C          -1.8430  -18.9318   19.6865 C.3     1  UNL1        0.0923
     32 C          -3.2525  -19.1734   20.1393 C.3     1  UNL1        0.0946
     33 C          -4.1559  -20.0627   19.3373 C.3     1  UNL1        0.0231
@<TRIPOS>BOND
     1    11    12    1
     2    12     1    1
     3     1     2   ar
     4     2     3   ar
     5     3     4   ar
     6     4     5   ar
     7     5     6   ar
     8     6     7   ar
     9     7    13    1
    10    13    15    1
    11    15    16   ar
    12    16    17   ar
    13    17    18   ar
    14    18    19   ar
    15    19    20    1
    16    19    21   ar
    17    21    22    1
    18     7     8   ar
    19     8     9   ar
    20     9    10   ar
    21    10    23    1
    22    23    24    1
    23    24    25    2
    24    24    26   am
    25    26    27    1
    26    27    28    1
    27    28    29    1
    28    29    30    1
    29    29    31    1
    30    31    32    1
    31    32    33    1
    32    10     1   ar
    33    32    26    1
    34     8     3   ar
    35    21    15   ar
    36    13    14    1
@<TRIPOS>MOLECULE
*****
 33 36 0 0 0
SMALL
GASTEIGER

@<TRIPOS>ATOM
      1 C          -4.9868  -16.1099   24.1577 C.ar    1  UNL1        0.1746
      2 C          -3.6832  -16.8161   23.9303 C.ar    1  UNL1        0.0593
      3 C          -3.5839  -17.8901   22.8878 C.ar    1  UNL1        0.0890
      4 N          -2.2803  -18.5964   22.6604 N.ar    1  UNL1       -0.2238
      5 C          -2.1810  -19.6703   21.6180 C.ar    1  UNL1        0.2000
      6 N          -3.3854  -20.0380   20.8030 N.ar    1  UNL1       -0.2089
      7 C          -4.6890  -19.3318   21.0303 C.ar    1  UNL1        0.1355
      8 C          -4.7882  -18.2578   22.0728 C.ar    1  UNL1        0.0527
      9 C          -6.0919  -17.5515   22.3002 C.ar    1  UNL1        0.0451
     10 C          -6.1912  -16.4776   23.3427 C.ar    1  UNL1        0.1839
     11 C          -5.8523  -15.2869   26.4651 C.3     1  UNL1        0.2526
     12 O          -5.0861  -15.0359   25.2002 O.3     1  UNL1       -0.4683
     13 N          -5.8934  -19.6995   20.2153 N.pl3   1  UNL1       -0.2961
     14 H          -5.8010  -19.8711   19.2503 H       1  UNL1        0.1537
     15 C          -7.2385  -19.8057   20.8705 C.ar    1  UNL1        0.0780
     16 C          -7.3387  -20.1641   22.3237 C.ar    1  UNL1        0.0170
     17 C          -8.6838  -20.2704   22.9789 C.ar    1  UNL1        0.0023
     18 C          -9.9287  -20.0182   22.1811 C.ar    1  UNL1        0.0138
     19 C          -9.8285  -19.6598   20.7280 C.ar    1  UNL1        0.0863
     20 CL        -11.0735  -19.4077   19.9302 Cl      1  UNL1       -0.0799
     21 C          -8.4834  -19.5536   20.0727 C.ar    1  UNL1        0.1639
     22 F          -8.3832  -19.1952   18.6196 F       1  UNL1       -0.2020
     23 O          -7.4948  -15.7713   23.5701 O.3     1  UNL1       -0.4070
     24 C          -8.4819  -15.6392   22.4484 C.2     1  UNL1        0.4095
     25 O          -8.1084  -14.8872   21.2053 O.2     1  UNL1       -0.2258
     26 N          -9.8425  -16.2590   22.5697 N.am    1  UNL1       -0.2445
     27 C         -10.8295  -16.1269   21.4480 C.3     1  UNL1        0.1140
     28 C         -12.1901  -16.7467   21.5693 C.3     1  UNL1        0.0940
     29 N         -12.5636  -17.4986   22.8124 N.3     1  UNL1       -0.2686
     30 C         -13.9241  -18.1184   22.9337 C.3     1  UNL1        0.0897
     31 C         -11.5765  -17.6307   23.9341 C.3     1  UNL1        0.0923
     32 C         -10.2159  -17.0109   23.8127 C.3     1  UNL1        0.0946
     33 C          -9.2288  -17.1430   24.9344 C.3     1  UNL1        0.0231
@<TRIPOS>BOND
     1    11    12    1
     2    12     1    1
     3     1     2   ar
     4     2     3   ar
     5     3     4   ar
     6     4     5   ar
     7     5     6   ar
     8     6     7   ar
     9     7    13    1
    10    13    15    1
    11    15    16   ar
    12    16    17   ar
    13    17    18   ar
    14    18    19   ar
    15    19    20    1
    16    19    21   ar
    17    21    22    1
    18     7     8   ar
    19     8     9   ar
    20     9    10   ar
    21    10    23    1
    22    23    24    1
    23    24    25    2
    24    24    26   am
    25    26    27    1
    26    27    28    1
    27    28    29    1
    28    29    30    1
    29    29    31    1
    30    31    32    1
    31    32    33    1
    32    10     1   ar
    33    32    26    1
    34     8     3   ar
    35    21    15   ar
    36    13    14    1
@<TRIPOS>MOLECULE
*****
 33 36 0 0 0
SMALL
GASTEIGER

@<TRIPOS>ATOM
      1 C         -10.6141  -18.1568   20.0643 C.ar    1  UNL1        0.1746
      2 C         -10.2417  -19.2013   19.0543 C.ar    1  UNL1        0.0593
      3 C          -8.9974  -20.0176   19.2435 C.ar    1  UNL1        0.0890
      4 N          -8.6250  -21.0621   18.2335 N.ar    1  UNL1       -0.2238
      5 C          -7.3808  -21.8783   18.4226 C.ar    1  UNL1        0.2000
      6 N          -6.5091  -21.6500   19.6218 N.ar    1  UNL1       -0.2089
      7 C          -6.8816  -20.6055   20.6318 C.ar    1  UNL1        0.1355
      8 C          -8.1258  -19.7893   20.4427 C.ar    1  UNL1        0.0527
      9 C          -8.4983  -18.7447   21.4527 C.ar    1  UNL1        0.0451
     10 C          -9.7424  -17.9285   21.2635 C.ar    1  UNL1        0.1839
     11 C         -11.7553  -15.8937   19.4932 C.3     1  UNL1        0.2526
     12 O         -11.8583  -17.3405   19.8752 O.3     1  UNL1       -0.4683
     13 N          -6.0099  -20.3772   21.8310 N.pl3   1  UNL1       -0.2961
     14 H          -6.1742  -20.8793   22.6618 H       1  UNL1        0.1537
     15 C          -4.8880  -19.3838   21.7645 C.ar    1  UNL1        0.0780
     16 C          -4.7596  -18.3255   22.8198 C.ar    1  UNL1        0.0170
     17 C          -3.6376  -17.3322   22.7532 C.ar    1  UNL1        0.0023
     18 C          -2.6440  -17.3971   21.6314 C.ar    1  UNL1        0.0138
     19 C          -2.7723  -18.4554   20.5761 C.ar    1  UNL1        0.0863
     20 CL         -1.7787  -18.5203   19.4543 Cl      1  UNL1       -0.0799
     21 C          -3.8943  -19.4488   20.6426 C.ar    1  UNL1        0.1639
     22 F          -4.0227  -20.5070   19.5874 F       1  UNL1       -0.2020
     23 O         -10.1150  -16.8838   22.2736 O.3     1  UNL1       -0.4070
     24 C         -10.1639  -17.2339   23.7313 C.2     1  UNL1        0.4095
     25 O         -11.2256  -18.1607   24.2449 O.2     1  UNL1       -0.2258
     26 N          -9.1510  -16.6571   24.6755 N.am    1  UNL1       -0.2445
     27 C          -9.1999  -17.0071   26.1333 C.3     1  UNL1        0.1140
     28 C          -8.1871  -16.4303   27.0774 C.3     1  UNL1        0.0940
     29 N          -7.1253  -15.5035   26.5639 N.3     1  UNL1       -0.2686
     30 C          -6.1125  -14.9268   27.5080 C.3     1  UNL1        0.0897
     31 C          -7.0764  -15.1535   25.1061 C.3     1  UNL1        0.0923
     32 C          -8.0893  -15.7303   24.1619 C.3     1  UNL1        0.0946
     33 C          -8.0404  -15.3803   22.7041 C.3     1  UNL1        0.0231
@<TRIPOS>BOND
     1    11    12    1
     2    12     1    1
     3     1     2   ar
     4     2     3   ar
     5     3     4   ar
     6     4     5   ar
     7     5     6   ar
     8     6     7   ar
     9     7    13    1
    10    13    15    1
    11    15    16   ar
    12    16    17   ar
    13    17    18   ar
    14    18    19   ar
    15    19    20    1
    16    19    21   ar
    17    21    22    1
    18     7     8   ar
    19     8     9   ar
    20     9    10   ar
    21    10    23    1
    22    23    24    1
    23    24    25    2
    24    24    26   am
    25    26    27    1
    26    27    28    1
    27    28    29    1
    28    29    30    1
    29    29    31    1
    30    31    32    1
    31    32    33    1
    32    10     1   ar
    33    32    26    1
    34     8     3   ar
    35    21    15   ar
    36    13    14    1
@<TRIPOS>MOLECULE
*****
 33 36 0 0 0
SMALL
GASTEIGER

@<TRIPOS>ATOM
      1 C           7.0083   -1.6156   31.5791 C.ar    1  UNL1        0.1746
      2 C           7.8966   -2.7647   31.9537 C.ar    1  UNL1        0.0593
      3 C           7.8948   -4.0152   31.1251 C.ar    1  UNL1        0.0890
      4 N           8.7831   -5.1644   31.4997 N.ar    1  UNL1       -0.2238
      5 C           8.7813   -6.4147   30.6712 C.ar    1  UNL1        0.2000
      6 N           7.8912   -6.5159   29.4680 N.ar    1  UNL1       -0.2089
      7 C           7.0029   -5.3668   29.0934 C.ar    1  UNL1        0.1355
      8 C           7.0048   -4.1164   29.9220 C.ar    1  UNL1        0.0527
      9 C           6.1165   -2.9671   29.5474 C.ar    1  UNL1        0.0451
     10 C           6.1183   -1.7168   30.3759 C.ar    1  UNL1        0.1839
     11 C           6.0117   -0.1973   33.5144 C.3     1  UNL1        0.2526
     12 O           7.0101   -0.3651   32.4076 O.3     1  UNL1       -0.4683
     13 N           6.1129   -5.4680   27.8903 N.pl3   1  UNL1       -0.2961
     14 H           5.1470   -5.6205   28.0040 H       1  UNL1        0.1537
     15 C           6.6945   -5.3367   26.5139 C.ar    1  UNL1        0.0780
     16 C           6.6540   -4.0151   25.8054 C.ar    1  UNL1        0.0170
     17 C           7.2356   -3.8839   24.4291 C.ar    1  UNL1        0.0023
     18 C           7.8578   -5.0741   23.7611 C.ar    1  UNL1        0.0138
     19 C           7.8983   -6.3957   24.4695 C.ar    1  UNL1        0.0863
     20 CL          8.5205   -7.5859   23.8016 Cl      1  UNL1       -0.0799
     21 C           7.3167   -6.5270   25.8460 C.ar    1  UNL1        0.1639
     22 F           7.3573   -7.8485   26.5544 F       1  UNL1       -0.2020
     23 O           5.2300   -0.5675   30.0014 O.3     1  UNL1       -0.4070
     24 C           3.7548   -0.6440   30.2618 C.2     1  UNL1        0.4095
     25 O           3.2489   -1.2436   31.5403 O.2     1  UNL1       -0.2258
     26 N           2.7853   -0.1209   29.2436 N.am    1  UNL1       -0.2445
     27 C           1.3101   -0.1974   29.5040 C.3     1  UNL1        0.1140
     28 C           0.3407    0.3257   28.4859 C.3     1  UNL1        0.0940
     29 N           0.8465    0.9253   27.2073 N.3     1  UNL1       -0.2686
     30 C          -0.1229    1.4484   26.1892 C.3     1  UNL1        0.0897
     31 C           2.3218    1.0018   26.9470 C.3     1  UNL1        0.0923
     32 C           3.2912    0.4787   27.9651 C.3     1  UNL1        0.0946
     33 C           4.7664    0.5551   27.7048 C.3     1  UNL1        0.0231
@<TRIPOS>BOND
     1    11    12    1
     2    12     1    1
     3     1     2   ar
     4     2     3   ar
     5     3     4   ar
     6     4     5   ar
     7     5     6   ar
     8     6     7   ar
     9     7    13    1
    10    13    15    1
    11    15    16   ar
    12    16    17   ar
    13    17    18   ar
    14    18    19   ar
    15    19    20    1
    16    19    21   ar
    17    21    22    1
    18     7     8   ar
    19     8     9   ar
    20     9    10   ar
    21    10    23    1
    22    23    24    1
    23    24    25    2
    24    24    26   am
    25    26    27    1
    26    27    28    1
    27    28    29    1
    28    29    30    1
    29    29    31    1
    30    31    32    1
    31    32    33    1
    32    10     1   ar
    33    32    26    1
    34     8     3   ar
    35    21    15   ar
    36    13    14    1
@<TRIPOS>MOLECULE
*****
 33 36 0 0 0
SMALL
GASTEIGER

@<TRIPOS>ATOM
      1 C           8.0695   -5.1785   22.6272 C.ar    1  UNL1        0.1746
      2 C           8.7983   -6.3385   23.2379 C.ar    1  UNL1        0.0593
      3 C           8.4889   -6.7630   24.6430 C.ar    1  UNL1        0.0890
      4 N           9.2177   -7.9231   25.2537 N.ar    1  UNL1       -0.2238
      5 C           8.9083   -8.3475   26.6587 C.ar    1  UNL1        0.2000
      6 N           7.8700   -7.6119   27.4530 N.ar    1  UNL1       -0.2089
      7 C           7.1412   -6.4518   26.8423 C.ar    1  UNL1        0.1355
      8 C           7.4506   -6.0274   25.4373 C.ar    1  UNL1        0.0527
      9 C           6.7218   -4.8673   24.8265 C.ar    1  UNL1        0.0451
     10 C           7.0312   -4.4428   23.4215 C.ar    1  UNL1        0.1839
     11 C           9.5317   -3.8327   20.9537 C.3     1  UNL1        0.2526
     12 O           8.3789   -4.7540   21.2221 O.3     1  UNL1       -0.4683
     13 N           6.1029   -5.7162   27.6365 N.pl3   1  UNL1       -0.2961
     14 H           5.1590   -5.7439   27.3580 H       1  UNL1        0.1537
     15 C           6.5027   -4.9384   28.8551 C.ar    1  UNL1        0.0780
     16 C           6.8840   -5.6599   30.1138 C.ar    1  UNL1        0.0170
     17 C           7.2839   -4.8820   31.3324 C.ar    1  UNL1        0.0023
     18 C           7.3024   -3.3827   31.2925 C.ar    1  UNL1        0.0138
     19 C           6.9211   -2.6612   30.0339 C.ar    1  UNL1        0.0863
     20 CL          6.9396   -1.1618   29.9940 Cl      1  UNL1       -0.0799
     21 C           6.5212   -3.4390   28.8152 C.ar    1  UNL1        0.1639
     22 F           6.1399   -2.7175   27.5567 F       1  UNL1       -0.2020
     23 O           6.3024   -3.2827   22.8107 O.3     1  UNL1       -0.4070
     24 C           5.3211   -3.5142   21.7001 C.2     1  UNL1        0.4095
     25 O           4.3583   -4.6619   21.7770 O.2     1  UNL1       -0.2258
     26 N           5.3026   -2.5981   20.5125 N.am    1  UNL1       -0.2445
     27 C           4.3213   -2.8296   19.4019 C.3     1  UNL1        0.1140
     28 C           4.3027   -1.9134   18.2144 C.3     1  UNL1        0.0940
     29 N           5.2655   -0.7657   18.1374 N.3     1  UNL1       -0.2686
     30 C           5.2470    0.1504   16.9499 C.3     1  UNL1        0.0897
     31 C           6.2468   -0.5342   19.2480 C.3     1  UNL1        0.0923
     32 C           6.2653   -1.4504   20.4356 C.3     1  UNL1        0.0946
     33 C           7.2466   -1.2189   21.5463 C.3     1  UNL1        0.0231
@<TRIPOS>BOND
     1    11    12    1
     2    12     1    1
     3     1     2   ar
     4     2     3   ar
     5     3     4   ar
     6     4     5   ar
     7     5     6   ar
     8     6     7   ar
     9     7    13    1
    10    13    15    1
    11    15    16   ar
    12    16    17   ar
    13    17    18   ar
    14    18    19   ar
    15    19    20    1
    16    19    21   ar
    17    21    22    1
    18     7     8   ar
    19     8     9   ar
    20     9    10   ar
    21    10    23    1
    22    23    24    1
    23    24    25    2
    24    24    26   am
    25    26    27    1
    26    27    28    1
    27    28    29    1
    28    29    30    1
    29    29    31    1
    30    31    32    1
    31    32    33    1
    32    10     1   ar
    33    32    26    1
    34     8     3   ar
    35    21    15   ar
    36    13    14    1
@<TRIPOS>MOLECULE
*****
 33 36 0 0 0
SMALL
GASTEIGER

@<TRIPOS>ATOM
      1 C           0.6834    3.5474   19.1240 C.ar    1  UNL1        0.1746
      2 C          -0.1601    4.5982   18.4651 C.ar    1  UNL1        0.0593
      3 C          -1.6258    4.6849   18.7724 C.ar    1  UNL1        0.0890
      4 N          -2.4693    5.7357   18.1135 N.ar    1  UNL1       -0.2238
      5 C          -3.9349    5.8224   18.4209 C.ar    1  UNL1        0.2000
      6 N          -4.5569    4.8584   19.3871 N.ar    1  UNL1       -0.2089
      7 C          -3.7134    3.8076   20.0460 C.ar    1  UNL1        0.1355
      8 C          -2.2478    3.7208   19.7387 C.ar    1  UNL1        0.0527
      9 C          -1.4042    2.6700   20.3976 C.ar    1  UNL1        0.0451
     10 C           0.0614    2.5833   20.0903 C.ar    1  UNL1        0.1839
     11 C           2.7791    4.4497   17.8814 C.3     1  UNL1        0.2526
     12 O           2.1491    3.4606   18.8167 O.3     1  UNL1       -0.4683
     13 N          -4.3354    2.8435   21.0123 N.pl3   1  UNL1       -0.2961
     14 H          -4.4153    1.8913   20.7750 H       1  UNL1        0.1537
     15 C          -4.8358    3.3301   22.3400 C.ar    1  UNL1        0.0780
     16 C          -3.9838    3.1759   23.5649 C.ar    1  UNL1        0.0170
     17 C          -4.4841    3.6625   24.8926 C.ar    1  UNL1        0.0023
     18 C          -5.8365    4.3033   24.9954 C.ar    1  UNL1        0.0138
     19 C          -6.6885    4.4574   23.7706 C.ar    1  UNL1        0.0863
     20 CL         -8.0408    5.0982   23.8735 Cl      1  UNL1       -0.0799
     21 C          -6.1881    3.9708   22.4428 C.ar    1  UNL1        0.1639
     22 F          -7.0401    4.1250   21.2180 F       1  UNL1       -0.2020
     23 O           0.9051    1.5325   20.7492 O.3     1  UNL1       -0.4070
     24 C           1.4364    0.3837   19.9442 C.2     1  UNL1        0.4095
     25 O           1.0538    0.2387   18.5010 O.2     1  UNL1       -0.2258
     26 N           2.3502   -0.6201   20.5823 N.am    1  UNL1       -0.2445
     27 C           2.8815   -1.7689   19.7773 C.3     1  UNL1        0.1140
     28 C           3.7954   -2.7727   20.4154 C.3     1  UNL1        0.0940
     29 N           4.1779   -2.6277   21.8586 N.3     1  UNL1       -0.2686
     30 C           5.0918   -3.6315   22.4967 C.3     1  UNL1        0.0897
     31 C           3.6466   -1.4789   22.6636 C.3     1  UNL1        0.0923
     32 C           2.7327   -0.4751   22.0254 C.3     1  UNL1        0.0946
     33 C           2.2014    0.6737   22.8304 C.3     1  UNL1        0.0231
@<TRIPOS>BOND
     1    11    12    1
     2    12     1    1
     3     1     2   ar
     4     2     3   ar
     5     3     4   ar
     6     4     5   ar
     7     5     6   ar
     8     6     7   ar
     9     7    13    1
    10    13    15    1
    11    15    16   ar
    12    16    17   ar
    13    17    18   ar
    14    18    19   ar
    15    19    20    1
    16    19    21   ar
    17    21    22    1
    18     7     8   ar
    19     8     9   ar
    20     9    10   ar
    21    10    23    1
    22    23    24    1
    23    24    25    2
    24    24    26   am
    25    26    27    1
    26    27    28    1
    27    28    29    1
    28    29    30    1
    29    29    31    1
    30    31    32    1
    31    32    33    1
    32    10     1   ar
    33    32    26    1
    34     8     3   ar
    35    21    15   ar
    36    13    14    1
@<TRIPOS>MOLECULE
*****
 33 36 0 0 0
SMALL
GASTEIGER

@<TRIPOS>ATOM
      1 C           6.7302   -4.8601   28.4023 C.ar    1  UNL1        0.1746
      2 C           7.1354   -6.1323   27.7188 C.ar    1  UNL1        0.0593
      3 C           7.4518   -6.1281   26.2525 C.ar    1  UNL1        0.0890
      4 N           7.8570   -7.4003   25.5690 N.ar    1  UNL1       -0.2238
      5 C           8.1734   -7.3960   24.1028 C.ar    1  UNL1        0.2000
      6 N           8.0845   -6.1195   23.3200 N.ar    1  UNL1       -0.2089
      7 C           7.6793   -4.8473   24.0036 C.ar    1  UNL1        0.1355
      8 C           7.3629   -4.8516   25.4698 C.ar    1  UNL1        0.0527
      9 C           6.9577   -3.5793   26.1534 C.ar    1  UNL1        0.0451
     10 C           6.6413   -3.5836   27.6196 C.ar    1  UNL1        0.1839
     11 C           7.2040   -5.7308   30.8039 C.3     1  UNL1        0.2526
     12 O           6.4137   -4.8644   29.8686 O.3     1  UNL1       -0.4683
     13 N           7.5905   -3.5708   23.2209 N.pl3   1  UNL1       -0.2961
     14 H           8.3316   -2.9233   23.2493 H       1  UNL1        0.1537
     15 C           6.3725   -3.2807   22.3949 C.ar    1  UNL1        0.0780
     16 C           5.2597   -2.4519   22.9649 C.ar    1  UNL1        0.0170
     17 C           4.0417   -2.1618   22.1389 C.ar    1  UNL1        0.0023
     18 C           3.9364   -2.7004   20.7429 C.ar    1  UNL1        0.0138
     19 C           5.0491   -3.5292   20.1729 C.ar    1  UNL1        0.0863
     20 CL          4.9439   -4.0678   18.7769 Cl      1  UNL1       -0.0799
     21 C           6.2672   -3.8193   20.9989 C.ar    1  UNL1        0.1639
     22 F           7.3800   -4.6481   20.4289 F       1  UNL1       -0.2020
     23 O           6.2361   -2.3114   28.3032 O.3     1  UNL1       -0.4070
     24 C           4.9071   -1.6863   27.9978 C.2     1  UNL1        0.4095
     25 O           4.2963   -1.8497   26.6375 O.2     1  UNL1       -0.2258
     26 N           4.1890   -0.8980   29.0527 N.am    1  UNL1       -0.2445
     27 C           2.8600   -0.2730   28.7473 C.3     1  UNL1        0.1140
     28 C           2.1419    0.5153   29.8022 C.3     1  UNL1        0.0940
     29 N           2.7527    0.6786   31.1625 N.3     1  UNL1       -0.2686
     30 C           2.0345    1.4669   32.2174 C.3     1  UNL1        0.0897
     31 C           4.0816    0.0536   31.4678 C.3     1  UNL1        0.0923
     32 C           4.7998   -0.7347   30.4129 C.3     1  UNL1        0.0946
     33 C           6.1287   -1.3598   30.7182 C.3     1  UNL1        0.0231
@<TRIPOS>BOND
     1    11    12    1
     2    12     1    1
     3     1     2   ar
     4     2     3   ar
     5     3     4   ar
     6     4     5   ar
     7     5     6   ar
     8     6     7   ar
     9     7    13    1
    10    13    15    1
    11    15    16   ar
    12    16    17   ar
    13    17    18   ar
    14    18    19   ar
    15    19    20    1
    16    19    21   ar
    17    21    22    1
    18     7     8   ar
    19     8     9   ar
    20     9    10   ar
    21    10    23    1
    22    23    24    1
    23    24    25    2
    24    24    26   am
    25    26    27    1
    26    27    28    1
    27    28    29    1
    28    29    30    1
    29    29    31    1
    30    31    32    1
    31    32    33    1
    32    10     1   ar
    33    32    26    1
    34     8     3   ar
    35    21    15   ar
    36    13    14    1
@<TRIPOS>MOLECULE
*****
 33 36 0 0 0
SMALL
GASTEIGER

@<TRIPOS>ATOM
      1 C           7.7068   -3.2937   20.6028 C.ar    1  UNL1        0.1746
      2 C           7.7087   -2.4583   19.3570 C.ar    1  UNL1        0.0593
      3 C           6.4264   -1.8718   18.8453 C.ar    1  UNL1        0.0890
      4 N           6.4283   -1.0364   17.5995 N.ar    1  UNL1       -0.2238
      5 C           5.1461   -0.4499   17.0878 C.ar    1  UNL1        0.2000
      6 N           3.8619   -0.6988   17.8220 N.ar    1  UNL1       -0.2089
      7 C           3.8600   -1.5342   19.0677 C.ar    1  UNL1        0.1355
      8 C           5.1422   -2.1207   19.5794 C.ar    1  UNL1        0.0527
      9 C           5.1404   -2.9561   20.8253 C.ar    1  UNL1        0.0451
     10 C           6.4226   -3.5426   21.3369 C.ar    1  UNL1        0.1839
     11 C           9.5355   -5.1366   20.5039 C.3     1  UNL1        0.2526
     12 O           8.9891   -3.8802   21.1145 O.3     1  UNL1       -0.4683
     13 N           2.5758   -1.7832   19.8019 N.pl3   1  UNL1       -0.2961
     14 H           2.2158   -2.6971   19.8679 H       1  UNL1        0.1537
     15 C           1.8403   -0.6397   20.4354 C.ar    1  UNL1        0.0780
     16 C           0.8224    0.1276   19.6446 C.ar    1  UNL1        0.0170
     17 C           0.0869    1.2711   20.2782 C.ar    1  UNL1        0.0023
     18 C           0.3692    1.6473   21.7025 C.ar    1  UNL1        0.0138
     19 C           1.3870    0.8801   22.4933 C.ar    1  UNL1        0.0863
     20 CL          1.6693    1.2563   23.9177 Cl      1  UNL1       -0.0799
     21 C           2.1226   -0.2635   21.8598 C.ar    1  UNL1        0.1639
     22 F           3.1404   -1.0307   22.6506 F       1  UNL1       -0.2020
     23 O           6.4208   -4.3780   22.5828 O.3     1  UNL1       -0.4070
     24 C           6.2107   -3.7307   23.9195 C.2     1  UNL1        0.4095
     25 O           5.2970   -2.5477   24.0447 O.2     1  UNL1       -0.2258
     26 N           6.9143   -4.2664   25.1311 N.am    1  UNL1       -0.2445
     27 C           6.7042   -3.6191   26.4678 C.3     1  UNL1        0.1140
     28 C           7.4078   -4.1548   27.6794 C.3     1  UNL1        0.0940
     29 N           8.3215   -5.3379   27.5543 N.3     1  UNL1       -0.2686
     30 C           9.0251   -5.8736   28.7659 C.3     1  UNL1        0.0897
     31 C           8.5316   -5.9852   26.2176 C.3     1  UNL1        0.0923
     32 C           7.8280   -5.4494   25.0059 C.3     1  UNL1        0.0946
     33 C           8.0380   -6.0967   23.6692 C.3     1  UNL1        0.0231
@<TRIPOS>BOND
     1    11    12    1
     2    12     1    1
     3     1     2   ar
     4     2     3   ar
     5     3     4   ar
     6     4     5   ar
     7     5     6   ar
     8     6     7   ar
     9     7    13    1
    10    13    15    1
    11    15    16   ar
    12    16    17   ar
    13    17    18   ar
    14    18    19   ar
    15    19    20    1
    16    19    21   ar
    17    21    22    1
    18     7     8   ar
    19     8     9   ar
    20     9    10   ar
    21    10    23    1
    22    23    24    1
    23    24    25    2
    24    24    26   am
    25    26    27    1
    26    27    28    1
    27    28    29    1
    28    29    30    1
    29    29    31    1
    30    31    32    1
    31    32    33    1
    32    10     1   ar
    33    32    26    1
    34     8     3   ar
    35    21    15   ar
    36    13    14    1
