@<TRIPOS>MOLECULE
*****
 35 38 0 0 0
SMALL
GASTEIGER

@<TRIPOS>ATOM
      1 C          -7.6480  -19.9924   22.5658 C.ar    1  UNL1        0.0495
      2 C          -7.4248  -20.8525   21.3573 C.ar    1  UNL1        0.0455
      3 C          -6.2065  -20.6487   20.5063 C.ar    1  UNL1        0.1623
      4 F          -5.9833  -21.5088   19.2978 F       1  UNL1       -0.2026
      5 C          -5.2115  -19.5847   20.8637 C.ar    1  UNL1        0.1798
      6 C          -5.4346  -18.7245   22.0721 C.ar    1  UNL1        0.1623
      7 F          -4.4396  -17.6606   22.4295 F       1  UNL1       -0.2026
      8 C          -6.6529  -18.9283   22.9231 C.ar    1  UNL1        0.0455
      9 S          -3.9932  -19.3809   20.0126 S.O2    1  UNL1        0.0791
     10 O          -4.7143  -18.3205   19.2344 O.2     1  UNL1       -0.1498
     11 O          -3.2722  -20.4413   20.7908 O.2     1  UNL1       -0.1498
     12 N          -2.7749  -19.1770   19.1615 N.pl3   1  UNL1       -0.1983
     13 H          -2.7129  -19.6094   18.2792 H       1  UNL1        0.1753
     14 C          -1.6513  -18.3144   19.6547 C.ar    1  UNL1        0.1542
     15 C          -1.7918  -16.9697   20.3044 C.ar    1  UNL1        0.0725
     16 S          -0.4172  -16.4692   20.6361 S.2     1  UNL1       -0.0625
     17 C           0.5729  -17.5045   20.1913 C.ar    1  UNL1        0.1360
     18 N          -0.1898  -18.6450   19.5848 N.ar    1  UNL1       -0.2203
     19 N          -8.8662  -20.1962   23.4168 N.pl3   1  UNL1       -0.3289
     20 H          -9.1597  -21.1075   23.6460 H       1  UNL1        0.1471
     21 C          -9.6374  -19.0115   23.9186 C.3     1  UNL1        0.1163
     22 C         -10.5436  -16.7096   23.1245 C.ar    1  UNL1       -0.0063
     23 C         -11.3733  -15.8978   22.1745 C.ar    1  UNL1       -0.0030
     24 C         -12.1265  -16.5758   21.0688 C.ar    1  UNL1        0.0020
     25 C         -12.0501  -18.0657   20.9129 C.ar    1  UNL1        0.0293
     26 C         -11.2204  -18.8776   21.8628 C.ar    1  UNL1        0.1375
     27 F         -11.1440  -20.3675   21.7069 F       1  UNL1       -0.2045
     28 C         -10.4671  -18.1996   22.9686 C.ar    1  UNL1        0.0222
     29 C          -9.7902  -16.0316   24.2303 C.3     1  UNL1        0.0989
     30 C          -8.0475  -15.9048   26.1530 C.3     1  UNL1        0.0161
     31 C          -7.1618  -15.5823   24.9862 C.3     1  UNL1        0.0471
     32 C          -5.9890  -15.4527   25.9124 C.3     1  UNL1        0.0161
     33 C          -6.2761  -15.2598   23.8193 C.3     1  UNL1        0.0320
     34 C          -7.4489  -15.3895   22.8932 C.3     1  UNL1        0.0736
     35 N          -8.3347  -15.7119   24.0601 N.3     1  UNL1       -0.2714
@<TRIPOS>BOND
     1    30    31    1
     2    31    32    1
     3    31    33    1
     4    33    34    1
     5    34    35    1
     6    35    29    1
     7    29    22    1
     8    22    23   ar
     9    23    24   ar
    10    24    25   ar
    11    25    26   ar
    12    26    27    1
    13    26    28   ar
    14    28    21    1
    15    21    19    1
    16    19     1    1
    17     1     2   ar
    18     2     3   ar
    19     3     4    1
    20     3     5   ar
    21     5     9    1
    22     9    10    2
    23     9    11    2
    24     9    12    1
    25    12    14    1
    26    14    15   ar
    27    15    16   ar
    28    16    17   ar
    29    17    18   ar
    30     5     6   ar
    31     6     7    1
    32     6     8   ar
    33    35    31    1
    34    28    22   ar
    35     8     1   ar
    36    18    14   ar
    37    19    20    1
    38    12    13    1
@<TRIPOS>MOLECULE
*****
 35 38 0 0 0
SMALL
GASTEIGER

@<TRIPOS>ATOM
      1 C          -7.6717  -20.0021   22.5744 C.ar    1  UNL1        0.0495
      2 C          -6.6813  -18.9305   22.9219 C.ar    1  UNL1        0.0455
      3 C          -5.4614  -18.7325   22.0717 C.ar    1  UNL1        0.1623
      4 F          -4.4710  -17.6609   22.4192 F       1  UNL1       -0.2026
      5 C          -5.2320  -19.6060   20.8741 C.ar    1  UNL1        0.1798
      6 C          -6.2224  -20.6776   20.5266 C.ar    1  UNL1        0.1623
      7 F          -5.9930  -21.5511   19.3290 F       1  UNL1       -0.2026
      8 C          -7.4423  -20.8757   21.3767 C.ar    1  UNL1        0.0455
      9 S          -4.0122  -19.4079   20.0240 S.O2    1  UNL1        0.0791
     10 O          -4.7424  -18.3760   19.2166 O.2     1  UNL1       -0.1498
     11 O          -3.2820  -20.4398   20.8313 O.2     1  UNL1       -0.1498
     12 N          -2.7923  -19.2098   19.1738 N.pl3   1  UNL1       -0.1983
     13 H          -2.7262  -19.6525   18.2969 H       1  UNL1        0.1753
     14 C          -1.6732  -18.3372   19.6597 C.ar    1  UNL1        0.1542
     15 C          -1.8230  -17.0158   20.3535 C.ar    1  UNL1        0.0725
     16 S          -0.4501  -16.4947   20.6597 S.2     1  UNL1       -0.0625
     17 C           0.5482  -17.4941   20.1551 C.ar    1  UNL1        0.1360
     18 N          -0.2076  -18.6329   19.5370 N.ar    1  UNL1       -0.2203
     19 N          -8.8915  -20.2002   23.4245 N.pl3   1  UNL1       -0.3289
     20 H          -9.1680  -21.1085   23.6848 H       1  UNL1        0.1471
     21 C          -9.6902  -19.0143   23.8782 C.3     1  UNL1        0.1163
     22 C         -10.4745  -16.6896   23.0233 C.ar    1  UNL1       -0.0063
     23 C         -11.2165  -15.8570   22.0202 C.ar    1  UNL1       -0.0030
     24 C         -11.9162  -16.5164   20.8689 C.ar    1  UNL1        0.0020
     25 C         -11.8739  -18.0085   20.7207 C.ar    1  UNL1        0.0293
     26 C         -11.1319  -18.8411   21.7237 C.ar    1  UNL1        0.1375
     27 F         -11.0897  -20.3332   21.5755 F       1  UNL1       -0.2045
     28 C         -10.4322  -18.1817   22.8750 C.ar    1  UNL1        0.0222
     29 C          -9.7748  -16.0302   24.1747 C.3     1  UNL1        0.0989
     30 C          -8.1336  -15.8919   26.1840 C.3     1  UNL1        0.0161
     31 C          -7.1899  -15.5710   25.0632 C.3     1  UNL1        0.0471
     32 C          -6.0666  -15.4349   26.0480 C.3     1  UNL1        0.0161
     33 C          -6.2461  -15.2500   23.9423 C.3     1  UNL1        0.0320
     34 C          -7.3694  -15.3861   22.9576 C.3     1  UNL1        0.0736
     35 N          -8.3132  -15.7070   24.0784 N.3     1  UNL1       -0.2714
@<TRIPOS>BOND
     1    30    31    1
     2    31    32    1
     3    31    33    1
     4    33    34    1
     5    34    35    1
     6    35    29    1
     7    29    22    1
     8    22    23   ar
     9    23    24   ar
    10    24    25   ar
    11    25    26   ar
    12    26    27    1
    13    26    28   ar
    14    28    21    1
    15    21    19    1
    16    19     1    1
    17     1     2   ar
    18     2     3   ar
    19     3     4    1
    20     3     5   ar
    21     5     9    1
    22     9    10    2
    23     9    11    2
    24     9    12    1
    25    12    14    1
    26    14    15   ar
    27    15    16   ar
    28    16    17   ar
    29    17    18   ar
    30     5     6   ar
    31     6     7    1
    32     6     8   ar
    33    35    31    1
    34    28    22   ar
    35     8     1   ar
    36    18    14   ar
    37    19    20    1
    38    12    13    1
@<TRIPOS>MOLECULE
*****
 35 38 0 0 0
SMALL
GASTEIGER

@<TRIPOS>ATOM
      1 C          -5.6019  -20.0762   20.8261 C.ar    1  UNL1        0.0495
      2 C          -6.2889  -19.8360   22.1377 C.ar    1  UNL1        0.0455
      3 C          -7.7201  -19.3876   22.1636 C.ar    1  UNL1        0.1623
      4 F          -8.4071  -19.1474   23.4752 F       1  UNL1       -0.2026
      5 C          -8.4643  -19.1795   20.8780 C.ar    1  UNL1        0.1798
      6 C          -7.7773  -19.4197   19.5664 C.ar    1  UNL1        0.1623
      7 F          -8.5215  -19.2116   18.2808 F       1  UNL1       -0.2026
      8 C          -6.3462  -19.8681   19.5404 C.ar    1  UNL1        0.0455
      9 S          -9.8955  -18.7312   20.9040 S.O2    1  UNL1        0.0791
     10 O          -9.4513  -17.3311   21.2083 O.2     1  UNL1       -0.1498
     11 O         -10.3396  -20.1312   20.5997 O.2     1  UNL1       -0.1498
     12 N         -11.3267  -18.2827   20.9300 N.pl3   1  UNL1       -0.1983
     13 H         -11.7680  -17.9963   20.0979 H       1  UNL1        0.1753
     14 C         -12.0855  -18.2708   22.2239 C.ar    1  UNL1        0.1542
     15 C         -11.6218  -18.8592   23.5234 C.ar    1  UNL1        0.0725
     16 S         -12.6909  -18.6204   24.5481 S.2     1  UNL1       -0.0625
     17 C         -13.8154  -17.8844   23.8819 C.ar    1  UNL1        0.1360
     18 N         -13.4413  -17.6683   22.4454 N.ar    1  UNL1       -0.2203
     19 N          -4.1708  -20.5246   20.8000 N.pl3   1  UNL1       -0.3289
     20 H          -3.8704  -21.1735   20.1233 H       1  UNL1        0.1471
     21 C          -3.1972  -19.9843   21.8052 C.3     1  UNL1        0.1163
     22 C          -3.1206  -17.4874   22.5193 C.ar    1  UNL1       -0.0063
     23 C          -2.5611  -16.1056   22.3538 C.ar    1  UNL1       -0.0030
     24 C          -1.5188  -15.8387   21.3088 C.ar    1  UNL1        0.0020
     25 C          -1.0358  -16.9536   20.4292 C.ar    1  UNL1        0.0293
     26 C          -1.5953  -18.3355   20.5946 C.ar    1  UNL1        0.1375
     27 F          -1.1124  -19.4504   19.7150 F       1  UNL1       -0.2045
     28 C          -2.6377  -18.6024   21.6397 C.ar    1  UNL1        0.0222
     29 C          -4.1630  -17.7544   23.5643 C.3     1  UNL1        0.0989
     30 C          -4.4094  -16.5291   25.8420 C.3     1  UNL1        0.0161
     31 C          -5.5303  -15.8824   25.0835 C.3     1  UNL1        0.0471
     32 C          -5.8669  -15.0536   26.2876 C.3     1  UNL1        0.0161
     33 C          -6.6512  -15.2356   24.3249 C.3     1  UNL1        0.0320
     34 C          -6.3145  -16.0644   23.1208 C.3     1  UNL1        0.0736
     35 N          -5.1936  -16.7111   23.8794 N.3     1  UNL1       -0.2714
@<TRIPOS>BOND
     1    30    31    1
     2    31    32    1
     3    31    33    1
     4    33    34    1
     5    34    35    1
     6    35    29    1
     7    29    22    1
     8    22    23   ar
     9    23    24   ar
    10    24    25   ar
    11    25    26   ar
    12    26    27    1
    13    26    28   ar
    14    28    21    1
    15    21    19    1
    16    19     1    1
    17     1     2   ar
    18     2     3   ar
    19     3     4    1
    20     3     5   ar
    21     5     9    1
    22     9    10    2
    23     9    11    2
    24     9    12    1
    25    12    14    1
    26    14    15   ar
    27    15    16   ar
    28    16    17   ar
    29    17    18   ar
    30     5     6   ar
    31     6     7    1
    32     6     8   ar
    33    35    31    1
    34    28    22   ar
    35     8     1   ar
    36    18    14   ar
    37    19    20    1
    38    12    13    1
@<TRIPOS>MOLECULE
*****
 35 38 0 0 0
SMALL
GASTEIGER

@<TRIPOS>ATOM
      1 C          -9.4688  -19.9329   22.3814 C.ar    1  UNL1        0.0495
      2 C          -9.4872  -19.6722   20.9043 C.ar    1  UNL1        0.0455
      3 C          -8.2042  -19.6691   20.1272 C.ar    1  UNL1        0.1623
      4 F          -8.2226  -19.4084   18.6501 F       1  UNL1       -0.2026
      5 C          -6.9028  -19.9267   20.8271 C.ar    1  UNL1        0.1798
      6 C          -6.8843  -20.1874   22.3042 C.ar    1  UNL1        0.1623
      7 F          -5.5829  -20.4450   23.0041 F       1  UNL1       -0.2026
      8 C          -8.1673  -20.1905   23.0813 C.ar    1  UNL1        0.0455
      9 S          -5.6198  -19.9236   20.0500 S.O2    1  UNL1        0.0791
     10 O          -5.6168  -21.4235   20.0489 O.2     1  UNL1       -0.1498
     11 O          -5.6228  -18.4236   20.0510 O.2     1  UNL1       -0.1498
     12 N          -4.3368  -19.9205   19.2728 N.pl3   1  UNL1       -0.1983
     13 H          -4.2715  -20.4226   18.4285 H       1  UNL1        0.1753
     14 C          -3.1533  -19.1523   19.7821 C.ar    1  UNL1        0.1542
     15 C          -2.3480  -18.1549   19.0032 C.ar    1  UNL1        0.0725
     16 S          -1.2644  -17.6328   19.8993 S.2     1  UNL1       -0.0625
     17 C          -1.3999  -18.3076   21.2321 C.ar    1  UNL1        0.1360
     18 N          -2.5673  -19.2467   21.1597 N.ar    1  UNL1       -0.2203
     19 N         -10.7517  -19.9360   23.1585 N.pl3   1  UNL1       -0.3289
     20 H         -11.0809  -20.7716   23.5618 H       1  UNL1        0.1471
     21 C         -11.5332  -18.6660   23.3211 C.3     1  UNL1        0.1163
     22 C         -10.1731  -16.5241   22.7620 C.ar    1  UNL1       -0.0063
     23 C          -9.9016  -15.3559   21.8612 C.ar    1  UNL1       -0.0030
     24 C         -10.7188  -15.1614   20.6185 C.ar    1  UNL1        0.0020
     25 C         -11.8074  -16.1351   20.2766 C.ar    1  UNL1        0.0293
     26 C         -12.0789  -17.3032   21.1775 C.ar    1  UNL1        0.1375
     27 F         -13.1675  -18.2769   20.8357 F       1  UNL1       -0.2045
     28 C         -11.2617  -17.4978   22.4202 C.ar    1  UNL1        0.0222
     29 C          -9.3559  -16.7187   24.0048 C.3     1  UNL1        0.0989
     30 C          -8.0423  -15.5207   25.8993 C.3     1  UNL1        0.0161
     31 C          -6.9230  -15.7683   24.9319 C.3     1  UNL1        0.0471
     32 C          -5.9615  -15.1090   25.8758 C.3     1  UNL1        0.0161
     33 C          -5.8037  -16.0159   23.9646 C.3     1  UNL1        0.0320
     34 C          -6.7652  -16.6752   23.0208 C.3     1  UNL1        0.0736
     35 N          -7.8845  -16.4276   23.9881 N.3     1  UNL1       -0.2714
@<TRIPOS>BOND
     1    30    31    1
     2    31    32    1
     3    31    33    1
     4    33    34    1
     5    34    35    1
     6    35    29    1
     7    29    22    1
     8    22    23   ar
     9    23    24   ar
    10    24    25   ar
    11    25    26   ar
    12    26    27    1
    13    26    28   ar
    14    28    21    1
    15    21    19    1
    16    19     1    1
    17     1     2   ar
    18     2     3   ar
    19     3     4    1
    20     3     5   ar
    21     5     9    1
    22     9    10    2
    23     9    11    2
    24     9    12    1
    25    12    14    1
    26    14    15   ar
    27    15    16   ar
    28    16    17   ar
    29    17    18   ar
    30     5     6   ar
    31     6     7    1
    32     6     8   ar
    33    35    31    1
    34    28    22   ar
    35     8     1   ar
    36    18    14   ar
    37    19    20    1
    38    12    13    1
@<TRIPOS>MOLECULE
*****
 35 38 0 0 0
SMALL
GASTEIGER

@<TRIPOS>ATOM
      1 C          -9.7828  -20.1930   23.0475 C.ar    1  UNL1        0.0495
      2 C          -8.3531  -20.4221   23.4391 C.ar    1  UNL1        0.0455
      3 C          -7.2547  -20.1700   22.4490 C.ar    1  UNL1        0.1623
      4 F          -5.8249  -20.3990   22.8406 F       1  UNL1       -0.2026
      5 C          -7.5861  -19.6888   21.0675 C.ar    1  UNL1        0.1798
      6 C          -9.0158  -19.4597   20.6760 C.ar    1  UNL1        0.1623
      7 F          -9.3472  -18.9786   19.2945 F       1  UNL1       -0.2026
      8 C         -10.1142  -19.7118   21.6659 C.ar    1  UNL1        0.0455
      9 S          -6.4877  -19.4367   20.0776 S.O2    1  UNL1        0.0791
     10 O          -6.4370  -20.9019   19.7607 O.2     1  UNL1       -0.1498
     11 O          -6.5384  -17.9714   20.3945 O.2     1  UNL1       -0.1498
     12 N          -5.3893  -19.1846   19.0876 N.pl3   1  UNL1       -0.1983
     13 H          -5.5633  -19.2832   18.1236 H       1  UNL1        0.1753
     14 C          -4.0259  -18.7822   19.5664 C.ar    1  UNL1        0.1542
     15 C          -3.1846  -19.5278   20.5595 C.ar    1  UNL1        0.0725
     16 S          -1.9032  -18.7700   20.7431 S.2     1  UNL1       -0.0625
     17 C          -1.9525  -17.5560   19.8634 C.ar    1  UNL1        0.1360
     18 N          -3.2644  -17.5635   19.1362 N.ar    1  UNL1       -0.2203
     19 N         -10.8812  -20.4452   24.0374 N.pl3   1  UNL1       -0.3289
     20 H         -11.1184  -21.3680   24.2851 H       1  UNL1        0.1471
     21 C         -11.6182  -19.2912   24.6500 C.3     1  UNL1        0.1163
     22 C         -10.5434  -17.0111   24.0209 C.ar    1  UNL1       -0.0063
     23 C         -10.6120  -15.6974   23.3001 C.ar    1  UNL1       -0.0030
     24 C         -11.8242  -15.3502   22.4877 C.ar    1  UNL1        0.0020
     25 C         -12.9677  -16.3166   22.3961 C.ar    1  UNL1        0.0293
     26 C         -12.8990  -17.6303   23.1168 C.ar    1  UNL1        0.1375
     27 F         -14.0426  -18.5967   23.0252 F       1  UNL1       -0.2045
     28 C         -11.6869  -17.9775   23.9292 C.ar    1  UNL1        0.0222
     29 C          -9.3311  -17.3584   24.8333 C.3     1  UNL1        0.0989
     30 C          -8.0862  -16.1298   26.7544 C.3     1  UNL1        0.0161
     31 C          -7.1865  -15.7817   25.6057 C.3     1  UNL1        0.0471
     32 C          -6.3029  -15.0023   26.5341 C.3     1  UNL1        0.0161
     33 C          -6.2869  -15.4336   24.4570 C.3     1  UNL1        0.0320
     34 C          -7.1706  -16.2130   23.5288 C.3     1  UNL1        0.0736
     35 N          -8.0702  -16.5611   24.6775 N.3     1  UNL1       -0.2714
@<TRIPOS>BOND
     1    30    31    1
     2    31    32    1
     3    31    33    1
     4    33    34    1
     5    34    35    1
     6    35    29    1
     7    29    22    1
     8    22    23   ar
     9    23    24   ar
    10    24    25   ar
    11    25    26   ar
    12    26    27    1
    13    26    28   ar
    14    28    21    1
    15    21    19    1
    16    19     1    1
    17     1     2   ar
    18     2     3   ar
    19     3     4    1
    20     3     5   ar
    21     5     9    1
    22     9    10    2
    23     9    11    2
    24     9    12    1
    25    12    14    1
    26    14    15   ar
    27    15    16   ar
    28    16    17   ar
    29    17    18   ar
    30     5     6   ar
    31     6     7    1
    32     6     8   ar
    33    35    31    1
    34    28    22   ar
    35     8     1   ar
    36    18    14   ar
    37    19    20    1
    38    12    13    1
@<TRIPOS>MOLECULE
*****
 35 38 0 0 0
SMALL
GASTEIGER

@<TRIPOS>ATOM
      1 C           5.0422   -2.9331   23.5772 C.ar    1  UNL1        0.0495
      2 C           4.8666   -3.8018   22.3670 C.ar    1  UNL1        0.0455
      3 C           4.3740   -3.2062   21.0814 C.ar    1  UNL1        0.1623
      4 F           4.1983   -4.0750   19.8712 F       1  UNL1       -0.2026
      5 C           4.0571   -1.7421   21.0060 C.ar    1  UNL1        0.1798
      6 C           4.2327   -0.8734   22.2161 C.ar    1  UNL1        0.1623
      7 F           3.9158    0.5908   22.1407 F       1  UNL1       -0.2026
      8 C           4.7253   -1.4688   23.5017 C.ar    1  UNL1        0.0455
      9 S           3.5645   -1.1466   19.7204 S.O2    1  UNL1        0.0791
     10 O           4.9752   -0.8148   19.3336 O.2     1  UNL1       -0.1498
     11 O           2.1538   -1.4785   20.1072 O.2     1  UNL1       -0.1498
     12 N           3.0720   -0.5511   18.4347 N.pl3   1  UNL1       -0.1983
     13 H           3.2440   -1.0111   17.5814 H       1  UNL1        0.1753
     14 C           2.3173    0.7451   18.4492 C.ar    1  UNL1        0.1542
     15 C           2.9058    2.1055   18.6791 C.ar    1  UNL1        0.0725
     16 S           1.7938    3.1097   18.6083 S.2     1  UNL1       -0.0625
     17 C           0.5179    2.3699   18.3347 C.ar    1  UNL1        0.1360
     18 N           0.8414    0.9085   18.2363 N.ar    1  UNL1       -0.2203
     19 N           5.5348   -3.5285   24.8628 N.pl3   1  UNL1       -0.3289
     20 H           4.8955   -3.7601   25.5747 H       1  UNL1        0.1471
     21 C           7.0014   -3.7710   25.0636 C.3     1  UNL1        0.1163
     22 C           7.5960   -6.2986   25.1544 C.ar    1  UNL1       -0.0063
     23 C           8.2478   -7.5026   24.5417 C.ar    1  UNL1       -0.0030
     24 C           8.9569   -7.3831   23.2254 C.ar    1  UNL1        0.0020
     25 C           9.0142   -6.0596   22.5217 C.ar    1  UNL1        0.0293
     26 C           8.3624   -4.8556   23.1344 C.ar    1  UNL1        0.1375
     27 F           8.4196   -3.5321   22.4308 F       1  UNL1       -0.2045
     28 C           7.6533   -4.9751   24.4508 C.ar    1  UNL1        0.0222
     29 C           6.8868   -6.4180   26.4709 C.3     1  UNL1        0.0989
     30 C           6.4875   -5.1582   28.7077 C.3     1  UNL1        0.0161
     31 C           7.6378   -6.0325   29.1108 C.3     1  UNL1        0.0471
     32 C           7.6012   -5.4444   30.4903 C.3     1  UNL1        0.0161
     33 C           8.7880   -6.9067   29.5139 C.3     1  UNL1        0.0320
     34 C           8.8246   -7.4947   28.1345 C.3     1  UNL1        0.0736
     35 N           7.6743   -6.6204   27.7313 N.3     1  UNL1       -0.2714
@<TRIPOS>BOND
     1    30    31    1
     2    31    32    1
     3    31    33    1
     4    33    34    1
     5    34    35    1
     6    35    29    1
     7    29    22    1
     8    22    23   ar
     9    23    24   ar
    10    24    25   ar
    11    25    26   ar
    12    26    27    1
    13    26    28   ar
    14    28    21    1
    15    21    19    1
    16    19     1    1
    17     1     2   ar
    18     2     3   ar
    19     3     4    1
    20     3     5   ar
    21     5     9    1
    22     9    10    2
    23     9    11    2
    24     9    12    1
    25    12    14    1
    26    14    15   ar
    27    15    16   ar
    28    16    17   ar
    29    17    18   ar
    30     5     6   ar
    31     6     7    1
    32     6     8   ar
    33    35    31    1
    34    28    22   ar
    35     8     1   ar
    36    18    14   ar
    37    19    20    1
    38    12    13    1
@<TRIPOS>MOLECULE
*****
 35 38 0 0 0
SMALL
GASTEIGER

@<TRIPOS>ATOM
      1 C          -8.4425  -16.2656   23.2634 C.ar    1  UNL1        0.0495
      2 C          -7.3714  -15.8296   24.2187 C.ar    1  UNL1        0.0455
      3 C          -5.9712  -16.3443   24.0613 C.ar    1  UNL1        0.1623
      4 F          -4.9001  -15.9083   25.0166 F       1  UNL1       -0.2026
      5 C          -5.6422  -17.2949   22.9487 C.ar    1  UNL1        0.1798
      6 C          -6.7133  -17.7309   21.9933 C.ar    1  UNL1        0.1623
      7 F          -6.3844  -18.6815   20.8807 F       1  UNL1       -0.2026
      8 C          -8.1134  -17.2162   22.1507 C.ar    1  UNL1        0.0455
      9 S          -4.2421  -17.8096   22.7913 S.O2    1  UNL1        0.0791
     10 O          -3.7476  -16.4062   22.6018 O.2     1  UNL1       -0.1498
     11 O          -4.7367  -19.2129   22.9808 O.2     1  UNL1       -0.1498
     12 N          -2.8419  -18.3242   22.6340 N.pl3   1  UNL1       -0.1983
     13 H          -2.3701  -18.7115   23.4064 H       1  UNL1        0.1753
     14 C          -2.1607  -18.2487   21.2998 C.ar    1  UNL1        0.1542
     15 C          -2.8413  -18.1586   19.9661 C.ar    1  UNL1        0.0725
     16 S          -1.7804  -18.1043   18.9070 S.2     1  UNL1       -0.0625
     17 C          -0.4442  -18.1609   19.5861 C.ar    1  UNL1        0.1360
     18 N          -0.6791  -18.2502   21.0649 N.ar    1  UNL1       -0.2203
     19 N          -9.8426  -15.7509   23.4207 N.pl3   1  UNL1       -0.3289
     20 H         -10.0682  -14.8395   23.1247 H       1  UNL1        0.1471
     21 C         -10.8990  -16.6249   24.0290 C.3     1  UNL1        0.1163
     22 C         -11.3154  -19.0248   23.1248 C.ar    1  UNL1       -0.0063
     23 C         -11.0985  -20.5058   23.2230 C.ar    1  UNL1       -0.0030
     24 C         -10.2483  -21.0679   24.3234 C.ar    1  UNL1        0.0020
     25 C          -9.6149  -20.1491   25.3257 C.ar    1  UNL1        0.0293
     26 C          -9.8318  -18.6681   25.2276 C.ar    1  UNL1        0.1375
     27 F          -9.1985  -17.7493   26.2299 F       1  UNL1       -0.2045
     28 C         -10.6821  -18.1060   24.1272 C.ar    1  UNL1        0.0222
     29 C         -12.1657  -18.4626   22.0244 C.3     1  UNL1        0.0989
     30 C         -12.4931  -16.1394   20.9083 C.3     1  UNL1        0.0161
     31 C         -11.5653  -16.7706   19.9129 C.3     1  UNL1        0.0471
     32 C         -11.5980  -15.5179   19.0883 C.3     1  UNL1        0.0161
     33 C         -10.6375  -17.4018   18.9174 C.3     1  UNL1        0.0320
     34 C         -10.6049  -18.6543   19.7420 C.3     1  UNL1        0.0736
     35 N         -11.5327  -18.0232   20.7374 N.3     1  UNL1       -0.2714
@<TRIPOS>BOND
     1    30    31    1
     2    31    32    1
     3    31    33    1
     4    33    34    1
     5    34    35    1
     6    35    29    1
     7    29    22    1
     8    22    23   ar
     9    23    24   ar
    10    24    25   ar
    11    25    26   ar
    12    26    27    1
    13    26    28   ar
    14    28    21    1
    15    21    19    1
    16    19     1    1
    17     1     2   ar
    18     2     3   ar
    19     3     4    1
    20     3     5   ar
    21     5     9    1
    22     9    10    2
    23     9    11    2
    24     9    12    1
    25    12    14    1
    26    14    15   ar
    27    15    16   ar
    28    16    17   ar
    29    17    18   ar
    30     5     6   ar
    31     6     7    1
    32     6     8   ar
    33    35    31    1
    34    28    22   ar
    35     8     1   ar
    36    18    14   ar
    37    19    20    1
    38    12    13    1
@<TRIPOS>MOLECULE
*****
 35 38 0 0 0
SMALL
GASTEIGER

@<TRIPOS>ATOM
      1 C          -0.0416    1.7056   20.2618 C.ar    1  UNL1        0.0495
      2 C           0.7454    2.6651   19.4193 C.ar    1  UNL1        0.0455
      3 C           1.9997    2.2081   18.7353 C.ar    1  UNL1        0.1623
      4 F           2.7868    3.1677   17.8928 F       1  UNL1       -0.2026
      5 C           2.4669    0.7916   18.8937 C.ar    1  UNL1        0.1798
      6 C           1.6799   -0.1680   19.7362 C.ar    1  UNL1        0.1623
      7 F           2.1471   -1.5845   19.8946 F       1  UNL1       -0.2026
      8 C           0.4256    0.2890   20.4202 C.ar    1  UNL1        0.0455
      9 S           3.7212    0.3346   18.2096 S.O2    1  UNL1        0.0791
     10 O           2.8986   -0.3727   17.1738 O.2     1  UNL1       -0.1498
     11 O           4.5438    1.0420   19.2454 O.2     1  UNL1       -0.1498
     12 N           4.9755   -0.1223   17.5255 N.pl3   1  UNL1       -0.1983
     13 H           5.1941    0.2099   16.6249 H       1  UNL1        0.1753
     14 C           5.8968   -1.0856   18.2136 C.ar    1  UNL1        0.1542
     15 C           5.4827   -2.2106   19.1151 C.ar    1  UNL1        0.0725
     16 S           6.7239   -2.9132   19.5797 S.2     1  UNL1       -0.0625
     17 C           7.9051   -2.2225   18.9652 C.ar    1  UNL1        0.1360
     18 N           7.3940   -1.0929   18.1209 N.ar    1  UNL1       -0.2203
     19 N          -1.2959    2.1625   20.9459 N.pl3   1  UNL1       -0.3289
     20 H          -1.7430    1.5755   21.5976 H       1  UNL1        0.1471
     21 C          -1.8690    3.5138   20.6369 C.3     1  UNL1        0.1163
     22 C          -4.4399    3.3230   20.3137 C.ar    1  UNL1       -0.0063
     23 C          -5.6512    3.4413   19.4371 C.ar    1  UNL1       -0.0030
     24 C          -5.5032    3.8687   18.0070 C.ar    1  UNL1        0.0020
     25 C          -4.1437    4.1778   17.4534 C.ar    1  UNL1        0.0293
     26 C          -2.9324    4.0596   18.3301 C.ar    1  UNL1        0.1375
     27 F          -1.5729    4.3687   17.7766 F       1  UNL1       -0.2045
     28 C          -3.0804    3.6321   19.7602 C.ar    1  UNL1        0.0222
     29 C          -4.5879    2.8956   21.7440 C.3     1  UNL1        0.0989
     30 C          -4.1036    3.4337   24.2391 C.3     1  UNL1        0.0161
     31 C          -5.4523    4.0748   24.0985 C.3     1  UNL1        0.0471
     32 C          -5.4000    4.5000   25.5361 C.3     1  UNL1        0.0161
     33 C          -6.8011    4.7159   23.9580 C.3     1  UNL1        0.0320
     34 C          -6.8534    4.2907   22.5204 C.3     1  UNL1        0.0736
     35 N          -5.5046    3.6496   22.6610 N.3     1  UNL1       -0.2714
@<TRIPOS>BOND
     1    30    31    1
     2    31    32    1
     3    31    33    1
     4    33    34    1
     5    34    35    1
     6    35    29    1
     7    29    22    1
     8    22    23   ar
     9    23    24   ar
    10    24    25   ar
    11    25    26   ar
    12    26    27    1
    13    26    28   ar
    14    28    21    1
    15    21    19    1
    16    19     1    1
    17     1     2   ar
    18     2     3   ar
    19     3     4    1
    20     3     5   ar
    21     5     9    1
    22     9    10    2
    23     9    11    2
    24     9    12    1
    25    12    14    1
    26    14    15   ar
    27    15    16   ar
    28    16    17   ar
    29    17    18   ar
    30     5     6   ar
    31     6     7    1
    32     6     8   ar
    33    35    31    1
    34    28    22   ar
    35     8     1   ar
    36    18    14   ar
    37    19    20    1
    38    12    13    1
@<TRIPOS>MOLECULE
*****
 35 38 0 0 0
SMALL
GASTEIGER

@<TRIPOS>ATOM
      1 C           6.9304   -3.8882   20.3801 C.ar    1  UNL1        0.0495
      2 C           5.6466   -4.4397   19.8344 C.ar    1  UNL1        0.0455
      3 C           4.6669   -3.5283   19.1563 C.ar    1  UNL1        0.1623
      4 F           3.3832   -4.0798   18.6106 F       1  UNL1       -0.2026
      5 C           4.9711   -2.0655   19.0240 C.ar    1  UNL1        0.1798
      6 C           6.2549   -1.5140   19.5697 C.ar    1  UNL1        0.1623
      7 F           6.5590   -0.0511   19.4374 F       1  UNL1       -0.2026
      8 C           7.2345   -2.4253   20.2477 C.ar    1  UNL1        0.0455
      9 S           3.9915   -1.1541   18.3460 S.O2    1  UNL1        0.0791
     10 O           3.1692   -1.1054   19.5995 O.2     1  UNL1       -0.1498
     11 O           4.8137   -1.2029   17.0924 O.2     1  UNL1       -0.1498
     12 N           3.0118   -0.2427   17.6680 N.pl3   1  UNL1       -0.1983
     13 H           2.5459   -0.5395   16.8530 H       1  UNL1        0.1753
     14 C           2.7419    1.1209   18.2317 C.ar    1  UNL1        0.1542
     15 C           3.7748    2.1513   18.5797 C.ar    1  UNL1        0.0725
     16 S           3.0630    3.3607   19.1095 S.2     1  UNL1       -0.0625
     17 C           1.5900    3.0777   19.0888 C.ar    1  UNL1        0.1360
     18 N           1.3915    1.6934   18.5463 N.ar    1  UNL1       -0.2203
     19 N           7.9100   -4.7996   21.0581 N.pl3   1  UNL1       -0.3289
     20 H           8.1686   -5.6486   20.6321 H       1  UNL1        0.1471
     21 C           8.4955   -4.4173   22.3851 C.3     1  UNL1        0.1163
     22 C           7.3410   -4.3885   24.7125 C.ar    1  UNL1       -0.0063
     23 C           6.9091   -5.1053   25.9572 C.ar    1  UNL1       -0.0030
     24 C           7.1998   -6.5679   26.1196 C.ar    1  UNL1        0.0020
     25 C           7.9223   -7.3136   25.0371 C.ar    1  UNL1        0.0293
     26 C           8.3542   -6.5968   23.7923 C.ar    1  UNL1        0.1375
     27 F           9.0768   -7.3425   22.7098 F       1  UNL1       -0.2045
     28 C           8.0636   -5.1342   23.6300 C.ar    1  UNL1        0.0222
     29 C           7.0504   -2.9259   24.5501 C.3     1  UNL1        0.0989
     30 C           6.5482   -0.4798   23.8328 C.3     1  UNL1        0.0161
     31 C           5.3509   -1.1671   23.2461 C.3     1  UNL1        0.0471
     32 C           4.8513    0.1479   22.7253 C.3     1  UNL1        0.0161
     33 C           4.1536   -1.8544   22.6595 C.3     1  UNL1        0.0320
     34 C           4.6533   -3.1693   23.1803 C.3     1  UNL1        0.0736
     35 N           5.8505   -2.4820   23.7670 N.3     1  UNL1       -0.2714
@<TRIPOS>BOND
     1    30    31    1
     2    31    32    1
     3    31    33    1
     4    33    34    1
     5    34    35    1
     6    35    29    1
     7    29    22    1
     8    22    23   ar
     9    23    24   ar
    10    24    25   ar
    11    25    26   ar
    12    26    27    1
    13    26    28   ar
    14    28    21    1
    15    21    19    1
    16    19     1    1
    17     1     2   ar
    18     2     3   ar
    19     3     4    1
    20     3     5   ar
    21     5     9    1
    22     9    10    2
    23     9    11    2
    24     9    12    1
    25    12    14    1
    26    14    15   ar
    27    15    16   ar
    28    16    17   ar
    29    17    18   ar
    30     5     6   ar
    31     6     7    1
    32     6     8   ar
    33    35    31    1
    34    28    22   ar
    35     8     1   ar
    36    18    14   ar
    37    19    20    1
    38    12    13    1
