@<TRIPOS>MOLECULE
*****
 32 35 0 0 0
SMALL
GASTEIGER

@<TRIPOS>ATOM
      1 N          -5.9831  -18.1632   22.3371 N.ar    1  UNL1       -0.3048
      2 C          -7.0601  -19.1967   22.1882 C.ar    1  UNL1        0.0833
      3 C          -8.2124  -18.7942   23.0601 C.ar    1  UNL1        0.0600
      4 C          -7.8476  -17.5120   23.7478 C.ar    1  UNL1        0.0481
      5 C          -8.5920  -16.6492   24.7232 C.ar    1  UNL1        0.1416
      6 F          -9.9698  -17.0391   25.1700 F       1  UNL1       -0.2041
      7 C          -7.9586  -15.3965   25.2518 C.ar    1  UNL1        0.0297
      8 C          -6.5808  -15.0065   24.8049 C.ar    1  UNL1        0.0038
      9 C          -5.8364  -15.8693   23.8296 C.ar    1  UNL1        0.0177
     10 C          -6.4698  -17.1221   23.3010 C.ar    1  UNL1        0.0663
     11 C          -1.9926  -18.1830   20.2572 C.ar    1  UNL1        0.0141
     12 C          -2.1178  -17.6016   21.6342 C.ar    1  UNL1        0.0026
     13 C          -3.4480  -17.5950   22.3275 C.ar    1  UNL1        0.0176
     14 C          -4.6529  -18.1698   21.6438 C.ar    1  UNL1        0.0640
     15 C          -4.5278  -18.7513   20.2667 C.ar    1  UNL1        0.0176
     16 C          -3.1976  -18.7579   19.5734 C.ar    1  UNL1        0.0026
     17 O          -0.5901  -17.9956   18.0783 O.co2   1  UNL1       -0.5446
     18 C          -0.6624  -18.1896   19.5639 C.2     1  UNL1        0.0729
     19 O           0.5953  -18.3901   20.3563 O.co2   1  UNL1       -0.5446
     20 C          -9.5029  -19.5424   23.2167 C.2     1  UNL1        0.1979
     21 O          -9.5045  -20.9183   23.8139 O.2     1  UNL1       -0.2865
     22 C         -10.7921  -18.9147   22.7761 C.ar    1  UNL1        0.0535
     23 C         -11.8739  -18.6406   23.7783 C.ar    1  UNL1        0.0607
     24 CL        -11.6665  -18.9942   25.2213 Cl      1  UNL1       -0.0821
     25 C         -13.1630  -18.0129   23.3378 C.ar    1  UNL1        0.0115
     26 C         -13.3704  -17.6593   21.8949 C.ar    1  UNL1        0.0008
     27 C         -12.2886  -17.9335   20.8926 C.ar    1  UNL1        0.0040
     28 C         -10.9995  -18.5612   21.3331 C.ar    1  UNL1        0.0753
     29 C          -9.9177  -18.8353   20.3309 C.3     1  UNL1        0.4187
     30 F          -8.8359  -19.1094   19.3286 F       1  UNL1       -0.1659
     31 F         -10.4597  -20.2186   20.1242 F       1  UNL1       -0.1659
     32 F          -9.3757  -17.4520   20.5375 F       1  UNL1       -0.1659
@<TRIPOS>UNITY_ATOM_ATTR
17 1
charge -1
@<TRIPOS>BOND
     1    17    18   ar
     2    18    19   ar
     3    18    11    1
     4    11    12   ar
     5    12    13   ar
     6    13    14   ar
     7    14     1    1
     8     1     2   ar
     9     2     3   ar
    10     3    20    1
    11    20    21    2
    12    20    22    1
    13    22    23   ar
    14    23    24    1
    15    23    25   ar
    16    25    26   ar
    17    26    27   ar
    18    27    28   ar
    19    28    29    1
    20    29    30    1
    21    29    31    1
    22    29    32    1
    23     3     4   ar
    24     4     5   ar
    25     5     6    1
    26     5     7   ar
    27     7     8   ar
    28     8     9   ar
    29     9    10   ar
    30    14    15   ar
    31    15    16   ar
    32    16    11   ar
    33    10     1   ar
    34    28    22   ar
    35    10     4   ar
@<TRIPOS>MOLECULE
*****
 32 35 0 0 0
SMALL
GASTEIGER

@<TRIPOS>ATOM
      1 N          -6.3291  -18.7342   21.4453 N.ar    1  UNL1       -0.3048
      2 C          -6.9662  -18.4117   22.7644 C.ar    1  UNL1        0.0833
      3 C          -8.4292  -18.7267   22.6619 C.ar    1  UNL1        0.0600
      4 C          -8.6962  -19.2439   21.2794 C.ar    1  UNL1        0.0481
      5 C          -9.9536  -19.7111   20.6081 C.ar    1  UNL1        0.1416
      6 F         -11.2515  -19.7064   21.3600 F       1  UNL1       -0.2041
      7 C          -9.9130  -20.1831   19.1849 C.ar    1  UNL1        0.0297
      8 C          -8.6151  -20.1877   18.4330 C.ar    1  UNL1        0.0038
      9 C          -7.3577  -19.7205   19.1043 C.ar    1  UNL1        0.0177
     10 C          -7.3983  -19.2485   20.5275 C.ar    1  UNL1        0.0663
     11 C          -1.9746  -18.2449   20.4210 C.ar    1  UNL1        0.0141
     12 C          -2.9592  -18.6173   19.3525 C.ar    1  UNL1        0.0026
     13 C          -4.4107  -18.7804   19.6939 C.ar    1  UNL1        0.0176
     14 C          -4.8776  -18.5711   21.1038 C.ar    1  UNL1        0.0640
     15 C          -3.8930  -18.1987   22.1725 C.ar    1  UNL1        0.0176
     16 C          -2.4415  -18.0356   21.8311 C.ar    1  UNL1        0.0026
     17 O           0.2881  -19.2732   19.6645 O.co2   1  UNL1       -0.5446
     18 C          -0.5231  -18.0818   20.0796 C.2     1  UNL1        0.0729
     19 O           0.1171  -16.7273   20.1533 O.co2   1  UNL1       -0.5446
     20 C          -9.4465  -18.5547   23.7507 C.2     1  UNL1        0.1979
     21 O          -9.1835  -19.1126   25.1179 O.2     1  UNL1       -0.2865
     22 C         -10.7270  -17.8247   23.4721 C.ar    1  UNL1        0.0535
     23 C         -12.0380  -18.4257   23.8847 C.ar    1  UNL1        0.0607
     24 CL        -12.0684  -19.7567   24.5757 Cl      1  UNL1       -0.0821
     25 C         -13.3184  -17.6958   23.6062 C.ar    1  UNL1        0.0115
     26 C         -13.2879  -16.3648   22.9152 C.ar    1  UNL1        0.0008
     27 C         -11.9770  -15.7638   22.5026 C.ar    1  UNL1        0.0040
     28 C         -10.6965  -16.4937   22.7811 C.ar    1  UNL1        0.0753
     29 C          -9.3856  -15.8926   22.3686 C.3     1  UNL1        0.4187
     30 F          -8.0746  -15.2916   21.9560 F       1  UNL1       -0.1659
     31 F          -9.7181  -16.1551   20.9296 F       1  UNL1       -0.1659
     32 F          -9.0531  -15.6302   23.8075 F       1  UNL1       -0.1659
@<TRIPOS>UNITY_ATOM_ATTR
17 1
charge -1
@<TRIPOS>BOND
     1    17    18   ar
     2    18    19   ar
     3    18    11    1
     4    11    12   ar
     5    12    13   ar
     6    13    14   ar
     7    14     1    1
     8     1     2   ar
     9     2     3   ar
    10     3    20    1
    11    20    21    2
    12    20    22    1
    13    22    23   ar
    14    23    24    1
    15    23    25   ar
    16    25    26   ar
    17    26    27   ar
    18    27    28   ar
    19    28    29    1
    20    29    30    1
    21    29    31    1
    22    29    32    1
    23     3     4   ar
    24     4     5   ar
    25     5     6    1
    26     5     7   ar
    27     7     8   ar
    28     8     9   ar
    29     9    10   ar
    30    14    15   ar
    31    15    16   ar
    32    16    11   ar
    33    10     1   ar
    34    28    22   ar
    35    10     4   ar
@<TRIPOS>MOLECULE
*****
 32 35 0 0 0
SMALL
GASTEIGER

@<TRIPOS>ATOM
      1 N          -0.1201    2.4264   20.7143 N.ar    1  UNL1       -0.3048
      2 C          -1.0689    3.3992   20.0791 C.ar    1  UNL1        0.0833
      3 C          -1.8633    4.0520   21.1712 C.ar    1  UNL1        0.0600
      4 C          -1.4055    3.4828   22.4813 C.ar    1  UNL1        0.0481
      5 C          -1.8305    3.7495   23.8949 C.ar    1  UNL1        0.1416
      6 F          -2.9079    4.7542   24.1772 F       1  UNL1       -0.2041
      7 C          -1.1781    3.0114   25.0260 C.ar    1  UNL1        0.0297
      8 C          -0.1007    2.0067   24.7436 C.ar    1  UNL1        0.0038
      9 C           0.3242    1.7400   23.3301 C.ar    1  UNL1        0.0177
     10 C          -0.3282    2.4780   22.1989 C.ar    1  UNL1        0.0663
     11 C           2.8322   -0.1880   18.5465 C.ar    1  UNL1        0.0141
     12 C           1.8845   -0.7913   19.5404 C.ar    1  UNL1        0.0026
     13 C           0.9004    0.0801   20.2630 C.ar    1  UNL1        0.0176
     14 C           0.8640    1.5549   19.9917 C.ar    1  UNL1        0.0640
     15 C           1.8117    2.1583   18.9978 C.ar    1  UNL1        0.0176
     16 C           2.7958    1.2868   18.2752 C.ar    1  UNL1        0.0026
     17 O           4.7011   -1.9920   18.5969 O.co2   1  UNL1       -0.5446
     18 C           3.8163   -1.0595   17.8240 C.2     1  UNL1        0.0729
     19 O           3.9155   -0.9984   16.3285 O.co2   1  UNL1       -0.5446
     20 C          -2.9286    5.0917   20.9858 C.2     1  UNL1        0.1979
     21 O          -2.8248    6.4073   21.6986 O.2     1  UNL1       -0.2865
     22 C          -4.0977    4.8157   20.0873 C.ar    1  UNL1        0.0535
     23 C          -4.0494    5.2274   18.6457 C.ar    1  UNL1        0.0607
     24 CL         -2.8319    5.9150   18.1026 Cl      1  UNL1       -0.0821
     25 C          -5.2184    4.9514   17.7473 C.ar    1  UNL1        0.0115
     26 C          -6.4358    4.2638   18.2905 C.ar    1  UNL1        0.0008
     27 C          -6.4841    3.8521   19.7321 C.ar    1  UNL1        0.0040
     28 C          -5.3151    4.1281   20.6305 C.ar    1  UNL1        0.0753
     29 C          -5.3634    3.7164   22.0721 C.3     1  UNL1        0.4187
     30 F          -5.4118    3.3048   23.5137 F       1  UNL1       -0.1659
     31 F          -4.7832    2.3813   21.7103 F       1  UNL1       -0.1659
     32 F          -5.9437    5.0515   22.4339 F       1  UNL1       -0.1659
@<TRIPOS>UNITY_ATOM_ATTR
17 1
charge -1
@<TRIPOS>BOND
     1    17    18   ar
     2    18    19   ar
     3    18    11    1
     4    11    12   ar
     5    12    13   ar
     6    13    14   ar
     7    14     1    1
     8     1     2   ar
     9     2     3   ar
    10     3    20    1
    11    20    21    2
    12    20    22    1
    13    22    23   ar
    14    23    24    1
    15    23    25   ar
    16    25    26   ar
    17    26    27   ar
    18    27    28   ar
    19    28    29    1
    20    29    30    1
    21    29    31    1
    22    29    32    1
    23     3     4   ar
    24     4     5   ar
    25     5     6    1
    26     5     7   ar
    27     7     8   ar
    28     8     9   ar
    29     9    10   ar
    30    14    15   ar
    31    15    16   ar
    32    16    11   ar
    33    10     1   ar
    34    28    22   ar
    35    10     4   ar
@<TRIPOS>MOLECULE
*****
 32 35 0 0 0
SMALL
GASTEIGER

@<TRIPOS>ATOM
      1 N          -0.0116    1.9534   22.7262 N.ar    1  UNL1       -0.3048
      2 C          -0.7954    3.0541   22.0750 C.ar    1  UNL1        0.0833
      3 C          -1.5707    3.7659   23.1438 C.ar    1  UNL1        0.0600
      4 C          -1.2660    3.1051   24.4555 C.ar    1  UNL1        0.0481
      5 C          -1.7415    3.3788   25.8515 C.ar    1  UNL1        0.1416
      6 F          -2.7051    4.4990   26.1096 F       1  UNL1       -0.2041
      7 C          -1.2535    2.5322   26.9895 C.ar    1  UNL1        0.0297
      8 C          -0.2899    1.4119   26.7314 C.ar    1  UNL1        0.0038
      9 C           0.1856    1.1383   25.3353 C.ar    1  UNL1        0.0177
     10 C          -0.3025    1.9849   24.1974 C.ar    1  UNL1        0.0663
     11 C           2.7310   -0.9362   20.6336 C.ar    1  UNL1        0.0141
     12 C           1.3405   -0.7138   20.1170 C.ar    1  UNL1        0.0026
     13 C           0.4263    0.2494   20.8145 C.ar    1  UNL1        0.0176
     14 C           0.9025    0.9902   22.0286 C.ar    1  UNL1        0.0640
     15 C           2.2932    0.7678   22.5454 C.ar    1  UNL1        0.0176
     16 C           3.2073   -0.1954   21.8478 C.ar    1  UNL1        0.0026
     17 O           5.0961   -1.5624   19.7597 O.co2   1  UNL1       -0.5446
     18 C           3.6452   -1.8994   19.9361 C.2     1  UNL1        0.0729
     19 O           3.1083   -3.1995   19.4149 O.co2   1  UNL1       -0.5446
     20 C          -2.4893    4.9336   22.9372 C.2     1  UNL1        0.1979
     21 O          -2.2422    6.2206   23.6667 O.2     1  UNL1       -0.2865
     22 C          -3.6553    4.8141   22.0009 C.ar    1  UNL1        0.0535
     23 C          -3.5135    5.2369   20.5687 C.ar    1  UNL1        0.0607
     24 CL         -2.2058    5.7792   20.0728 Cl      1  UNL1       -0.0821
     25 C          -4.6793    5.1175   19.6325 C.ar    1  UNL1        0.0115
     26 C          -5.9869    4.5752   20.1285 C.ar    1  UNL1        0.0008
     27 C          -6.1287    4.1524   21.5607 C.ar    1  UNL1        0.0040
     28 C          -4.9629    4.2719   22.4969 C.ar    1  UNL1        0.0753
     29 C          -5.1047    3.8491   23.9291 C.3     1  UNL1        0.4187
     30 F          -5.2465    3.4263   25.3613 F       1  UNL1       -0.1659
     31 F          -5.4585    5.2562   24.3095 F       1  UNL1       -0.1659
     32 F          -4.7509    2.4419   23.5487 F       1  UNL1       -0.1659
@<TRIPOS>UNITY_ATOM_ATTR
17 1
charge -1
@<TRIPOS>BOND
     1    17    18   ar
     2    18    19   ar
     3    18    11    1
     4    11    12   ar
     5    12    13   ar
     6    13    14   ar
     7    14     1    1
     8     1     2   ar
     9     2     3   ar
    10     3    20    1
    11    20    21    2
    12    20    22    1
    13    22    23   ar
    14    23    24    1
    15    23    25   ar
    16    25    26   ar
    17    26    27   ar
    18    27    28   ar
    19    28    29    1
    20    29    30    1
    21    29    31    1
    22    29    32    1
    23     3     4   ar
    24     4     5   ar
    25     5     6    1
    26     5     7   ar
    27     7     8   ar
    28     8     9   ar
    29     9    10   ar
    30    14    15   ar
    31    15    16   ar
    32    16    11   ar
    33    10     1   ar
    34    28    22   ar
    35    10     4   ar
@<TRIPOS>MOLECULE
*****
 32 35 0 0 0
SMALL
GASTEIGER

@<TRIPOS>ATOM
      1 N         -14.1141   -5.7063   18.8030 N.ar    1  UNL1       -0.3048
      2 C         -14.2103   -4.2166   18.9501 C.ar    1  UNL1        0.0833
      3 C         -12.8166   -3.6631   18.9827 C.ar    1  UNL1        0.0600
      4 C         -11.8590   -4.8107   18.8559 C.ar    1  UNL1        0.0481
      5 C         -10.3604   -4.8689   18.8272 C.ar    1  UNL1        0.1416
      6 F          -9.5585   -3.6061   18.9383 F       1  UNL1       -0.2041
      7 C          -9.6638   -6.1899   18.6875 C.ar    1  UNL1        0.0297
      8 C         -10.4657   -7.4527   18.5764 C.ar    1  UNL1        0.0038
      9 C         -11.9643   -7.3944   18.6051 C.ar    1  UNL1        0.0177
     10 C         -12.6609   -6.0734   18.7449 C.ar    1  UNL1        0.0663
     11 C         -17.5770   -8.5711   18.5762 C.ar    1  UNL1        0.0141
     12 C         -17.6088   -7.4317   19.5514 C.ar    1  UNL1        0.0026
     13 C         -16.4545   -6.4768   19.6270 C.ar    1  UNL1        0.0176
     14 C         -15.2684   -6.6612   18.7275 C.ar    1  UNL1        0.0640
     15 C         -15.2367   -7.8006   17.7522 C.ar    1  UNL1        0.0176
     16 C         -16.3910   -8.7555   17.6767 C.ar    1  UNL1        0.0026
     17 O         -18.7511  -10.5970   17.4507 O.co2   1  UNL1       -0.5446
     18 C         -18.7314   -9.5260   18.5007 C.2     1  UNL1        0.0729
     19 O         -19.8659   -9.4098   19.4750 O.co2   1  UNL1       -0.5446
     20 C         -12.4455   -2.2161   19.1184 C.2     1  UNL1        0.1979
     21 O         -11.5058   -1.7813   20.2036 O.2     1  UNL1       -0.2865
     22 C         -13.0143   -1.2037   18.1688 C.ar    1  UNL1        0.0535
     23 C         -14.3464   -0.5750   18.4521 C.ar    1  UNL1        0.0607
     24 CL        -15.1098   -0.9588   19.6850 Cl      1  UNL1       -0.0821
     25 C         -14.9152    0.4372   17.5025 C.ar    1  UNL1        0.0115
     26 C         -14.1518    0.8209   16.2696 C.ar    1  UNL1        0.0008
     27 C         -12.8197    0.1923   15.9863 C.ar    1  UNL1        0.0040
     28 C         -12.2509   -0.8200   16.9359 C.ar    1  UNL1        0.0753
     29 C         -10.9188   -1.4487   16.6526 C.3     1  UNL1        0.4187
     30 F          -9.5867   -2.0773   16.3693 F       1  UNL1       -0.1659
     31 F         -11.6055   -2.6017   15.9825 F       1  UNL1       -0.1659
     32 F         -10.2322   -0.2956   17.3226 F       1  UNL1       -0.1659
@<TRIPOS>UNITY_ATOM_ATTR
17 1
charge -1
@<TRIPOS>BOND
     1    17    18   ar
     2    18    19   ar
     3    18    11    1
     4    11    12   ar
     5    12    13   ar
     6    13    14   ar
     7    14     1    1
     8     1     2   ar
     9     2     3   ar
    10     3    20    1
    11    20    21    2
    12    20    22    1
    13    22    23   ar
    14    23    24    1
    15    23    25   ar
    16    25    26   ar
    17    26    27   ar
    18    27    28   ar
    19    28    29    1
    20    29    30    1
    21    29    31    1
    22    29    32    1
    23     3     4   ar
    24     4     5   ar
    25     5     6    1
    26     5     7   ar
    27     7     8   ar
    28     8     9   ar
    29     9    10   ar
    30    14    15   ar
    31    15    16   ar
    32    16    11   ar
    33    10     1   ar
    34    28    22   ar
    35    10     4   ar
@<TRIPOS>MOLECULE
*****
 32 35 0 0 0
SMALL
GASTEIGER

@<TRIPOS>ATOM
      1 N           3.8470   -0.4957   31.7140 N.ar    1  UNL1       -0.3048
      2 C           2.7573   -0.1599   30.7395 C.ar    1  UNL1        0.0833
      3 C           1.9597    0.9755   31.3094 C.ar    1  UNL1        0.0600
      4 C           2.5565    1.3414   32.6360 C.ar    1  UNL1        0.0481
      5 C           2.1885    2.3851   33.6486 C.ar    1  UNL1        0.1416
      6 F           1.0220    3.2944   33.3984 F       1  UNL1       -0.2041
      7 C           2.9869    2.5194   34.9112 C.ar    1  UNL1        0.0297
      8 C           4.1534    1.6101   35.1614 C.ar    1  UNL1        0.0038
      9 C           4.5214    0.5665   34.1488 C.ar    1  UNL1        0.0177
     10 C           3.7230    0.4321   32.8861 C.ar    1  UNL1        0.0663
     11 C           6.9449   -3.7206   31.2098 C.ar    1  UNL1        0.0141
     12 C           6.1465   -3.6390   32.4771 C.ar    1  UNL1        0.0026
     13 C           5.1139   -2.5641   32.6451 C.ar    1  UNL1        0.0176
     14 C           4.8796   -1.5707   31.5460 C.ar    1  UNL1        0.0640
     15 C           5.6780   -1.6522   30.2787 C.ar    1  UNL1        0.0176
     16 C           6.7106   -2.7272   30.1106 C.ar    1  UNL1        0.0026
     17 O           7.6414   -6.0465   30.2854 O.co2   1  UNL1       -0.5446
     18 C           7.9774   -4.7955   31.0418 C.2     1  UNL1        0.0729
     19 O           9.3460   -4.6195   31.6301 O.co2   1  UNL1       -0.5446
     20 C           0.7735    1.6302   30.6656 C.2     1  UNL1        0.1979
     21 O          -0.5002    1.8013   31.4389 O.2     1  UNL1       -0.2865
     22 C           0.8612    2.1138   29.2483 C.ar    1  UNL1        0.0535
     23 C           1.6459    3.3506   28.9250 C.ar    1  UNL1        0.0607
     24 CL          2.3430    4.1038   30.0190 Cl      1  UNL1       -0.0821
     25 C           1.7336    3.8342   27.5078 C.ar    1  UNL1        0.0115
     26 C           1.0365    3.0809   26.4139 C.ar    1  UNL1        0.0008
     27 C           0.2518    1.8441   26.7372 C.ar    1  UNL1        0.0040
     28 C           0.1641    1.3605   28.1543 C.ar    1  UNL1        0.0753
     29 C          -0.6206    0.1237   28.4776 C.3     1  UNL1        0.4187
     30 F          -1.4054   -1.1131   28.8009 F       1  UNL1       -0.1659
     31 F           0.6374   -0.6908   28.4151 F       1  UNL1       -0.1659
     32 F          -1.8787    0.9382   28.5401 F       1  UNL1       -0.1659
@<TRIPOS>UNITY_ATOM_ATTR
17 1
charge -1
@<TRIPOS>BOND
     1    17    18   ar
     2    18    19   ar
     3    18    11    1
     4    11    12   ar
     5    12    13   ar
     6    13    14   ar
     7    14     1    1
     8     1     2   ar
     9     2     3   ar
    10     3    20    1
    11    20    21    2
    12    20    22    1
    13    22    23   ar
    14    23    24    1
    15    23    25   ar
    16    25    26   ar
    17    26    27   ar
    18    27    28   ar
    19    28    29    1
    20    29    30    1
    21    29    31    1
    22    29    32    1
    23     3     4   ar
    24     4     5   ar
    25     5     6    1
    26     5     7   ar
    27     7     8   ar
    28     8     9   ar
    29     9    10   ar
    30    14    15   ar
    31    15    16   ar
    32    16    11   ar
    33    10     1   ar
    34    28    22   ar
    35    10     4   ar
@<TRIPOS>MOLECULE
*****
 32 35 0 0 0
SMALL
GASTEIGER

@<TRIPOS>ATOM
      1 N           2.0598    1.1870   24.0351 N.ar    1  UNL1       -0.3048
      2 C           3.1417    0.3042   23.4873 C.ar    1  UNL1        0.0833
      3 C           3.4325    0.7445   22.0831 C.ar    1  UNL1        0.0600
      4 C           2.5304    1.8994   21.7632 C.ar    1  UNL1        0.0481
      5 C           2.3719    2.7373   20.5292 C.ar    1  UNL1        0.1416
      6 F           3.2203    2.4638   19.3228 F       1  UNL1       -0.2041
      7 C           1.3650    3.8487   20.5017 C.ar    1  UNL1        0.0297
      8 C           0.5166    4.1222   21.7081 C.ar    1  UNL1        0.0038
      9 C           0.6751    3.2843   22.9420 C.ar    1  UNL1        0.0177
     10 C           1.6820    2.1729   22.9696 C.ar    1  UNL1        0.0663
     11 C           0.2630    0.9240   28.1525 C.ar    1  UNL1        0.0141
     12 C          -0.6104    1.2256   26.9708 C.ar    1  UNL1        0.0026
     13 C          -0.0114    1.3133   25.5984 C.ar    1  UNL1        0.0176
     14 C           1.4608    1.0993   25.4075 C.ar    1  UNL1        0.0640
     15 C           2.3343    0.7977   26.5892 C.ar    1  UNL1        0.0176
     16 C           1.7353    0.7100   27.9616 C.ar    1  UNL1        0.0026
     17 O          -1.6550    0.1507   29.7251 O.co2   1  UNL1       -0.5446
     18 C          -0.3360    0.8363   29.5249 C.2     1  UNL1        0.0729
     19 O           0.3840    1.4343   30.6970 O.co2   1  UNL1       -0.5446
     20 C           4.4474    0.1366   21.1608 C.2     1  UNL1        0.1979
     21 O           5.5511    0.9822   20.5981 O.2     1  UNL1       -0.2865
     22 C           4.3584   -1.3170   20.8012 C.ar    1  UNL1        0.0535
     23 C           5.2122   -2.3206   21.5181 C.ar    1  UNL1        0.0607
     24 CL          6.1549   -1.8705   22.5946 Cl      1  UNL1       -0.0821
     25 C           5.1233   -3.7741   21.1586 C.ar    1  UNL1        0.0115
     26 C           4.1806   -4.2241   20.0821 C.ar    1  UNL1        0.0008
     27 C           3.3268   -3.2205   19.3652 C.ar    1  UNL1        0.0040
     28 C           3.4157   -1.7670   19.7247 C.ar    1  UNL1        0.0753
     29 C           2.5619   -0.7634   19.0078 C.3     1  UNL1        0.4187
     30 F           1.7082    0.2401   18.2910 F       1  UNL1       -0.1659
     31 F           1.4558   -1.0009   19.9928 F       1  UNL1       -0.1659
     32 F           3.6681   -0.5259   18.0229 F       1  UNL1       -0.1659
@<TRIPOS>UNITY_ATOM_ATTR
17 1
charge -1
@<TRIPOS>BOND
     1    17    18   ar
     2    18    19   ar
     3    18    11    1
     4    11    12   ar
     5    12    13   ar
     6    13    14   ar
     7    14     1    1
     8     1     2   ar
     9     2     3   ar
    10     3    20    1
    11    20    21    2
    12    20    22    1
    13    22    23   ar
    14    23    24    1
    15    23    25   ar
    16    25    26   ar
    17    26    27   ar
    18    27    28   ar
    19    28    29    1
    20    29    30    1
    21    29    31    1
    22    29    32    1
    23     3     4   ar
    24     4     5   ar
    25     5     6    1
    26     5     7   ar
    27     7     8   ar
    28     8     9   ar
    29     9    10   ar
    30    14    15   ar
    31    15    16   ar
    32    16    11   ar
    33    10     1   ar
    34    28    22   ar
    35    10     4   ar
@<TRIPOS>MOLECULE
*****
 32 35 0 0 0
SMALL
GASTEIGER

@<TRIPOS>ATOM
      1 N           6.9396   -3.4383   24.6113 N.ar    1  UNL1       -0.3048
      2 C           6.3237   -2.2470   23.9394 C.ar    1  UNL1        0.0833
      3 C           6.6230   -2.3362   22.4723 C.ar    1  UNL1        0.0600
      4 C           7.4240   -3.5826   22.2375 C.ar    1  UNL1        0.0481
      5 C           8.0004   -4.1852   20.9907 C.ar    1  UNL1        0.1416
      6 F           7.8047   -3.5041   19.6687 F       1  UNL1       -0.2041
      7 C           8.7725   -5.4690   21.0660 C.ar    1  UNL1        0.0297
      8 C           8.9681   -6.1501   22.3880 C.ar    1  UNL1        0.0038
      9 C           8.3917   -5.5475   23.6348 C.ar    1  UNL1        0.0177
     10 C           7.6196   -4.2637   23.5595 C.ar    1  UNL1        0.0663
     11 C           6.7762   -4.3718   29.0104 C.ar    1  UNL1        0.0141
     12 C           6.4591   -5.4388   28.0050 C.ar    1  UNL1        0.0026
     13 C           6.5136   -5.1276   26.5386 C.ar    1  UNL1        0.0176
     14 C           6.8851   -3.7495   26.0777 C.ar    1  UNL1        0.0640
     15 C           7.2022   -2.6824   27.0832 C.ar    1  UNL1        0.0176
     16 C           7.1477   -2.9936   28.5495 C.ar    1  UNL1        0.0026
     17 O           6.9146   -6.0927   30.9519 O.co2   1  UNL1       -0.5446
     18 C           6.7217   -4.6831   30.4768 C.2     1  UNL1        0.0729
     19 O           6.4743   -3.5847   31.4679 O.co2   1  UNL1       -0.5446
     20 C           6.1963   -1.3519   21.4239 C.2     1  UNL1        0.1979
     21 O           7.2254   -0.6712   20.5710 O.2     1  UNL1       -0.2865
     22 C           4.7404   -1.0482   21.2284 C.ar    1  UNL1        0.0535
     23 C           4.1056    0.0905   21.9703 C.ar    1  UNL1        0.0607
     24 CL          4.9267    0.9256   22.9075 Cl      1  UNL1       -0.0821
     25 C           2.6497    0.3942   21.7749 C.ar    1  UNL1        0.0115
     26 C           1.8287   -0.4409   20.8376 C.ar    1  UNL1        0.0008
     27 C           2.4635   -1.5796   20.0958 C.ar    1  UNL1        0.0040
     28 C           3.9193   -1.8833   20.2912 C.ar    1  UNL1        0.0753
     29 C           4.5541   -3.0220   19.5494 C.3     1  UNL1        0.4187
     30 F           5.1889   -4.1608   18.8075 F       1  UNL1       -0.1659
     31 F           4.2206   -3.9463   20.6828 F       1  UNL1       -0.1659
     32 F           4.8876   -2.0978   18.4160 F       1  UNL1       -0.1659
@<TRIPOS>UNITY_ATOM_ATTR
17 1
charge -1
@<TRIPOS>BOND
     1    17    18   ar
     2    18    19   ar
     3    18    11    1
     4    11    12   ar
     5    12    13   ar
     6    13    14   ar
     7    14     1    1
     8     1     2   ar
     9     2     3   ar
    10     3    20    1
    11    20    21    2
    12    20    22    1
    13    22    23   ar
    14    23    24    1
    15    23    25   ar
    16    25    26   ar
    17    26    27   ar
    18    27    28   ar
    19    28    29    1
    20    29    30    1
    21    29    31    1
    22    29    32    1
    23     3     4   ar
    24     4     5   ar
    25     5     6    1
    26     5     7   ar
    27     7     8   ar
    28     8     9   ar
    29     9    10   ar
    30    14    15   ar
    31    15    16   ar
    32    16    11   ar
    33    10     1   ar
    34    28    22   ar
    35    10     4   ar
@<TRIPOS>MOLECULE
*****
 32 35 0 0 0
SMALL
GASTEIGER

@<TRIPOS>ATOM
      1 N           4.8015   -1.7856   24.7378 N.ar    1  UNL1       -0.3048
      2 C           6.0417   -2.6209   24.6182 C.ar    1  UNL1        0.0833
      3 C           6.6019   -2.8186   25.9955 C.ar    1  UNL1        0.0600
      4 C           5.7081   -2.1055   26.9663 C.ar    1  UNL1        0.0481
      5 C           5.7636   -1.9551   28.4577 C.ar    1  UNL1        0.1416
      6 F           6.8763   -2.5936   29.2350 F       1  UNL1       -0.2041
      7 C           4.7064   -1.1662   29.1718 C.ar    1  UNL1        0.0297
      8 C           3.5936   -0.5278   28.3945 C.ar    1  UNL1        0.0038
      9 C           3.5381   -0.6782   26.9031 C.ar    1  UNL1        0.0177
     10 C           4.5953   -1.4671   26.1890 C.ar    1  UNL1        0.0663
     11 C           2.1627   -0.4666   21.3397 C.ar    1  UNL1        0.0141
     12 C           3.1082   -1.6160   21.1526 C.ar    1  UNL1        0.0026
     13 C           3.9878   -2.0556   22.2853 C.ar    1  UNL1        0.0176
     14 C           3.9219   -1.3459   23.6051 C.ar    1  UNL1        0.0640
     15 C           2.9764   -0.1965   23.7922 C.ar    1  UNL1        0.0176
     16 C           2.0968    0.2431   22.6595 C.ar    1  UNL1        0.0026
     17 O           1.8577    0.1363   18.8310 O.co2   1  UNL1       -0.5446
     18 C           1.2831   -0.0270   20.2069 C.2     1  UNL1        0.0729
     19 O          -0.1710    0.2494   20.4501 O.co2   1  UNL1       -0.5446
     20 C           7.8389   -3.5934   26.3413 C.2     1  UNL1        0.1979
     21 O           8.9668   -2.9211   27.0664 O.2     1  UNL1       -0.2865
     22 C           7.9480   -5.0406   25.9620 C.ar    1  UNL1        0.0535
     23 C           8.5033   -5.4251   24.6226 C.ar    1  UNL1        0.0607
     24 CL          8.9495   -4.3623   23.6626 Cl      1  UNL1       -0.0821
     25 C           8.6124   -6.8722   24.2433 C.ar    1  UNL1        0.0115
     26 C           8.1661   -7.9348   25.2033 C.ar    1  UNL1        0.0008
     27 C           7.6109   -7.5504   26.5426 C.ar    1  UNL1        0.0040
     28 C           7.5018   -6.1033   26.9220 C.ar    1  UNL1        0.0753
     29 C           6.9465   -5.7188   28.2613 C.3     1  UNL1        0.4187
     30 F           6.3912   -5.3343   29.6007 F       1  UNL1       -0.1659
     31 F           8.3287   -5.7496   28.8432 F       1  UNL1       -0.1659
     32 F           5.5643   -5.6880   27.6794 F       1  UNL1       -0.1659
@<TRIPOS>UNITY_ATOM_ATTR
17 1
charge -1
@<TRIPOS>BOND
     1    17    18   ar
     2    18    19   ar
     3    18    11    1
     4    11    12   ar
     5    12    13   ar
     6    13    14   ar
     7    14     1    1
     8     1     2   ar
     9     2     3   ar
    10     3    20    1
    11    20    21    2
    12    20    22    1
    13    22    23   ar
    14    23    24    1
    15    23    25   ar
    16    25    26   ar
    17    26    27   ar
    18    27    28   ar
    19    28    29    1
    20    29    30    1
    21    29    31    1
    22    29    32    1
    23     3     4   ar
    24     4     5   ar
    25     5     6    1
    26     5     7   ar
    27     7     8   ar
    28     8     9   ar
    29     9    10   ar
    30    14    15   ar
    31    15    16   ar
    32    16    11   ar
    33    10     1   ar
    34    28    22   ar
    35    10     4   ar
