@<TRIPOS>MOLECULE
*****
 22 25 0 0 0
SMALL
GASTEIGER

@<TRIPOS>ATOM
      1 C         -10.8519  -17.6016   22.2086 C.ar    1  UNL1        0.1384
      2 C          -9.4555  -17.3838   22.7112 C.ar    1  UNL1        0.0366
      3 C          -8.2973  -18.0316   22.0121 C.ar    1  UNL1       -0.0011
      4 C          -8.5354  -18.8972   20.8105 C.ar    1  UNL1       -0.0195
      5 C          -9.9318  -19.1151   20.3080 C.ar    1  UNL1       -0.0067
      6 C         -11.0900  -18.4672   21.0070 C.ar    1  UNL1        0.0337
      7 C         -10.1699  -19.9808   19.1063 C.3     1  UNL1        0.0990
      8 N          -9.0117  -20.6286   18.4073 N.3     1  UNL1       -0.2671
      9 C          -9.2498  -21.4943   17.2057 C.3     1  UNL1        0.0899
     10 C          -7.6152  -20.4107   18.9099 C.3     1  UNL1        0.0811
     11 C          -7.3771  -19.5451   20.1115 C.3     1  UNL1        0.0602
     12 C          -5.9807  -19.3273   20.6140 C.ar    1  UNL1       -0.0170
     13 C          -5.6693  -19.5157   22.0692 C.ar    1  UNL1       -0.0034
     14 C          -4.2729  -19.2979   22.5717 C.ar    1  UNL1        0.0062
     15 C          -3.1878  -18.8916   21.6191 C.ar    1  UNL1        0.0295
     16 S          -1.7291  -18.6072   21.8217 S.2     1  UNL1       -0.0864
     17 C          -1.1388  -18.2429   20.4917 C.ar    1  UNL1        0.0354
     18 C          -2.2328  -18.3022   19.4671 C.ar    1  UNL1        0.0075
     19 C          -3.4991  -18.7032   20.1640 C.ar    1  UNL1        0.0062
     20 C          -4.8956  -18.9210   19.6614 C.ar    1  UNL1       -0.0034
     21 C         -13.1760  -17.7846   23.3555 C.3     1  UNL1        0.2525
     22 O         -12.0102  -16.9537   22.9077 O.3     1  UNL1       -0.4714
@<TRIPOS>BOND
     1    21    22    1
     2    22     1    1
     3     1     2   ar
     4     2     3   ar
     5     3     4   ar
     6     4     5   ar
     7     5     6   ar
     8     5     7    1
     9     7     8    1
    10     8     9    1
    11     8    10    1
    12    10    11    1
    13    11    12    1
    14    12    13   ar
    15    13    14   ar
    16    14    15   ar
    17    15    16   ar
    18    16    17   ar
    19    17    18   ar
    20    18    19   ar
    21    19    20   ar
    22     6     1   ar
    23    20    12   ar
    24    11     4    1
    25    19    15   ar
@<TRIPOS>MOLECULE
*****
 22 25 0 0 0
SMALL
GASTEIGER

@<TRIPOS>ATOM
      1 C         -12.8352  -18.5781   24.6765 C.ar    1  UNL1        0.1384
      2 C         -11.4246  -19.0511   24.8671 C.ar    1  UNL1        0.0366
      3 C         -10.3802  -18.7289   23.8398 C.ar    1  UNL1       -0.0011
      4 C         -10.7464  -17.9338   22.6218 C.ar    1  UNL1       -0.0195
      5 C         -12.1571  -17.4609   22.4311 C.ar    1  UNL1       -0.0067
      6 C         -13.2015  -17.7830   23.4584 C.ar    1  UNL1        0.0337
      7 C         -12.5234  -16.6657   21.2130 C.3     1  UNL1        0.0990
      8 N         -11.4790  -16.3435   20.1857 N.3     1  UNL1       -0.2671
      9 C         -11.8452  -15.5484   18.9676 C.3     1  UNL1        0.0899
     10 C         -10.0683  -16.8165   20.3764 C.3     1  UNL1        0.0811
     11 C          -9.7020  -17.6116   21.5944 C.3     1  UNL1        0.0602
     12 C          -8.2914  -18.0846   21.7851 C.ar    1  UNL1       -0.0170
     13 C          -7.8535  -19.3937   21.1982 C.ar    1  UNL1       -0.0034
     14 C          -6.4428  -19.8667   21.3889 C.ar    1  UNL1        0.0062
     15 C          -5.4701  -19.0305   22.1664 C.ar    1  UNL1        0.0295
     16 S          -4.0261  -19.2356   22.5167 S.2     1  UNL1       -0.0864
     17 C          -3.5715  -18.0533   23.3200 C.ar    1  UNL1        0.0354
     18 C          -4.7346  -17.1174   23.4662 C.ar    1  UNL1        0.0075
     19 C          -5.9079  -17.7214   22.7533 C.ar    1  UNL1        0.0062
     20 C          -7.3186  -17.2484   22.5626 C.ar    1  UNL1       -0.0034
     21 C         -15.3200  -18.5793   25.4352 C.3     1  UNL1        0.2525
     22 O         -13.8796  -18.9003   25.7038 O.3     1  UNL1       -0.4714
@<TRIPOS>BOND
     1    21    22    1
     2    22     1    1
     3     1     2   ar
     4     2     3   ar
     5     3     4   ar
     6     4     5   ar
     7     5     6   ar
     8     5     7    1
     9     7     8    1
    10     8     9    1
    11     8    10    1
    12    10    11    1
    13    11    12    1
    14    12    13   ar
    15    13    14   ar
    16    14    15   ar
    17    15    16   ar
    18    16    17   ar
    19    17    18   ar
    20    18    19   ar
    21    19    20   ar
    22     6     1   ar
    23    20    12   ar
    24    11     4    1
    25    19    15   ar
@<TRIPOS>MOLECULE
*****
 22 25 0 0 0
SMALL
GASTEIGER

@<TRIPOS>ATOM
      1 C         -10.2110  -17.0006   22.5191 C.ar    1  UNL1        0.1384
      2 C          -9.1085  -17.5600   21.6697 C.ar    1  UNL1        0.0366
      3 C          -7.6835  -17.4560   22.1264 C.ar    1  UNL1       -0.0011
      4 C          -7.3609  -16.7927   23.4324 C.ar    1  UNL1       -0.0195
      5 C          -8.4634  -16.2332   24.2818 C.ar    1  UNL1       -0.0067
      6 C          -9.8884  -16.3372   23.8252 C.ar    1  UNL1        0.0337
      7 C          -8.1409  -15.5698   25.5880 C.3     1  UNL1        0.0990
      8 N          -6.7159  -15.4658   26.0446 N.3     1  UNL1       -0.2671
      9 C          -6.3934  -14.8025   27.3507 C.3     1  UNL1        0.0899
     10 C          -5.6134  -16.0253   25.1952 C.3     1  UNL1        0.0811
     11 C          -5.9359  -16.6887   23.8891 C.3     1  UNL1        0.0602
     12 C          -4.8335  -17.2481   23.0397 C.ar    1  UNL1       -0.0170
     13 C          -4.8682  -18.6872   22.6179 C.ar    1  UNL1       -0.0034
     14 C          -3.7657  -19.2466   21.7685 C.ar    1  UNL1        0.0062
     15 C          -2.6284  -18.3670   21.3408 C.ar    1  UNL1        0.0295
     16 S          -1.4094  -18.6359   20.5093 S.2     1  UNL1       -0.0864
     17 C          -0.6212  -17.3630   20.4171 C.ar    1  UNL1        0.0354
     18 C          -1.3532  -16.3074   21.1917 C.ar    1  UNL1        0.0075
     19 C          -2.5937  -16.9279   21.7625 C.ar    1  UNL1        0.0062
     20 C          -3.6962  -16.3685   22.6120 C.ar    1  UNL1       -0.0034
     21 C         -12.0780  -16.3955   20.8168 C.3     1  UNL1        0.2525
     22 O         -11.6360  -17.1046   22.0624 O.3     1  UNL1       -0.4714
@<TRIPOS>BOND
     1    21    22    1
     2    22     1    1
     3     1     2   ar
     4     2     3   ar
     5     3     4   ar
     6     4     5   ar
     7     5     6   ar
     8     5     7    1
     9     7     8    1
    10     8     9    1
    11     8    10    1
    12    10    11    1
    13    11    12    1
    14    12    13   ar
    15    13    14   ar
    16    14    15   ar
    17    15    16   ar
    18    16    17   ar
    19    17    18   ar
    20    18    19   ar
    21    19    20   ar
    22     6     1   ar
    23    20    12   ar
    24    11     4    1
    25    19    15   ar
@<TRIPOS>MOLECULE
*****
 22 25 0 0 0
SMALL
GASTEIGER

@<TRIPOS>ATOM
      1 C          -8.3080  -20.3523   19.4531 C.ar    1  UNL1        0.1384
      2 C          -7.4267  -19.9038   20.5810 C.ar    1  UNL1        0.0366
      3 C          -7.8339  -18.7386   21.4333 C.ar    1  UNL1       -0.0011
      4 C          -9.1225  -18.0219   21.1577 C.ar    1  UNL1       -0.0195
      5 C         -10.0038  -18.4704   20.0299 C.ar    1  UNL1       -0.0067
      6 C          -9.5965  -19.6356   19.1775 C.ar    1  UNL1        0.0337
      7 C         -11.2924  -17.7537   19.7542 C.3     1  UNL1        0.0990
      8 N         -11.6996  -16.5885   20.6066 N.3     1  UNL1       -0.2671
      9 C         -12.9882  -15.8718   20.3310 C.3     1  UNL1        0.0899
     10 C         -10.8183  -16.1400   21.7345 C.3     1  UNL1        0.0811
     11 C          -9.5297  -16.8567   22.0100 C.3     1  UNL1        0.0602
     12 C          -8.6484  -16.4082   23.1379 C.ar    1  UNL1       -0.0170
     13 C          -7.3599  -15.6978   22.8461 C.ar    1  UNL1       -0.0034
     14 C          -6.4786  -15.2493   23.9739 C.ar    1  UNL1        0.0062
     15 C          -6.8858  -15.5112   25.3937 C.ar    1  UNL1        0.0295
     16 S          -6.2273  -15.1892   26.7024 S.2     1  UNL1       -0.0864
     17 C          -7.1088  -15.7005   27.8030 C.ar    1  UNL1        0.0354
     18 C          -8.3121  -16.3386   27.1746 C.ar    1  UNL1        0.0075
     19 C          -8.1742  -16.2215   25.6855 C.ar    1  UNL1        0.0062
     20 C          -9.0556  -16.6701   24.5576 C.ar    1  UNL1       -0.0034
     21 C          -8.7825  -21.9667   17.4736 C.3     1  UNL1        0.2525
     22 O          -7.9007  -21.5175   18.6008 O.3     1  UNL1       -0.4714
@<TRIPOS>BOND
     1    21    22    1
     2    22     1    1
     3     1     2   ar
     4     2     3   ar
     5     3     4   ar
     6     4     5   ar
     7     5     6   ar
     8     5     7    1
     9     7     8    1
    10     8     9    1
    11     8    10    1
    12    10    11    1
    13    11    12    1
    14    12    13   ar
    15    13    14   ar
    16    14    15   ar
    17    15    16   ar
    18    16    17   ar
    19    17    18   ar
    20    18    19   ar
    21    19    20   ar
    22     6     1   ar
    23    20    12   ar
    24    11     4    1
    25    19    15   ar
@<TRIPOS>MOLECULE
*****
 22 25 0 0 0
SMALL
GASTEIGER

@<TRIPOS>ATOM
      1 C         -12.4463   -1.9334   18.5544 C.ar    1  UNL1        0.1384
      2 C         -13.8238   -2.4889   18.3449 C.ar    1  UNL1        0.0366
      3 C         -14.0351   -3.9733   18.3004 C.ar    1  UNL1       -0.0011
      4 C         -12.8690   -4.9021   18.4655 C.ar    1  UNL1       -0.0195
      5 C         -11.4915   -4.3466   18.6750 C.ar    1  UNL1       -0.0067
      6 C         -11.2802   -2.8622   18.7194 C.ar    1  UNL1        0.0337
      7 C         -10.3252   -5.2755   18.8400 C.3     1  UNL1        0.0990
      8 N         -10.5366   -6.7598   18.7956 N.3     1  UNL1       -0.2671
      9 C          -9.3704   -7.6887   18.9606 C.3     1  UNL1        0.0899
     10 C         -11.9141   -7.3153   18.5861 C.3     1  UNL1        0.0811
     11 C         -13.0803   -6.3865   18.4210 C.3     1  UNL1        0.0602
     12 C         -14.4577   -6.9420   18.2115 C.ar    1  UNL1       -0.0170
     13 C         -14.9342   -7.2631   16.8259 C.ar    1  UNL1       -0.0034
     14 C         -16.3117   -7.8187   16.6164 C.ar    1  UNL1        0.0062
     15 C         -17.2128   -8.0531   17.7925 C.ar    1  UNL1        0.0295
     16 S         -18.6111   -8.5860   17.8950 S.2     1  UNL1       -0.0864
     17 C         -18.9989   -8.5943   19.3440 C.ar    1  UNL1        0.0354
     18 C         -17.8402   -8.0665   20.1370 C.ar    1  UNL1        0.0075
     19 C         -16.7363   -7.7320   19.1780 C.ar    1  UNL1        0.0062
     20 C         -15.3588   -7.1764   19.3876 C.ar    1  UNL1       -0.0034
     21 C         -13.3597    0.4795   18.2486 C.3     1  UNL1        0.2525
     22 O         -12.2350   -0.4490   18.5988 O.3     1  UNL1       -0.4714
@<TRIPOS>BOND
     1    21    22    1
     2    22     1    1
     3     1     2   ar
     4     2     3   ar
     5     3     4   ar
     6     4     5   ar
     7     5     6   ar
     8     5     7    1
     9     7     8    1
    10     8     9    1
    11     8    10    1
    12    10    11    1
    13    11    12    1
    14    12    13   ar
    15    13    14   ar
    16    14    15   ar
    17    15    16   ar
    18    16    17   ar
    19    17    18   ar
    20    18    19   ar
    21    19    20   ar
    22     6     1   ar
    23    20    12   ar
    24    11     4    1
    25    19    15   ar
@<TRIPOS>MOLECULE
*****
 22 25 0 0 0
SMALL
GASTEIGER

@<TRIPOS>ATOM
      1 C         -15.1607   -2.5183   19.8871 C.ar    1  UNL1        0.1384
      2 C         -16.3596   -3.4039   19.7190 C.ar    1  UNL1        0.0366
      3 C         -16.1794   -4.8528   19.3748 C.ar    1  UNL1       -0.0011
      4 C         -14.8004   -5.4160   19.1988 C.ar    1  UNL1       -0.0195
      5 C         -13.6015   -4.5304   19.3670 C.ar    1  UNL1       -0.0067
      6 C         -13.7816   -3.0816   19.7111 C.ar    1  UNL1        0.0337
      7 C         -12.2224   -5.0936   19.1910 C.3     1  UNL1        0.0990
      8 N         -12.0423   -6.5425   18.8469 N.3     1  UNL1       -0.2671
      9 C         -10.6633   -7.1057   18.6709 C.3     1  UNL1        0.0899
     10 C         -13.2413   -7.4281   18.6787 C.3     1  UNL1        0.0811
     11 C         -14.6203   -6.8648   18.8547 C.3     1  UNL1        0.0602
     12 C         -15.8192   -7.7504   18.6866 C.ar    1  UNL1       -0.0170
     13 C         -16.2565   -8.6423   19.8106 C.ar    1  UNL1       -0.0034
     14 C         -17.4554   -9.5279   19.6425 C.ar    1  UNL1        0.0062
     15 C         -18.2171   -9.5217   18.3503 C.ar    1  UNL1        0.0295
     16 S         -19.4287  -10.2801   17.8958 S.2     1  UNL1       -0.0864
     17 C         -19.7404   -9.8571   16.4908 C.ar    1  UNL1        0.0354
     18 C         -18.7213   -8.8371   16.0770 C.ar    1  UNL1        0.0075
     19 C         -17.7799   -8.6299   17.2262 C.ar    1  UNL1        0.0062
     20 C         -16.5809   -7.7442   17.3944 C.ar    1  UNL1       -0.0034
     21 C         -16.7011   -0.4428   20.1498 C.3     1  UNL1        0.2525
     22 O         -15.3408   -1.0695   20.2312 O.3     1  UNL1       -0.4714
@<TRIPOS>BOND
     1    21    22    1
     2    22     1    1
     3     1     2   ar
     4     2     3   ar
     5     3     4   ar
     6     4     5   ar
     7     5     6   ar
     8     5     7    1
     9     7     8    1
    10     8     9    1
    11     8    10    1
    12    10    11    1
    13    11    12    1
    14    12    13   ar
    15    13    14   ar
    16    14    15   ar
    17    15    16   ar
    18    16    17   ar
    19    17    18   ar
    20    18    19   ar
    21    19    20   ar
    22     6     1   ar
    23    20    12   ar
    24    11     4    1
    25    19    15   ar
@<TRIPOS>MOLECULE
*****
 22 25 0 0 0
SMALL
GASTEIGER

@<TRIPOS>ATOM
      1 C          -3.0915  -19.1879   21.0013 C.ar    1  UNL1        0.1384
      2 C          -3.3791  -18.4904   22.2978 C.ar    1  UNL1        0.0366
      3 C          -4.7927  -18.1562   22.6721 C.ar    1  UNL1       -0.0011
      4 C          -5.9186  -18.5193   21.7499 C.ar    1  UNL1       -0.0195
      5 C          -5.6310  -19.2167   20.4535 C.ar    1  UNL1       -0.0067
      6 C          -4.2174  -19.5510   20.0792 C.ar    1  UNL1        0.0337
      7 C          -6.7569  -19.5799   19.5312 C.3     1  UNL1        0.0990
      8 N          -8.1705  -19.2456   19.9055 N.3     1  UNL1       -0.2671
      9 C          -9.2964  -19.6087   18.9834 C.3     1  UNL1        0.0899
     10 C          -8.4581  -18.5482   21.2020 C.3     1  UNL1        0.0811
     11 C          -7.3322  -18.1850   22.1242 C.3     1  UNL1        0.0602
     12 C          -7.6198  -17.4876   23.4206 C.ar    1  UNL1       -0.0170
     13 C          -8.9724  -17.6146   24.0566 C.ar    1  UNL1       -0.0034
     14 C          -9.2601  -16.9172   25.3531 C.ar    1  UNL1        0.0062
     15 C          -8.1952  -16.0928   26.0136 C.ar    1  UNL1        0.0295
     16 S          -8.1864  -15.2964   27.2847 S.2     1  UNL1       -0.0864
     17 C          -6.8284  -14.6772   27.4344 C.ar    1  UNL1        0.0354
     18 C          -5.9979  -15.0909   26.2557 C.ar    1  UNL1        0.0075
     19 C          -6.8426  -15.9658   25.3777 C.ar    1  UNL1        0.0062
     20 C          -6.5549  -16.6632   24.0812 C.ar    1  UNL1       -0.0034
     21 C          -0.8045  -18.4818   19.9907 C.3     1  UNL1        0.2525
     22 O          -1.6779  -19.5221   20.6270 O.3     1  UNL1       -0.4714
@<TRIPOS>BOND
     1    21    22    1
     2    22     1    1
     3     1     2   ar
     4     2     3   ar
     5     3     4   ar
     6     4     5   ar
     7     5     6   ar
     8     5     7    1
     9     7     8    1
    10     8     9    1
    11     8    10    1
    12    10    11    1
    13    11    12    1
    14    12    13   ar
    15    13    14   ar
    16    14    15   ar
    17    15    16   ar
    18    16    17   ar
    19    17    18   ar
    20    18    19   ar
    21    19    20   ar
    22     6     1   ar
    23    20    12   ar
    24    11     4    1
    25    19    15   ar
@<TRIPOS>MOLECULE
*****
 22 25 0 0 0
SMALL
GASTEIGER

@<TRIPOS>ATOM
      1 C           4.7084   -1.9098   24.6620 C.ar    1  UNL1        0.1384
      2 C           3.8912   -0.7156   24.2671 C.ar    1  UNL1        0.0366
      3 C           3.3657   -0.5959   22.8673 C.ar    1  UNL1       -0.0011
      4 C           3.6575   -1.6705   21.8623 C.ar    1  UNL1       -0.0195
      5 C           4.4747   -2.8647   22.2571 C.ar    1  UNL1       -0.0067
      6 C           5.0001   -2.9844   23.6570 C.ar    1  UNL1        0.0337
      7 C           4.7664   -3.9394   21.2521 C.3     1  UNL1        0.0990
      8 N           4.2410   -3.8198   19.8522 N.3     1  UNL1       -0.2671
      9 C           4.5327   -4.8944   18.8472 C.3     1  UNL1        0.0899
     10 C           3.4237   -2.6255   19.4574 C.3     1  UNL1        0.0811
     11 C           3.1320   -1.5509   20.4624 C.3     1  UNL1        0.0602
     12 C           2.3148   -0.3566   20.0676 C.ar    1  UNL1       -0.0170
     13 C           0.8435   -0.3253   20.3582 C.ar    1  UNL1       -0.0034
     14 C           0.0263    0.8689   19.9633 C.ar    1  UNL1        0.0062
     15 C           0.6803    2.0319   19.2779 C.ar    1  UNL1        0.0295
     16 S           0.1361    3.3359   18.7746 S.2     1  UNL1       -0.0864
     17 C           1.2709    4.1105   18.1729 C.ar    1  UNL1        0.0354
     18 C           2.5166    3.2852   18.3044 C.ar    1  UNL1        0.0075
     19 C           2.1515    2.0006   18.9873 C.ar    1  UNL1        0.0062
     20 C           2.9688    0.8063   19.3822 C.ar    1  UNL1       -0.0034
     21 C           4.4086   -1.5446   27.2167 C.3     1  UNL1        0.2525
     22 O           5.2338   -2.0294   26.0618 O.3     1  UNL1       -0.4714
@<TRIPOS>BOND
     1    21    22    1
     2    22     1    1
     3     1     2   ar
     4     2     3   ar
     5     3     4   ar
     6     4     5   ar
     7     5     6   ar
     8     5     7    1
     9     7     8    1
    10     8     9    1
    11     8    10    1
    12    10    11    1
    13    11    12    1
    14    12    13   ar
    15    13    14   ar
    16    14    15   ar
    17    15    16   ar
    18    16    17   ar
    19    17    18   ar
    20    18    19   ar
    21    19    20   ar
    22     6     1   ar
    23    20    12   ar
    24    11     4    1
    25    19    15   ar
@<TRIPOS>MOLECULE
*****
 22 25 0 0 0
SMALL
GASTEIGER

@<TRIPOS>ATOM
      1 C         -17.7843   -9.0542   18.6454 C.ar    1  UNL1        0.1384
      2 C         -16.2979   -8.8964   18.5211 C.ar    1  UNL1        0.0366
      3 C         -15.6589   -7.5678   18.7980 C.ar    1  UNL1       -0.0011
      4 C         -16.5065   -6.3970   19.1990 C.ar    1  UNL1       -0.0195
      5 C         -17.9929   -6.5548   19.3233 C.ar    1  UNL1       -0.0067
      6 C         -18.6319   -7.8834   19.0464 C.ar    1  UNL1        0.0337
      7 C         -18.8405   -5.3840   19.7243 C.3     1  UNL1        0.0990
      8 N         -18.2016   -4.0554   20.0012 N.3     1  UNL1       -0.2671
      9 C         -19.0491   -2.8846   20.4022 C.3     1  UNL1        0.0899
     10 C         -16.7150   -3.8977   19.8769 C.3     1  UNL1        0.0811
     11 C         -15.8675   -5.0685   19.4759 C.3     1  UNL1        0.0602
     12 C         -14.3811   -4.9107   19.3516 C.ar    1  UNL1       -0.0170
     13 C         -13.7653   -3.5437   19.3994 C.ar    1  UNL1       -0.0034
     14 C         -12.2788   -3.3859   19.2752 C.ar    1  UNL1        0.0062
     15 C         -11.4080   -4.5951   19.1032 C.ar    1  UNL1        0.0295
     16 S          -9.9234   -4.7499   18.9553 S.2     1  UNL1       -0.0864
     17 C          -9.6216   -6.2126   18.8161 C.ar    1  UNL1        0.0354
     18 C         -10.9197   -6.9618   18.8779 C.ar    1  UNL1        0.0075
     19 C         -12.0237   -5.9620   19.0554 C.ar    1  UNL1        0.0062
     20 C         -13.5103   -6.1199   19.1796 C.ar    1  UNL1       -0.0034
     21 C         -19.8061  -10.4441   17.7906 C.3     1  UNL1        0.2525
     22 O         -18.4233  -10.3828   18.3685 O.3     1  UNL1       -0.4714
@<TRIPOS>BOND
     1    21    22    1
     2    22     1    1
     3     1     2   ar
     4     2     3   ar
     5     3     4   ar
     6     4     5   ar
     7     5     6   ar
     8     5     7    1
     9     7     8    1
    10     8     9    1
    11     8    10    1
    12    10    11    1
    13    11    12    1
    14    12    13   ar
    15    13    14   ar
    16    14    15   ar
    17    15    16   ar
    18    16    17   ar
    19    17    18   ar
    20    18    19   ar
    21    19    20   ar
    22     6     1   ar
    23    20    12   ar
    24    11     4    1
    25    19    15   ar
