@<TRIPOS>MOLECULE
*****
 38 43 0 0 0
SMALL
GASTEIGER

@<TRIPOS>ATOM
      1 C           1.8244    0.0808   20.9193 C.ar    1  UNL1        0.0536
      2 C           2.4101   -1.0265   20.0944 C.ar    1  UNL1        0.0049
      3 C           3.4097   -1.9658   20.7014 C.ar    1  UNL1        0.0305
      4 C           3.8235   -1.7977   22.1334 C.ar    1  UNL1        0.1474
      5 O           4.8232   -2.7370   22.7404 O.2     1  UNL1       -0.4400
      6 C           5.2370   -2.5689   24.1724 C.ar    1  UNL1        0.2024
      7 C           4.6512   -1.4615   24.9973 C.ar    1  UNL1        0.0955
      8 C           3.6516   -0.5222   24.3903 C.ar    1  UNL1        0.2030
      9 O           3.0658    0.5852   25.2152 O.2     1  UNL1       -0.2863
     10 C           3.2378   -0.6903   22.9583 C.ar    1  UNL1        0.0735
     11 C           2.2382    0.2490   22.3513 C.ar    1  UNL1        0.0107
     12 O          -0.6408    0.8184   20.5602 O.2     1  UNL1       -0.2699
     13 C           0.8247    1.0202   20.3123 C.2     1  UNL1        0.2492
     14 N           1.2906    2.1612   19.4574 N.am    1  UNL1       -0.2709
     15 C           2.7562    2.3630   19.2095 C.3     1  UNL1        0.1258
     16 C           3.2221    3.5041   18.3545 C.3     1  UNL1        0.1637
     17 O           2.2224    4.4434   17.7476 O.3     1  UNL1       -0.3501
     18 C           0.7569    4.2416   17.9955 C.3     1  UNL1        0.1637
     19 C           0.2910    3.1006   18.8504 C.3     1  UNL1        0.1258
     20 N           6.2366   -3.5082   24.7794 N.pl3   1  UNL1       -0.2742
     21 C           6.9202   -4.5322   23.9226 C.3     1  UNL1        0.1257
     22 C           7.9198   -5.4715   24.5296 C.3     1  UNL1        0.1637
     23 O           8.2359   -5.3868   25.9935 O.3     1  UNL1       -0.3501
     24 C           7.5523   -4.3629   26.8503 C.3     1  UNL1        0.1637
     25 C           6.5526   -3.4235   26.2433 C.3     1  UNL1        0.1257
     26 C           3.9956   -3.0733   19.8765 C.3     1  UNL1        0.0983
     27 C           3.4869   -4.4825   19.8039 C.3     1  UNL1        0.0261
     28 C           4.3698   -5.2460   18.8619 C.3     1  UNL1        0.0235
     29 C           5.4243   -4.3087   18.3523 C.3     1  UNL1        0.0911
     30 N           5.1929   -2.9659   18.9794 N.pl3   1  UNL1       -0.3051
     31 C           6.0147   -1.7322   18.7497 C.ar    1  UNL1        0.0525
     32 C           7.1210   -1.3803   19.6996 C.ar    1  UNL1        0.0443
     33 C           7.9429   -0.1467   19.4701 C.ar    1  UNL1        0.1436
     34 F           9.0491    0.2051   20.4199 F       1  UNL1       -0.2041
     35 C           7.6583    0.7352   18.2904 C.ar    1  UNL1        0.0593
     36 C           6.5520    0.3833   17.3405 C.ar    1  UNL1        0.1436
     37 F           6.2675    1.2651   16.1609 F       1  UNL1       -0.2041
     38 C           5.7303   -0.8504   17.5702 C.ar    1  UNL1        0.0443
@<TRIPOS>BOND
     1    12    13    2
     2    13     1    1
     3     1     2   ar
     4     2     3   ar
     5    26     3    1
     6    26    27    1
     7    27    28    1
     8    28    29    1
     9    29    30    1
    10    30    31    1
    11    31    32   ar
    12    32    33   ar
    13    33    34    1
    14    33    35   ar
    15    35    36   ar
    16    36    37    1
    17    36    38   ar
    18     3     4   ar
    19     4     5   ar
    20     5     6   ar
    21     6    20    1
    22    20    21    1
    23    21    22    1
    24    22    23    1
    25    23    24    1
    26    24    25    1
    27     6     7   ar
    28     7     8   ar
    29     8     9    2
    30     8    10   ar
    31    10    11   ar
    32    13    14   am
    33    14    15    1
    34    15    16    1
    35    16    17    1
    36    17    18    1
    37    18    19    1
    38    11     1   ar
    39    19    14    1
    40    30    26    1
    41    38    31   ar
    42    10     4   ar
    43    25    20    1
@<TRIPOS>MOLECULE
*****
 38 43 0 0 0
SMALL
GASTEIGER

@<TRIPOS>ATOM
      1 C           3.1263   -0.4489   23.2292 C.ar    1  UNL1        0.0536
      2 C           3.2787   -1.2479   21.9689 C.ar    1  UNL1        0.0049
      3 C           4.2073   -2.4254   21.9352 C.ar    1  UNL1        0.0305
      4 C           4.9835   -2.8039   23.1617 C.ar    1  UNL1        0.1474
      5 O           5.9121   -3.9814   23.1278 O.2     1  UNL1       -0.4400
      6 C           6.6884   -4.3599   24.3543 C.ar    1  UNL1        0.2024
      7 C           6.5359   -3.5607   25.6146 C.ar    1  UNL1        0.0955
      8 C           5.6073   -2.3833   25.6484 C.ar    1  UNL1        0.2030
      9 O           5.4550   -1.5842   26.9086 O.2     1  UNL1       -0.2863
     10 C           4.8311   -2.0048   24.4219 C.ar    1  UNL1        0.0735
     11 C           3.9025   -0.8273   24.4557 C.ar    1  UNL1        0.0107
     12 O           0.8968    0.6369   24.0042 O.2     1  UNL1       -0.2699
     13 C           2.1977    0.7287   23.2630 C.2     1  UNL1        0.2492
     14 N           2.5699    1.9979   22.5556 N.am    1  UNL1       -0.2709
     15 C           3.8707    2.0897   21.8144 C.3     1  UNL1        0.1258
     16 C           4.2429    3.3590   21.1070 C.3     1  UNL1        0.1637
     17 O           3.3143    4.5365   21.1408 O.3     1  UNL1       -0.3501
     18 C           2.0135    4.4447   21.8821 C.3     1  UNL1        0.1637
     19 C           1.6412    3.1755   22.5894 C.3     1  UNL1        0.1258
     20 N           7.6170   -5.5373   24.3206 N.pl3   1  UNL1       -0.2742
     21 C           8.4954   -5.7658   23.1263 C.3     1  UNL1        0.1257
     22 C           9.4240   -6.9432   23.0925 C.3     1  UNL1        0.1637
     23 O           9.4742   -7.8924   24.2530 O.3     1  UNL1       -0.3501
     24 C           8.5958   -7.6640   25.4472 C.3     1  UNL1        0.1637
     25 C           7.6671   -6.4865   25.4810 C.3     1  UNL1        0.1257
     26 C           4.3597   -3.2245   20.6749 C.3     1  UNL1        0.0983
     27 C           3.9109   -4.6409   20.4693 C.3     1  UNL1        0.0261
     28 C           4.2615   -5.0393   19.0663 C.3     1  UNL1        0.0235
     29 C           4.9270   -3.8690   18.4047 C.3     1  UNL1        0.0911
     30 N           4.9877   -2.7474   19.3989 N.pl3   1  UNL1       -0.3051
     31 C           5.5735   -1.3875   19.1592 C.ar    1  UNL1        0.0525
     32 C           4.7102   -0.2820   18.6277 C.ar    1  UNL1        0.0443
     33 C           5.2959    1.0779   18.3879 C.ar    1  UNL1        0.1436
     34 F           4.4325    2.1833   17.8564 F       1  UNL1       -0.2041
     35 C           6.7451    1.3324   18.6798 C.ar    1  UNL1        0.0593
     36 C           7.6084    0.2269   19.2114 C.ar    1  UNL1        0.1436
     37 F           9.0576    0.4813   19.5032 F       1  UNL1       -0.2041
     38 C           7.0226   -1.1330   19.4511 C.ar    1  UNL1        0.0443
@<TRIPOS>BOND
     1    12    13    2
     2    13     1    1
     3     1     2   ar
     4     2     3   ar
     5    26     3    1
     6    26    27    1
     7    27    28    1
     8    28    29    1
     9    29    30    1
    10    30    31    1
    11    31    32   ar
    12    32    33   ar
    13    33    34    1
    14    33    35   ar
    15    35    36   ar
    16    36    37    1
    17    36    38   ar
    18     3     4   ar
    19     4     5   ar
    20     5     6   ar
    21     6    20    1
    22    20    21    1
    23    21    22    1
    24    22    23    1
    25    23    24    1
    26    24    25    1
    27     6     7   ar
    28     7     8   ar
    29     8     9    2
    30     8    10   ar
    31    10    11   ar
    32    13    14   am
    33    14    15    1
    34    15    16    1
    35    16    17    1
    36    17    18    1
    37    18    19    1
    38    11     1   ar
    39    19    14    1
    40    30    26    1
    41    38    31   ar
    42    10     4   ar
    43    25    20    1
@<TRIPOS>MOLECULE
*****
 38 43 0 0 0
SMALL
GASTEIGER

@<TRIPOS>ATOM
      1 C           4.8459    0.0111   35.2436 C.ar    1  UNL1        0.0536
      2 C           3.6466    0.3097   36.0937 C.ar    1  UNL1        0.0049
      3 C           3.8123    1.0359   37.3956 C.ar    1  UNL1        0.0305
      4 C           5.1772    1.4636   37.8475 C.ar    1  UNL1        0.1474
      5 O           5.3429    2.1899   39.1495 O.2     1  UNL1       -0.4400
      6 C           6.7078    2.6176   39.6013 C.ar    1  UNL1        0.2024
      7 C           7.9070    2.3190   38.7511 C.ar    1  UNL1        0.0955
      8 C           7.7413    1.5927   37.4492 C.ar    1  UNL1        0.2030
      9 O           8.9405    1.2941   36.5992 O.2     1  UNL1       -0.2863
     10 C           6.3764    1.1650   36.9974 C.ar    1  UNL1        0.0735
     11 C           6.2107    0.4387   35.6955 C.ar    1  UNL1        0.0107
     12 O           5.4752   -1.9578   33.6696 O.2     1  UNL1       -0.2699
     13 C           4.6802   -0.7153   33.9417 C.2     1  UNL1        0.2492
     14 N           3.7196   -0.1990   32.9118 N.am    1  UNL1       -0.2709
     15 C           2.9245    1.0435   33.1839 C.3     1  UNL1        0.1258
     16 C           1.9639    1.5598   32.1539 C.3     1  UNL1        0.1637
     17 O           1.7983    0.8334   30.8520 O.3     1  UNL1       -0.3501
     18 C           2.5933   -0.4091   30.5800 C.3     1  UNL1        0.1637
     19 C           3.5539   -0.9253   31.6098 C.3     1  UNL1        0.1258
     20 N           6.8734    3.3439   40.9032 N.pl3   1  UNL1       -0.2742
     21 C           5.7215    4.1053   41.4892 C.3     1  UNL1        0.1257
     22 C           5.8871    4.8316   42.7911 C.3     1  UNL1        0.1637
     23 O           7.2048    4.7965   43.5071 O.3     1  UNL1       -0.3501
     24 C           8.3567    4.0351   42.9212 C.3     1  UNL1        0.1637
     25 C           8.1911    3.3088   41.6192 C.3     1  UNL1        0.1257
     26 C           2.6131    1.3346   38.2458 C.3     1  UNL1        0.0983
     27 C           1.9046    0.3636   39.1432 C.3     1  UNL1        0.0261
     28 C           0.7655    1.0856   39.7998 C.3     1  UNL1        0.0235
     29 C           0.7699    2.5028   39.3082 C.3     1  UNL1        0.0911
     30 N           1.9117    2.6566   38.3477 N.pl3   1  UNL1       -0.3051
     31 C           2.2865    3.9121   37.6175 C.ar    1  UNL1        0.0525
     32 C           1.6103    4.2576   36.3239 C.ar    1  UNL1        0.0443
     33 C           1.9850    5.5130   35.5935 C.ar    1  UNL1        0.1436
     34 F           1.3089    5.8584   34.2999 F       1  UNL1       -0.2041
     35 C           3.0360    6.4231   36.1569 C.ar    1  UNL1        0.0593
     36 C           3.7121    6.0777   37.4505 C.ar    1  UNL1        0.1436
     37 F           4.7631    6.9877   38.0139 F       1  UNL1       -0.2041
     38 C           3.3374    4.8222   38.1808 C.ar    1  UNL1        0.0443
@<TRIPOS>BOND
     1    12    13    2
     2    13     1    1
     3     1     2   ar
     4     2     3   ar
     5    26     3    1
     6    26    27    1
     7    27    28    1
     8    28    29    1
     9    29    30    1
    10    30    31    1
    11    31    32   ar
    12    32    33   ar
    13    33    34    1
    14    33    35   ar
    15    35    36   ar
    16    36    37    1
    17    36    38   ar
    18     3     4   ar
    19     4     5   ar
    20     5     6   ar
    21     6    20    1
    22    20    21    1
    23    21    22    1
    24    22    23    1
    25    23    24    1
    26    24    25    1
    27     6     7   ar
    28     7     8   ar
    29     8     9    2
    30     8    10   ar
    31    10    11   ar
    32    13    14   am
    33    14    15    1
    34    15    16    1
    35    16    17    1
    36    17    18    1
    37    18    19    1
    38    11     1   ar
    39    19    14    1
    40    30    26    1
    41    38    31   ar
    42    10     4   ar
    43    25    20    1
@<TRIPOS>MOLECULE
*****
 38 43 0 0 0
SMALL
GASTEIGER

@<TRIPOS>ATOM
      1 C           3.5014   -0.5588   32.2191 C.ar    1  UNL1        0.0536
      2 C           2.7844   -0.4458   30.9065 C.ar    1  UNL1        0.0049
      3 C           1.8895    0.7280   30.6393 C.ar    1  UNL1        0.0305
      4 C           1.7117    1.7888   31.6848 C.ar    1  UNL1        0.1474
      5 O           0.8169    2.9627   31.4175 O.2     1  UNL1       -0.4400
      6 C           0.6390    4.0235   32.4630 C.ar    1  UNL1        0.2024
      7 C           1.3561    3.9105   33.7757 C.ar    1  UNL1        0.0955
      8 C           2.2509    2.7367   34.0429 C.ar    1  UNL1        0.2030
      9 O           2.9679    2.6237   35.3555 O.2     1  UNL1       -0.2863
     10 C           2.4287    1.6758   32.9974 C.ar    1  UNL1        0.0735
     11 C           3.3235    0.5020   33.2646 C.ar    1  UNL1        0.0107
     12 O           3.9492   -2.8196   33.4184 O.2     1  UNL1       -0.2699
     13 C           4.3962   -1.7327   32.4863 C.2     1  UNL1        0.2492
     14 N           5.7380   -1.8195   31.8215 N.am    1  UNL1       -0.2709
     15 C           6.1850   -0.7326   30.8894 C.3     1  UNL1        0.1258
     16 C           7.5268   -0.8195   30.2246 C.3     1  UNL1        0.1637
     17 O           8.4216   -1.9933   30.4918 O.3     1  UNL1       -0.3501
     18 C           7.9746   -3.0803   31.4239 C.3     1  UNL1        0.1637
     19 C           6.6329   -2.9934   32.0887 C.3     1  UNL1        0.1258
     20 N          -0.2558    5.1973   32.1958 N.pl3   1  UNL1       -0.2742
     21 C          -1.1586    5.7135   33.2768 C.3     1  UNL1        0.1257
     22 C          -2.0534    6.8874   33.0096 C.3     1  UNL1        0.1637
     23 O          -2.0455    7.5450   31.6615 O.3     1  UNL1       -0.3501
     24 C          -1.1427    7.0288   30.5806 C.3     1  UNL1        0.1637
     25 C          -0.2478    5.8550   30.8477 C.3     1  UNL1        0.1257
     26 C           1.1725    0.8410   29.3266 C.3     1  UNL1        0.0983
     27 C          -0.3015    0.6677   29.1093 C.3     1  UNL1        0.0261
     28 C          -0.5814    0.8668   27.6491 C.3     1  UNL1        0.0235
     29 C           0.7197    1.1632   26.9640 C.3     1  UNL1        0.0911
     30 N           1.8036    1.1473   28.0007 N.pl3   1  UNL1       -0.3051
     31 C           3.2626    1.3942   27.7547 C.ar    1  UNL1        0.0525
     32 C           3.8042    2.7924   27.7977 C.ar    1  UNL1        0.0443
     33 C           5.2632    3.0395   27.5517 C.ar    1  UNL1        0.1436
     34 F           5.8048    4.4375   27.5947 F       1  UNL1       -0.2041
     35 C           6.1805    1.8882   27.2628 C.ar    1  UNL1        0.0593
     36 C           5.6388    0.4901   27.2198 C.ar    1  UNL1        0.1436
     37 F           6.5560   -0.6610   26.9309 F       1  UNL1       -0.2041
     38 C           4.1799    0.2432   27.4658 C.ar    1  UNL1        0.0443
@<TRIPOS>BOND
     1    12    13    2
     2    13     1    1
     3     1     2   ar
     4     2     3   ar
     5    26     3    1
     6    26    27    1
     7    27    28    1
     8    28    29    1
     9    29    30    1
    10    30    31    1
    11    31    32   ar
    12    32    33   ar
    13    33    34    1
    14    33    35   ar
    15    35    36   ar
    16    36    37    1
    17    36    38   ar
    18     3     4   ar
    19     4     5   ar
    20     5     6   ar
    21     6    20    1
    22    20    21    1
    23    21    22    1
    24    22    23    1
    25    23    24    1
    26    24    25    1
    27     6     7   ar
    28     7     8   ar
    29     8     9    2
    30     8    10   ar
    31    10    11   ar
    32    13    14   am
    33    14    15    1
    34    15    16    1
    35    16    17    1
    36    17    18    1
    37    18    19    1
    38    11     1   ar
    39    19    14    1
    40    30    26    1
    41    38    31   ar
    42    10     4   ar
    43    25    20    1
@<TRIPOS>MOLECULE
*****
 38 43 0 0 0
SMALL
GASTEIGER

@<TRIPOS>ATOM
      1 C           5.9755   -1.7696   32.2129 C.ar    1  UNL1        0.0536
      2 C           5.9787   -0.8822   31.0036 C.ar    1  UNL1        0.0049
      3 C           6.2493   -1.4634   29.6476 C.ar    1  UNL1        0.0305
      4 C           6.5166   -2.9321   29.5008 C.ar    1  UNL1        0.1474
      5 O           6.7872   -3.5134   28.1447 O.2     1  UNL1       -0.4400
      6 C           7.0545   -4.9821   27.9980 C.ar    1  UNL1        0.2024
      7 C           7.0512   -5.8695   29.2074 C.ar    1  UNL1        0.0955
      8 C           6.7807   -5.2882   30.5634 C.ar    1  UNL1        0.2030
      9 O           6.7774   -6.1756   31.7727 O.2     1  UNL1       -0.2863
     10 C           6.5134   -3.8195   30.7101 C.ar    1  UNL1        0.0735
     11 C           6.2428   -3.2382   32.0662 C.ar    1  UNL1        0.0107
     12 O           4.3074   -1.1749   34.1140 O.2     1  UNL1       -0.2699
     13 C           5.7049   -1.1883   33.5690 C.2     1  UNL1        0.2492
     14 N           6.8317   -0.6205   34.3801 N.am    1  UNL1       -0.2709
     15 C           8.2291   -0.6339   33.8351 C.3     1  UNL1        0.1258
     16 C           9.3559   -0.0661   34.6462 C.3     1  UNL1        0.1637
     17 O           9.0853    0.5152   36.0023 O.3     1  UNL1       -0.3501
     18 C           7.6879    0.5286   36.5472 C.3     1  UNL1        0.1637
     19 C           6.5611   -0.0392   35.7362 C.3     1  UNL1        0.1258
     20 N           7.3251   -5.5633   26.6420 N.pl3   1  UNL1       -0.2742
     21 C           7.6298   -7.0252   26.4998 C.3     1  UNL1        0.1257
     22 C           7.9004   -7.6065   25.1437 C.3     1  UNL1        0.1637
     23 O           7.8663   -6.7260   23.9298 O.3     1  UNL1       -0.3501
     24 C           7.5616   -5.2642   24.0720 C.3     1  UNL1        0.1637
     25 C           7.2910   -4.6828   25.4281 C.3     1  UNL1        0.1257
     26 C           6.2526   -0.5760   28.4382 C.3     1  UNL1        0.0983
     27 C           7.3514   -0.4744   27.4221 C.3     1  UNL1        0.0261
     28 C           6.9355    0.5300   26.3886 C.3     1  UNL1        0.0235
     29 C           5.5796    1.0491   26.7658 C.3     1  UNL1        0.0911
     30 N           5.1576    0.3655   28.0325 N.pl3   1  UNL1       -0.3051
     31 C           3.8672    0.5850   28.7650 C.ar    1  UNL1        0.0525
     32 C           3.7932    1.6009   29.8661 C.ar    1  UNL1        0.0443
     33 C           2.5028    1.8205   30.5987 C.ar    1  UNL1        0.1436
     34 F           2.4288    2.8364   31.6997 F       1  UNL1       -0.2041
     35 C           1.2862    1.0240   30.2300 C.ar    1  UNL1        0.0593
     36 C           1.3602    0.0081   29.1289 C.ar    1  UNL1        0.1436
     37 F           0.1438   -0.7883   28.7603 F       1  UNL1       -0.2041
     38 C           2.6507   -0.2114   28.3964 C.ar    1  UNL1        0.0443
@<TRIPOS>BOND
     1    12    13    2
     2    13     1    1
     3     1     2   ar
     4     2     3   ar
     5    26     3    1
     6    26    27    1
     7    27    28    1
     8    28    29    1
     9    29    30    1
    10    30    31    1
    11    31    32   ar
    12    32    33   ar
    13    33    34    1
    14    33    35   ar
    15    35    36   ar
    16    36    37    1
    17    36    38   ar
    18     3     4   ar
    19     4     5   ar
    20     5     6   ar
    21     6    20    1
    22    20    21    1
    23    21    22    1
    24    22    23    1
    25    23    24    1
    26    24    25    1
    27     6     7   ar
    28     7     8   ar
    29     8     9    2
    30     8    10   ar
    31    10    11   ar
    32    13    14   am
    33    14    15    1
    34    15    16    1
    35    16    17    1
    36    17    18    1
    37    18    19    1
    38    11     1   ar
    39    19    14    1
    40    30    26    1
    41    38    31   ar
    42    10     4   ar
    43    25    20    1
@<TRIPOS>MOLECULE
*****
 38 43 0 0 0
SMALL
GASTEIGER

@<TRIPOS>ATOM
      1 C           4.4364    0.2045   23.7607 C.ar    1  UNL1        0.0536
      2 C           4.9740    0.4184   22.3768 C.ar    1  UNL1        0.0049
      3 C           4.0920    0.9978   21.3109 C.ar    1  UNL1        0.0305
      4 C           2.6724    1.3633   21.6288 C.ar    1  UNL1        0.1474
      5 O           1.7904    1.9428   20.5627 O.2     1  UNL1       -0.4400
      6 C           0.3708    2.3083   20.8807 C.ar    1  UNL1        0.2024
      7 C          -0.1668    2.0944   22.2646 C.ar    1  UNL1        0.0955
      8 C           0.7152    1.5150   23.3306 C.ar    1  UNL1        0.2030
      9 O           0.1775    1.3011   24.7145 O.2     1  UNL1       -0.2863
     10 C           2.1348    1.1495   23.0127 C.ar    1  UNL1        0.0735
     11 C           3.0168    0.5700   24.0786 C.ar    1  UNL1        0.0107
     12 O           5.7506    0.4737   25.9857 O.2     1  UNL1       -0.2699
     13 C           5.3184   -0.3749   24.8268 C.2     1  UNL1        0.2492
     14 N           5.7682   -1.8028   24.7338 N.am    1  UNL1       -0.2709
     15 C           5.3361   -2.6514   23.5749 C.3     1  UNL1        0.1258
     16 C           5.7859   -4.0794   23.4820 C.3     1  UNL1        0.1637
     17 O           6.6679   -4.6587   24.5480 O.3     1  UNL1       -0.3501
     18 C           7.1000   -3.8102   25.7070 C.3     1  UNL1        0.1637
     19 C           6.6502   -2.3822   25.7999 C.3     1  UNL1        0.1258
     20 N          -0.5112    2.8877   19.8147 N.pl3   1  UNL1       -0.2742
     21 C          -0.0072    3.0066   18.4069 C.3     1  UNL1        0.1257
     22 C          -0.8892    3.5860   17.3409 C.3     1  UNL1        0.1637
     23 O          -2.2752    4.0465   17.6827 O.3     1  UNL1       -0.3501
     24 C          -2.7793    3.9276   19.0904 C.3     1  UNL1        0.1637
     25 C          -1.8973    3.3482   20.1565 C.3     1  UNL1        0.1257
     26 C           4.6296    1.2117   19.9269 C.3     1  UNL1        0.0983
     27 C           4.8459    2.5379   19.2602 C.3     1  UNL1        0.0261
     28 C           5.3953    2.2828   17.8880 C.3     1  UNL1        0.0235
     29 C           5.5186    0.7989   17.7065 C.3     1  UNL1        0.0911
     30 N           5.0454    0.1370   18.9667 N.pl3   1  UNL1       -0.3051
     31 C           4.9965   -1.3404   19.2218 C.ar    1  UNL1        0.0525
     32 C           6.2156   -2.0554   19.7243 C.ar    1  UNL1        0.0443
     33 C           6.1669   -3.5328   19.9795 C.ar    1  UNL1        0.1436
     34 F           7.3859   -4.2478   20.4820 F       1  UNL1       -0.2041
     35 C           4.8989   -4.2951   19.7320 C.ar    1  UNL1        0.0593
     36 C           3.6798   -3.5801   19.2294 C.ar    1  UNL1        0.1436
     37 F           2.4119   -4.3423   18.9820 F       1  UNL1       -0.2041
     38 C           3.7287   -2.1027   18.9743 C.ar    1  UNL1        0.0443
@<TRIPOS>BOND
     1    12    13    2
     2    13     1    1
     3     1     2   ar
     4     2     3   ar
     5    26     3    1
     6    26    27    1
     7    27    28    1
     8    28    29    1
     9    29    30    1
    10    30    31    1
    11    31    32   ar
    12    32    33   ar
    13    33    34    1
    14    33    35   ar
    15    35    36   ar
    16    36    37    1
    17    36    38   ar
    18     3     4   ar
    19     4     5   ar
    20     5     6   ar
    21     6    20    1
    22    20    21    1
    23    21    22    1
    24    22    23    1
    25    23    24    1
    26    24    25    1
    27     6     7   ar
    28     7     8   ar
    29     8     9    2
    30     8    10   ar
    31    10    11   ar
    32    13    14   am
    33    14    15    1
    34    15    16    1
    35    16    17    1
    36    17    18    1
    37    18    19    1
    38    11     1   ar
    39    19    14    1
    40    30    26    1
    41    38    31   ar
    42    10     4   ar
    43    25    20    1
@<TRIPOS>MOLECULE
*****
 38 43 0 0 0
SMALL
GASTEIGER

@<TRIPOS>ATOM
      1 C          -2.4224    3.7758   26.5674 C.ar    1  UNL1        0.0536
      2 C          -1.2646    4.4617   25.9049 C.ar    1  UNL1        0.0049
      3 C           0.1144    3.8822   26.0169 C.ar    1  UNL1        0.0305
      4 C           0.3356    2.6168   26.7915 C.ar    1  UNL1        0.1474
      5 O           1.7146    2.0373   26.9035 O.2     1  UNL1       -0.4400
      6 C           1.9358    0.7720   27.6780 C.ar    1  UNL1        0.2024
      7 C           0.7779    0.0861   28.3406 C.ar    1  UNL1        0.0955
      8 C          -0.6011    0.6655   28.2285 C.ar    1  UNL1        0.2030
      9 O          -1.7589   -0.0203   28.8911 O.2     1  UNL1       -0.2863
     10 C          -0.8223    1.9309   27.4540 C.ar    1  UNL1        0.0735
     11 C          -2.2012    2.5104   27.3420 C.ar    1  UNL1        0.0107
     12 O          -4.3750    5.1511   27.5903 O.2     1  UNL1       -0.2699
     13 C          -3.8014    4.3553   26.4555 C.2     1  UNL1        0.2492
     14 N          -4.6069    4.1389   25.2087 N.am    1  UNL1       -0.2709
     15 C          -4.0334    3.3431   24.0739 C.3     1  UNL1        0.1258
     16 C          -4.8389    3.1268   22.8271 C.3     1  UNL1        0.1637
     17 O          -6.2179    3.7063   22.7152 O.3     1  UNL1       -0.3501
     18 C          -6.7914    4.5021   23.8500 C.3     1  UNL1        0.1637
     19 C          -5.9860    4.7184   25.0967 C.3     1  UNL1        0.1258
     20 N           3.3147    0.1925   27.7900 N.pl3   1  UNL1       -0.2742
     21 C           3.5510   -1.2510   27.4573 C.3     1  UNL1        0.1257
     22 C           4.9300   -1.8305   27.5693 C.3     1  UNL1        0.1637
     23 O           6.0727   -0.9666   28.0140 O.3     1  UNL1       -0.3501
     24 C           5.8365    0.4768   28.3468 C.3     1  UNL1        0.1637
     25 C           4.4575    1.0564   28.2348 C.3     1  UNL1        0.1257
     26 C           1.2723    4.5681   25.3544 C.3     1  UNL1        0.0983
     27 C           2.0280    5.7447   25.8970 C.3     1  UNL1        0.0261
     28 C           3.1005    6.1015   24.9109 C.3     1  UNL1        0.0235
     29 C           3.0076    5.1454   23.7587 C.3     1  UNL1        0.0911
     30 N           1.8777    4.1977   24.0329 N.pl3   1  UNL1       -0.3051
     31 C           1.4316    3.0765   23.1419 C.ar    1  UNL1        0.0525
     32 C           0.2715    3.2738   22.2118 C.ar    1  UNL1        0.0443
     33 C          -0.1748    2.1527   21.3208 C.ar    1  UNL1        0.1436
     34 F          -1.3348    2.3501   20.3907 F       1  UNL1       -0.2041
     35 C           0.5392    0.8340   21.3600 C.ar    1  UNL1        0.0593
     36 C           1.6993    0.6367   22.2902 C.ar    1  UNL1        0.1436
     37 F           2.4133   -0.6819   22.3294 F       1  UNL1       -0.2041
     38 C           2.1455    1.7579   23.1811 C.ar    1  UNL1        0.0443
@<TRIPOS>BOND
     1    12    13    2
     2    13     1    1
     3     1     2   ar
     4     2     3   ar
     5    26     3    1
     6    26    27    1
     7    27    28    1
     8    28    29    1
     9    29    30    1
    10    30    31    1
    11    31    32   ar
    12    32    33   ar
    13    33    34    1
    14    33    35   ar
    15    35    36   ar
    16    36    37    1
    17    36    38   ar
    18     3     4   ar
    19     4     5   ar
    20     5     6   ar
    21     6    20    1
    22    20    21    1
    23    21    22    1
    24    22    23    1
    25    23    24    1
    26    24    25    1
    27     6     7   ar
    28     7     8   ar
    29     8     9    2
    30     8    10   ar
    31    10    11   ar
    32    13    14   am
    33    14    15    1
    34    15    16    1
    35    16    17    1
    36    17    18    1
    37    18    19    1
    38    11     1   ar
    39    19    14    1
    40    30    26    1
    41    38    31   ar
    42    10     4   ar
    43    25    20    1
@<TRIPOS>MOLECULE
*****
 38 43 0 0 0
SMALL
GASTEIGER

@<TRIPOS>ATOM
      1 C           1.5962    0.6039   21.8808 C.ar    1  UNL1        0.0536
      2 C           2.6198   -0.4440   21.5583 C.ar    1  UNL1        0.0049
      3 C           3.4481   -1.0457   22.6546 C.ar    1  UNL1        0.0305
      4 C           3.2527   -0.5995   24.0733 C.ar    1  UNL1        0.1474
      5 O           4.0811   -1.2012   25.1696 O.2     1  UNL1       -0.4400
      6 C           3.8858   -0.7550   26.5883 C.ar    1  UNL1        0.2024
      7 C           2.8621    0.2930   26.9107 C.ar    1  UNL1        0.0955
      8 C           2.0338    0.8947   25.8145 C.ar    1  UNL1        0.2030
      9 O           1.0101    1.9426   26.1369 O.2     1  UNL1       -0.2863
     10 C           2.2291    0.4484   24.3958 C.ar    1  UNL1        0.0735
     11 C           1.4008    1.0501   23.2995 C.ar    1  UNL1        0.0107
     12 O          -0.6065    0.6736   20.5047 O.2     1  UNL1       -0.2699
     13 C           0.7678    1.2056   20.7845 C.2     1  UNL1        0.2492
     14 N           1.3137    2.3394   19.9680 N.am    1  UNL1       -0.2709
     15 C           2.6880    2.8714   20.2478 C.3     1  UNL1        0.1258
     16 C           3.2339    4.0052   19.4313 C.3     1  UNL1        0.1637
     17 O           2.4056    4.6068   18.3351 O.3     1  UNL1       -0.3501
     18 C           1.0313    4.0748   18.0553 C.3     1  UNL1        0.1637
     19 C           0.4854    2.9411   18.8717 C.3     1  UNL1        0.1258
     20 N           4.7140   -1.3567   27.6846 N.pl3   1  UNL1       -0.2742
     21 C           5.6605   -2.4798   27.3794 C.3     1  UNL1        0.1257
     22 C           6.4888   -3.0814   28.4756 C.3     1  UNL1        0.1637
     23 O           6.3707   -2.5601   29.8772 O.3     1  UNL1       -0.3501
     24 C           5.4243   -1.4371   30.1824 C.3     1  UNL1        0.1637
     25 C           4.5960   -0.8354   29.0861 C.3     1  UNL1        0.1257
     26 C           4.4718   -2.0937   22.3322 C.3     1  UNL1        0.0983
     27 C           4.8453   -3.2581   23.2009 C.3     1  UNL1        0.0261
     28 C           5.9060   -4.0452   22.4901 C.3     1  UNL1        0.0235
     29 C           6.1881   -3.3673   21.1820 C.3     1  UNL1        0.0911
     30 N           5.3017   -2.1612   21.0845 N.pl3   1  UNL1       -0.3051
     31 C           5.2536   -1.1926   19.9402 C.ar    1  UNL1        0.0525
     32 C           5.9304    0.1410   20.0574 C.ar    1  UNL1        0.0443
     33 C           5.8824    1.1096   18.9131 C.ar    1  UNL1        0.1436
     34 F           6.5591    2.4431   19.0303 F       1  UNL1       -0.2041
     35 C           5.1575    0.7447   17.6515 C.ar    1  UNL1        0.0593
     36 C           4.4808   -0.5888   17.5343 C.ar    1  UNL1        0.1436
     37 F           3.7560   -0.9538   16.2728 F       1  UNL1       -0.2041
     38 C           4.5288   -1.5574   18.6786 C.ar    1  UNL1        0.0443
@<TRIPOS>BOND
     1    12    13    2
     2    13     1    1
     3     1     2   ar
     4     2     3   ar
     5    26     3    1
     6    26    27    1
     7    27    28    1
     8    28    29    1
     9    29    30    1
    10    30    31    1
    11    31    32   ar
    12    32    33   ar
    13    33    34    1
    14    33    35   ar
    15    35    36   ar
    16    36    37    1
    17    36    38   ar
    18     3     4   ar
    19     4     5   ar
    20     5     6   ar
    21     6    20    1
    22    20    21    1
    23    21    22    1
    24    22    23    1
    25    23    24    1
    26    24    25    1
    27     6     7   ar
    28     7     8   ar
    29     8     9    2
    30     8    10   ar
    31    10    11   ar
    32    13    14   am
    33    14    15    1
    34    15    16    1
    35    16    17    1
    36    17    18    1
    37    18    19    1
    38    11     1   ar
    39    19    14    1
    40    30    26    1
    41    38    31   ar
    42    10     4   ar
    43    25    20    1
@<TRIPOS>MOLECULE
*****
 38 43 0 0 0
SMALL
GASTEIGER

@<TRIPOS>ATOM
      1 C           1.2267    0.6723   29.7842 C.ar    1  UNL1        0.0536
      2 C           2.3096   -0.3317   30.0471 C.ar    1  UNL1        0.0049
      3 C           3.0979   -0.2681   31.3217 C.ar    1  UNL1        0.0305
      4 C           2.8033    0.7996   32.3332 C.ar    1  UNL1        0.1474
      5 O           3.5917    0.8632   33.6078 O.2     1  UNL1       -0.4400
      6 C           3.2971    1.9308   34.6194 C.ar    1  UNL1        0.2024
      7 C           2.2141    2.9349   34.3564 C.ar    1  UNL1        0.0955
      8 C           1.4257    2.8712   33.0819 C.ar    1  UNL1        0.2030
      9 O           0.3428    3.8752   32.8190 O.2     1  UNL1       -0.2863
     10 C           1.7204    1.8036   32.0703 C.ar    1  UNL1        0.0735
     11 C           0.9321    1.7399   30.7958 C.ar    1  UNL1        0.0107
     12 O          -0.8651   -0.1327   28.4702 O.2     1  UNL1       -0.2699
     13 C           0.4383    0.6086   28.5096 C.2     1  UNL1        0.2492
     14 N           0.9533    1.2864   27.2746 N.am    1  UNL1       -0.2709
     15 C           2.2567    2.0277   27.3140 C.3     1  UNL1        0.1258
     16 C           2.7717    2.7054   26.0788 C.3     1  UNL1        0.1637
     17 O           1.9833    2.6418   24.8044 O.3     1  UNL1       -0.3501
     18 C           0.6799    1.9004   24.7649 C.3     1  UNL1        0.1637
     19 C           0.1649    1.2227   26.0000 C.3     1  UNL1        0.1258
     20 N           4.0854    1.9945   35.8939 N.pl3   1  UNL1       -0.2742
     21 C           5.5230    2.4220   35.8661 C.3     1  UNL1        0.1257
     22 C           6.3113    2.4856   37.1407 C.3     1  UNL1        0.1637
     23 O           5.6621    2.1218   38.4430 O.3     1  UNL1       -0.3501
     24 C           4.2246    1.6943   38.4709 C.3     1  UNL1        0.1637
     25 C           3.4362    1.6307   37.1963 C.3     1  UNL1        0.1257
     26 C           4.1810   -1.2721   31.5846 C.3     1  UNL1        0.0983
     27 C           4.3417   -2.0892   32.8322 C.3     1  UNL1        0.0261
     28 C           5.5534   -2.9573   32.6648 C.3     1  UNL1        0.0235
     29 C           6.1416   -2.6768   31.3137 C.3     1  UNL1        0.0911
     30 N           5.2933   -1.6353   30.6461 N.pl3   1  UNL1       -0.3051
     31 C           5.5180   -1.0583   29.2799 C.ar    1  UNL1        0.0525
     32 C           5.2773   -1.8996   28.0616 C.ar    1  UNL1        0.0443
     33 C           5.5019   -1.3227   26.6953 C.ar    1  UNL1        0.1436
     34 F           5.2612   -2.1639   25.4771 F       1  UNL1       -0.2041
     35 C           5.9673    0.0957   26.5474 C.ar    1  UNL1        0.0593
     36 C           6.2080    0.9370   27.7657 C.ar    1  UNL1        0.1436
     37 F           6.6733    2.3552   27.6178 F       1  UNL1       -0.2041
     38 C           5.9833    0.3599   29.1319 C.ar    1  UNL1        0.0443
@<TRIPOS>BOND
     1    12    13    2
     2    13     1    1
     3     1     2   ar
     4     2     3   ar
     5    26     3    1
     6    26    27    1
     7    27    28    1
     8    28    29    1
     9    29    30    1
    10    30    31    1
    11    31    32   ar
    12    32    33   ar
    13    33    34    1
    14    33    35   ar
    15    35    36   ar
    16    36    37    1
    17    36    38   ar
    18     3     4   ar
    19     4     5   ar
    20     5     6   ar
    21     6    20    1
    22    20    21    1
    23    21    22    1
    24    22    23    1
    25    23    24    1
    26    24    25    1
    27     6     7   ar
    28     7     8   ar
    29     8     9    2
    30     8    10   ar
    31    10    11   ar
    32    13    14   am
    33    14    15    1
    34    15    16    1
    35    16    17    1
    36    17    18    1
    37    18    19    1
    38    11     1   ar
    39    19    14    1
    40    30    26    1
    41    38    31   ar
    42    10     4   ar
    43    25    20    1
