@<TRIPOS>MOLECULE
*****
 21 23 0 0 0
SMALL
GASTEIGER

@<TRIPOS>ATOM
      1 C          -8.7800  -18.5776   20.9681 C.2     1  UNL1       -0.0245
      2 C          -8.0156  -19.7625   20.4567 C.3     1  UNL1        0.1323
      3 C          -6.5919  -19.9753   20.8781 C.2     1  UNL1        0.3267
      4 O          -5.8274  -21.1603   20.3667 O.2     1  UNL1       -0.2493
      5 O          -5.9325  -19.0031   21.8108 O.3     1  UNL1       -0.4077
      6 C          -6.6969  -17.8181   22.3222 C.2     1  UNL1        0.2295
      7 N          -6.0375  -16.8459   23.2550 N.am    1  UNL1       -0.1269
      8 C          -6.8019  -15.6610   23.7664 C.2     1  UNL1        0.3327
      9 O          -6.1425  -14.6888   24.6991 O.2     1  UNL1       -0.2501
     10 N          -8.2258  -15.4482   23.3450 N.am    1  UNL1       -0.2343
     11 C          -8.8851  -16.4204   22.4123 C.2     1  UNL1        0.2564
     12 O         -10.3089  -16.2077   21.9909 O.2     1  UNL1       -0.2696
     13 C          -8.1207  -17.6054   21.9009 C.2     1  UNL1        0.0976
     14 H          -8.7275  -14.6705   23.6807 H       1  UNL1        0.1595
     15 C         -10.2039  -18.3648   20.5467 C.3     1  UNL1        0.0229
     16 C         -11.3011  -19.1692   21.1784 C.3     1  UNL1        0.0044
     17 C         -10.9853  -20.1263   22.2893 C.3     1  UNL1        0.0003
     18 C         -11.8868  -18.6494   23.8017 C.3     1  UNL1        0.0000
     19 C         -10.7423  -19.6110   23.6769 C.3     1  UNL1        0.0000
     20 C         -10.1020  -19.4297   25.0211 C.3     1  UNL1        0.0000
     21 C          -9.5136  -20.3937   24.0340 C.3     1  UNL1        0.0000
@<TRIPOS>BOND
     1    18    19    1
     2    19    17    1
     3    17    16    1
     4    16    15    1
     5    15     1    1
     6     1     2    1
     7     2     3    1
     8     3     4    2
     9     3     5    1
    10     5     6    1
    11     6     7    2
    12     7     8    1
    13     8     9    2
    14     8    10   am
    15    10    11   am
    16    11    12    2
    17    11    13    1
    18    19    20    1
    19    20    21    1
    20    21    19    1
    21    13     1    2
    22    13     6    1
    23    10    14    1
@<TRIPOS>MOLECULE
*****
 21 23 0 0 0
SMALL
GASTEIGER

@<TRIPOS>ATOM
      1 C          -7.2724  -18.0885   22.2308 C.2     1  UNL1       -0.0245
      2 C          -7.5094  -16.8745   23.0793 C.3     1  UNL1        0.1323
      3 C          -6.3511  -16.1716   23.7229 C.2     1  UNL1        0.3267
      4 O          -6.5881  -14.9575   24.5714 O.2     1  UNL1       -0.2493
      5 O          -4.9558  -16.6827   23.5181 O.3     1  UNL1       -0.4077
      6 C          -4.7188  -17.8968   22.6696 C.2     1  UNL1        0.2295
      7 N          -3.3236  -18.4079   22.4648 N.am    1  UNL1       -0.1269
      8 C          -3.0866  -19.6219   21.6163 C.2     1  UNL1        0.3327
      9 O          -1.6913  -20.1330   21.4115 O.2     1  UNL1       -0.2501
     10 N          -4.2449  -20.3249   20.9726 N.am    1  UNL1       -0.2343
     11 C          -5.6401  -19.8137   21.1774 C.2     1  UNL1        0.2564
     12 O          -6.7984  -20.5166   20.5338 O.2     1  UNL1       -0.2696
     13 C          -5.8771  -18.5996   22.0260 C.2     1  UNL1        0.0976
     14 H          -4.0893  -21.1217   20.4157 H       1  UNL1        0.1595
     15 C          -8.4307  -18.7915   21.5871 C.3     1  UNL1        0.0229
     16 C          -9.4502  -19.4903   22.4370 C.3     1  UNL1        0.0044
     17 C         -10.9040  -19.4199   22.0747 C.3     1  UNL1        0.0003
     18 C         -11.3663  -18.7632   24.2280 C.3     1  UNL1        0.0000
     19 C         -11.8196  -18.4971   22.8231 C.3     1  UNL1        0.0000
     20 C         -12.8926  -17.4818   23.0836 C.3     1  UNL1        0.0000
     21 C         -12.5909  -17.9104   21.6782 C.3     1  UNL1        0.0000
@<TRIPOS>BOND
     1    18    19    1
     2    19    17    1
     3    17    16    1
     4    16    15    1
     5    15     1    1
     6     1     2    1
     7     2     3    1
     8     3     4    2
     9     3     5    1
    10     5     6    1
    11     6     7    2
    12     7     8    1
    13     8     9    2
    14     8    10   am
    15    10    11   am
    16    11    12    2
    17    11    13    1
    18    19    20    1
    19    20    21    1
    20    21    19    1
    21    13     1    2
    22    13     6    1
    23    10    14    1
@<TRIPOS>MOLECULE
*****
 21 23 0 0 0
SMALL
GASTEIGER

@<TRIPOS>ATOM
      1 C         -10.1637  -17.5937   22.1915 C.2     1  UNL1       -0.0245
      2 C         -10.4260  -16.9036   20.8858 C.3     1  UNL1        0.1323
      3 C         -11.8279  -16.5340   20.5012 C.2     1  UNL1        0.3267
      4 O         -12.0902  -15.8438   19.1955 O.2     1  UNL1       -0.2493
      5 O         -12.9676  -16.8546   21.4223 O.3     1  UNL1       -0.4077
      6 C         -12.7053  -17.5447   22.7280 C.2     1  UNL1        0.2295
      7 N         -13.8450  -17.8653   23.6491 N.am    1  UNL1       -0.1269
      8 C         -13.5827  -18.5555   24.9548 C.2     1  UNL1        0.3327
      9 O         -14.7224  -18.8760   25.8759 O.2     1  UNL1       -0.2501
     10 N         -12.1807  -18.9251   25.3394 N.am    1  UNL1       -0.2343
     11 C         -11.0411  -18.6045   24.4184 C.2     1  UNL1        0.2564
     12 O          -9.6391  -18.9741   24.8030 O.2     1  UNL1       -0.2696
     13 C         -11.3034  -17.9143   23.1126 C.2     1  UNL1        0.0976
     14 H         -12.0086  -19.3781   26.1964 H       1  UNL1        0.1595
     15 C          -8.7617  -17.9634   22.5762 C.3     1  UNL1        0.0229
     16 C          -7.7581  -18.3046   21.5150 C.3     1  UNL1        0.0044
     17 C          -7.2567  -19.7120   21.3816 C.3     1  UNL1        0.0003
     18 C          -5.1646  -18.8868   21.8542 C.3     1  UNL1        0.0000
     19 C          -5.8177  -19.9666   21.0435 C.3     1  UNL1        0.0000
     20 C          -4.6055  -20.5963   20.4238 C.3     1  UNL1        0.0000
     21 C          -5.9710  -21.1350   20.1153 C.3     1  UNL1        0.0000
@<TRIPOS>BOND
     1    18    19    1
     2    19    17    1
     3    17    16    1
     4    16    15    1
     5    15     1    1
     6     1     2    1
     7     2     3    1
     8     3     4    2
     9     3     5    1
    10     5     6    1
    11     6     7    2
    12     7     8    1
    13     8     9    2
    14     8    10   am
    15    10    11   am
    16    11    12    2
    17    11    13    1
    18    19    20    1
    19    20    21    1
    20    21    19    1
    21    13     1    2
    22    13     6    1
    23    10    14    1
@<TRIPOS>MOLECULE
*****
 21 23 0 0 0
SMALL
GASTEIGER

@<TRIPOS>ATOM
      1 C          -7.4934  -18.0806   21.9368 C.2     1  UNL1       -0.0245
      2 C          -8.5995  -18.5760   21.0530 C.3     1  UNL1        0.1323
      3 C          -8.3190  -19.6227   20.0159 C.2     1  UNL1        0.3267
      4 O          -9.4250  -20.1182   19.1320 O.2     1  UNL1       -0.2493
      5 O          -6.9324  -20.1740   19.8626 O.3     1  UNL1       -0.4077
      6 C          -5.8264  -19.6786   20.7464 C.2     1  UNL1        0.2295
      7 N          -4.4398  -20.2299   20.5932 N.am    1  UNL1       -0.1269
      8 C          -3.3337  -19.7345   21.4770 C.2     1  UNL1        0.3327
      9 O          -1.9472  -20.2858   21.3237 O.2     1  UNL1       -0.2501
     10 N          -3.6142  -18.6878   22.5142 N.am    1  UNL1       -0.2343
     11 C          -5.0008  -18.1365   22.6674 C.2     1  UNL1        0.2564
     12 O          -5.2813  -17.0897   23.7046 O.2     1  UNL1       -0.2696
     13 C          -6.1069  -18.6319   21.7835 C.2     1  UNL1        0.0976
     14 H          -2.8883  -18.3626   23.0943 H       1  UNL1        0.1595
     15 C          -7.7739  -17.0338   22.9740 C.3     1  UNL1        0.0229
     16 C          -8.9449  -17.1889   23.8985 C.3     1  UNL1        0.0044
     17 C         -10.2467  -16.5155   23.5796 C.3     1  UNL1        0.0003
     18 C         -11.1030  -18.6114   23.9735 C.3     1  UNL1        0.0000
     19 C         -11.4596  -17.3393   23.2631 C.3     1  UNL1        0.0000
     20 C         -12.7962  -17.7214   22.6999 C.3     1  UNL1        0.0000
     21 C         -12.2374  -16.3534   22.4428 C.3     1  UNL1        0.0000
@<TRIPOS>BOND
     1    18    19    1
     2    19    17    1
     3    17    16    1
     4    16    15    1
     5    15     1    1
     6     1     2    1
     7     2     3    1
     8     3     4    2
     9     3     5    1
    10     5     6    1
    11     6     7    2
    12     7     8    1
    13     8     9    2
    14     8    10   am
    15    10    11   am
    16    11    12    2
    17    11    13    1
    18    19    20    1
    19    20    21    1
    20    21    19    1
    21    13     1    2
    22    13     6    1
    23    10    14    1
@<TRIPOS>MOLECULE
*****
 21 23 0 0 0
SMALL
GASTEIGER

@<TRIPOS>ATOM
      1 C          -7.7833  -18.7291   21.2644 C.2     1  UNL1       -0.0245
      2 C          -7.7936  -19.6550   20.0843 C.3     1  UNL1        0.1323
      3 C          -9.0293  -19.7854   19.2441 C.2     1  UNL1        0.3267
      4 O          -9.0396  -20.7113   18.0640 O.2     1  UNL1       -0.2493
      5 O         -10.2547  -18.9898   19.5839 O.3     1  UNL1       -0.4077
      6 C         -10.2444  -18.0639   20.7639 C.2     1  UNL1        0.2295
      7 N         -11.4698  -17.2683   21.1038 N.am    1  UNL1       -0.1269
      8 C         -11.4595  -16.3424   22.2838 C.2     1  UNL1        0.3327
      9 O         -12.6849  -15.5468   22.6236 O.2     1  UNL1       -0.2501
     10 N         -10.2237  -16.2120   23.1241 N.am    1  UNL1       -0.2343
     11 C          -8.9983  -17.0076   22.7843 C.2     1  UNL1        0.2564
     12 O          -7.7626  -16.8772   23.6245 O.2     1  UNL1       -0.2696
     13 C          -9.0087  -17.9335   21.6042 C.2     1  UNL1        0.0976
     14 H         -10.2170  -15.6043   23.8986 H       1  UNL1        0.1595
     15 C          -6.5475  -18.5987   22.1047 C.3     1  UNL1        0.0229
     16 C          -5.5000  -19.6718   22.0695 C.3     1  UNL1        0.0044
     17 C          -4.0666  -19.3301   22.3497 C.3     1  UNL1        0.0003
     18 C          -3.7845  -20.1993   20.2411 C.3     1  UNL1        0.0000
     19 C          -3.0615  -19.3411   21.2364 C.3     1  UNL1        0.0000
     20 C          -1.8052  -19.0540   20.4687 C.3     1  UNL1        0.0000
     21 C          -1.9893  -18.4867   21.8450 C.3     1  UNL1        0.0000
@<TRIPOS>BOND
     1    18    19    1
     2    19    17    1
     3    17    16    1
     4    16    15    1
     5    15     1    1
     6     1     2    1
     7     2     3    1
     8     3     4    2
     9     3     5    1
    10     5     6    1
    11     6     7    2
    12     7     8    1
    13     8     9    2
    14     8    10   am
    15    10    11   am
    16    11    12    2
    17    11    13    1
    18    19    20    1
    19    20    21    1
    20    21    19    1
    21    13     1    2
    22    13     6    1
    23    10    14    1
@<TRIPOS>MOLECULE
*****
 21 23 0 0 0
SMALL
GASTEIGER

@<TRIPOS>ATOM
      1 C          -9.3188  -17.5830   22.9121 C.2     1  UNL1       -0.0245
      2 C         -10.6581  -17.3051   23.5276 C.3     1  UNL1        0.1323
      3 C         -11.9058  -17.8180   22.8718 C.2     1  UNL1        0.3267
      4 O         -13.2453  -17.5401   23.4873 O.2     1  UNL1       -0.2493
      5 O         -11.8142  -18.6088   21.6005 O.3     1  UNL1       -0.4077
      6 C         -10.4748  -18.8868   20.9850 C.2     1  UNL1        0.2295
      7 N         -10.3832  -19.6776   19.7137 N.am    1  UNL1       -0.1269
      8 C          -9.0439  -19.9555   19.0982 C.2     1  UNL1        0.3327
      9 O          -8.9522  -20.7464   17.8269 O.2     1  UNL1       -0.2501
     10 N          -7.7961  -19.4426   19.7541 N.am    1  UNL1       -0.2343
     11 C          -7.8877  -18.6518   21.0254 C.2     1  UNL1        0.2564
     12 O          -6.6400  -18.1389   21.6812 O.2     1  UNL1       -0.2696
     13 C          -9.2271  -18.3739   21.6408 C.2     1  UNL1        0.0976
     14 H          -6.9170  -19.6251   19.3501 H       1  UNL1        0.1595
     15 C          -8.0710  -17.0701   23.5679 C.3     1  UNL1        0.0229
     16 C          -7.7865  -15.5975   23.5904 C.3     1  UNL1        0.0044
     17 C          -7.7817  -14.8544   24.8934 C.3     1  UNL1        0.0003
     18 C          -5.6411  -15.3425   25.5724 C.3     1  UNL1        0.0000
     19 C          -7.0519  -15.4190   26.0761 C.3     1  UNL1        0.0000
     20 C          -6.8121  -16.0100   27.4336 C.3     1  UNL1        0.0000
     21 C          -8.2092  -15.6915   26.9906 C.3     1  UNL1        0.0000
@<TRIPOS>BOND
     1    18    19    1
     2    19    17    1
     3    17    16    1
     4    16    15    1
     5    15     1    1
     6     1     2    1
     7     2     3    1
     8     3     4    2
     9     3     5    1
    10     5     6    1
    11     6     7    2
    12     7     8    1
    13     8     9    2
    14     8    10   am
    15    10    11   am
    16    11    12    2
    17    11    13    1
    18    19    20    1
    19    20    21    1
    20    21    19    1
    21    13     1    2
    22    13     6    1
    23    10    14    1
@<TRIPOS>MOLECULE
*****
 21 23 0 0 0
SMALL
GASTEIGER

@<TRIPOS>ATOM
      1 C          -6.4737  -19.1600   21.2486 C.2     1  UNL1       -0.0245
      2 C          -5.6527  -18.4785   22.3029 C.3     1  UNL1        0.1323
      3 C          -6.2162  -17.3073   23.0516 C.2     1  UNL1        0.3267
      4 O          -5.3952  -16.6258   24.1060 O.2     1  UNL1       -0.2493
      5 O          -7.6006  -16.8175   22.7460 O.3     1  UNL1       -0.4077
      6 C          -8.4216  -17.4989   21.6917 C.2     1  UNL1        0.2295
      7 N          -9.8061  -17.0091   21.3861 N.am    1  UNL1       -0.1269
      8 C         -10.6271  -17.6905   20.3318 C.2     1  UNL1        0.3327
      9 O         -12.0115  -17.2007   20.0263 O.2     1  UNL1       -0.2501
     10 N         -10.0636  -18.8618   19.5831 N.am    1  UNL1       -0.2343
     11 C          -8.6792  -19.3516   19.8886 C.2     1  UNL1        0.2564
     12 O          -8.1157  -20.5229   19.1399 O.2     1  UNL1       -0.2696
     13 C          -7.8582  -18.6701   20.9430 C.2     1  UNL1        0.0976
     14 H         -10.6025  -19.3091   18.8911 H       1  UNL1        0.1595
     15 C          -5.9103  -20.3313   20.4998 C.3     1  UNL1        0.0229
     16 C          -4.4321  -20.4305   20.2648 C.3     1  UNL1        0.0044
     17 C          -3.7209  -19.3555   19.4976 C.3     1  UNL1        0.0003
     18 C          -2.2582  -19.6153   21.2511 C.3     1  UNL1        0.0000
     19 C          -2.3720  -18.8793   19.9490 C.3     1  UNL1        0.0000
     20 C          -1.0627  -18.1475   19.9483 C.3     1  UNL1        0.0000
     21 C          -2.0173  -17.9779   18.8038 C.3     1  UNL1        0.0000
@<TRIPOS>BOND
     1    18    19    1
     2    19    17    1
     3    17    16    1
     4    16    15    1
     5    15     1    1
     6     1     2    1
     7     2     3    1
     8     3     4    2
     9     3     5    1
    10     5     6    1
    11     6     7    2
    12     7     8    1
    13     8     9    2
    14     8    10   am
    15    10    11   am
    16    11    12    2
    17    11    13    1
    18    19    20    1
    19    20    21    1
    20    21    19    1
    21    13     1    2
    22    13     6    1
    23    10    14    1
@<TRIPOS>MOLECULE
*****
 21 23 0 0 0
SMALL
GASTEIGER

@<TRIPOS>ATOM
      1 C          -5.4025  -18.1443   22.6605 C.2     1  UNL1       -0.0245
      2 C          -4.8736  -17.0243   23.5065 C.3     1  UNL1        0.1323
      3 C          -5.7783  -15.8982   23.9109 C.2     1  UNL1        0.3267
      4 O          -5.2494  -14.7782   24.7570 O.2     1  UNL1       -0.2493
      5 O          -7.2117  -15.8921   23.4692 O.3     1  UNL1       -0.4077
      6 C          -7.7406  -17.0121   22.6231 C.2     1  UNL1        0.2295
      7 N          -9.1741  -17.0060   22.1814 N.am    1  UNL1       -0.1269
      8 C          -9.7029  -18.1260   21.3353 C.2     1  UNL1        0.3327
      9 O         -11.1364  -18.1199   20.8936 O.2     1  UNL1       -0.2501
     10 N          -8.7983  -19.2521   20.9309 N.am    1  UNL1       -0.2343
     11 C          -7.3648  -19.2582   21.3726 C.2     1  UNL1        0.2564
     12 O          -6.4602  -20.3843   20.9682 O.2     1  UNL1       -0.2696
     13 C          -6.8360  -18.1382   22.2188 C.2     1  UNL1        0.0976
     14 H          -9.1454  -19.9872   20.3756 H       1  UNL1        0.1595
     15 C          -4.4979  -19.2704   22.2560 C.3     1  UNL1        0.0229
     16 C          -3.0165  -19.1526   22.4598 C.3     1  UNL1        0.0044
     17 C          -2.1008  -19.0686   21.2747 C.3     1  UNL1        0.0003
     18 C          -1.9443  -16.7830   21.0935 C.3     1  UNL1        0.0000
     19 C          -2.2870  -17.9811   20.2586 C.3     1  UNL1        0.0000
     20 C          -2.5921  -17.3096   18.9525 C.3     1  UNL1        0.0000
     21 C          -2.6943  -18.8014   19.0707 C.3     1  UNL1        0.0000
@<TRIPOS>BOND
     1    18    19    1
     2    19    17    1
     3    17    16    1
     4    16    15    1
     5    15     1    1
     6     1     2    1
     7     2     3    1
     8     3     4    2
     9     3     5    1
    10     5     6    1
    11     6     7    2
    12     7     8    1
    13     8     9    2
    14     8    10   am
    15    10    11   am
    16    11    12    2
    17    11    13    1
    18    19    20    1
    19    20    21    1
    20    21    19    1
    21    13     1    2
    22    13     6    1
    23    10    14    1
@<TRIPOS>MOLECULE
*****
 21 23 0 0 0
SMALL
GASTEIGER

@<TRIPOS>ATOM
      1 C          -9.9033  -19.6269   21.3752 C.2     1  UNL1       -0.0245
      2 C         -10.4484  -19.9963   22.7229 C.3     1  UNL1        0.1323
      3 C          -9.5111  -20.3371   23.8432 C.2     1  UNL1        0.3267
      4 O         -10.0562  -20.7065   25.1910 O.2     1  UNL1       -0.2493
      5 O          -8.0287  -20.3085   23.6159 O.3     1  UNL1       -0.4077
      6 C          -7.4836  -19.9390   22.2682 C.2     1  UNL1        0.2295
      7 N          -6.0012  -19.9104   22.0409 N.am    1  UNL1       -0.1269
      8 C          -5.4561  -19.5410   20.6932 C.2     1  UNL1        0.3327
      9 O          -3.9737  -19.5124   20.4658 O.2     1  UNL1       -0.2501
     10 N          -6.3934  -19.2002   19.5727 N.am    1  UNL1       -0.2343
     11 C          -7.8758  -19.2288   19.8000 C.2     1  UNL1        0.2564
     12 O          -8.8131  -18.8880   18.6796 O.2     1  UNL1       -0.2696
     13 C          -8.4209  -19.5983   21.1478 C.2     1  UNL1        0.0976
     14 H          -6.0356  -18.9578   18.6881 H       1  UNL1        0.1595
     15 C         -10.8406  -19.2860   20.2547 C.3     1  UNL1        0.0229
     16 C         -11.5870  -17.9850   20.2707 C.3     1  UNL1        0.0044
     17 C         -10.9143  -16.7406   20.7696 C.3     1  UNL1        0.0003
     18 C         -12.2344  -16.6192   22.6469 C.3     1  UNL1        0.0000
     19 C         -10.7951  -16.4921   22.2441 C.3     1  UNL1        0.0000
     20 C         -10.1761  -16.1995   23.5787 C.3     1  UNL1        0.0000
     21 C          -9.3144  -16.2787   22.3535 C.3     1  UNL1        0.0000
@<TRIPOS>BOND
     1    18    19    1
     2    19    17    1
     3    17    16    1
     4    16    15    1
     5    15     1    1
     6     1     2    1
     7     2     3    1
     8     3     4    2
     9     3     5    1
    10     5     6    1
    11     6     7    2
    12     7     8    1
    13     8     9    2
    14     8    10   am
    15    10    11   am
    16    11    12    2
    17    11    13    1
    18    19    20    1
    19    20    21    1
    20    21    19    1
    21    13     1    2
    22    13     6    1
    23    10    14    1
