@<TRIPOS>MOLECULE
*****
 33 37 0 0 0
SMALL
GASTEIGER

@<TRIPOS>ATOM
      1 S           4.6996   -1.0713   32.2317 S.O2    1  UNL1        0.0802
      2 O           3.7254   -2.0895   32.7459 O.2     1  UNL1       -0.1494
      3 O           5.6738   -0.0532   31.7175 O.2     1  UNL1       -0.1494
      4 N           3.8945    0.0214   32.8702 N.pl3   1  UNL1       -0.1665
      5 C           4.2726    0.3698   34.2794 C.ar    1  UNL1        0.0732
      6 C           5.4119   -0.4757   34.7662 C.ar    1  UNL1        0.0163
      7 C           5.9459   -0.2869   36.1551 C.ar    1  UNL1        0.0013
      8 C           5.3407    0.7474   37.0572 C.ar    1  UNL1       -0.0001
      9 C           4.2014    1.5930   36.5704 C.ar    1  UNL1        0.0006
     10 C           3.6673    1.4042   35.1815 C.ar    1  UNL1        0.0364
     11 C           2.5346    2.3455   34.8973 C.3     1  UNL1        0.2333
     12 O           1.7273    2.4851   33.6407 O.3     1  UNL1       -0.4692
     13 C           1.8535    1.7177   32.3581 C.ar    1  UNL1        0.1564
     14 C           0.8448    2.1731   31.3456 C.ar    1  UNL1        0.0679
     15 C           0.8006    1.5321   29.9901 C.ar    1  UNL1        0.1433
     16 F          -0.2080    1.9875   28.9776 F       1  UNL1       -0.2041
     17 C           1.7651    0.4357   29.6472 C.ar    1  UNL1        0.0312
     18 C           2.7738   -0.0197   30.6597 C.ar    1  UNL1        0.0219
     19 C           2.8180    0.6212   32.0151 C.ar    1  UNL1        0.1076
     20 C           6.0196   -1.9525   28.1438 C.3     1  UNL1        0.0484
     21 C           6.8320   -3.2053   28.0009 C.3     1  UNL1        0.1550
     22 C           6.8110   -2.7444   26.5737 C.3     1  UNL1        0.0484
     23 O           7.6371   -4.2981   27.3624 O.3     1  UNL1       -0.4612
     24 C           8.1810   -5.4167   28.2008 C.2     1  UNL1        0.2333
     25 S           8.9861   -6.5094   27.5623 S.2     1  UNL1        0.0061
     26 N           7.9199   -5.4425   29.6777 N.am    1  UNL1       -0.2785
     27 C           7.1149   -4.3497   30.3163 C.ar    1  UNL1        0.0501
     28 C           6.8538   -4.3755   31.7931 C.ar    1  UNL1        0.0159
     29 C           6.0487   -3.2827   32.4316 C.ar    1  UNL1        0.0215
     30 C           5.5047   -2.1641   31.5932 C.ar    1  UNL1        0.1256
     31 C           5.7658   -2.1384   30.1164 C.ar    1  UNL1        0.0205
     32 C           6.5709   -3.2311   29.4779 C.ar    1  UNL1        0.0284
     33 H           8.2770   -6.1767   30.2280 H       1  UNL1        0.1555
@<TRIPOS>BOND
     1    20    21    1
     2    21    22    1
     3    21    23    1
     4    23    24    1
     5    24    25    2
     6    24    26    1
     7    26    27    1
     8    27    28   ar
     9    28    29   ar
    10    29    30   ar
    11    30     1    1
    12     1     2    2
    13     1     3    2
    14     1     4    1
    15     4     5    1
    16     5     6   ar
    17     6     7   ar
    18     7     8   ar
    19     8     9   ar
    20     9    10   ar
    21    10    11    1
    22    11    12    1
    23    12    13    1
    24    13    14   ar
    25    14    15   ar
    26    15    16    1
    27    15    17   ar
    28    17    18   ar
    29    18    19   ar
    30    30    31   ar
    31    31    32   ar
    32    32    21    1
    33    32    27   ar
    34    19     4    1
    35    10     5   ar
    36    19    13   ar
    37    26    33    1
@<TRIPOS>MOLECULE
*****
 33 37 0 0 0
SMALL
GASTEIGER

@<TRIPOS>ATOM
      1 S           2.8421    1.2366   19.2677 S.O2    1  UNL1        0.0802
      2 O           3.6422    1.4558   20.5175 O.2     1  UNL1       -0.1494
      3 O           2.0420    1.0175   18.0180 O.2     1  UNL1       -0.1494
      4 N           4.0759    0.7578   18.5618 N.pl3   1  UNL1       -0.1665
      5 C           4.8988    1.8207   17.8962 C.ar    1  UNL1        0.0732
      6 C           4.2936    3.1803   18.0840 C.ar    1  UNL1        0.0163
      7 C           4.9622    4.3868   17.4948 C.ar    1  UNL1        0.0013
      8 C           6.2362    4.2338   16.7179 C.ar    1  UNL1       -0.0001
      9 C           6.8414    2.8742   16.5300 C.ar    1  UNL1        0.0006
     10 C           6.1727    1.6677   17.1192 C.ar    1  UNL1        0.0364
     11 C           6.9383    0.4140   16.8159 C.3     1  UNL1        0.2333
     12 O           6.6192   -0.9964   17.2147 O.3     1  UNL1       -0.4692
     13 C           5.4556   -1.5013   18.0153 C.ar    1  UNL1        0.1564
     14 C           5.5142   -2.9902   18.1883 C.ar    1  UNL1        0.0679
     15 C           4.4410   -3.6983   18.9608 C.ar    1  UNL1        0.1433
     16 F           4.4997   -5.1872   19.1338 F       1  UNL1       -0.2041
     17 C           3.3092   -2.9177   19.5603 C.ar    1  UNL1        0.0312
     18 C           3.2505   -1.4289   19.3873 C.ar    1  UNL1        0.0219
     19 C           4.3236   -0.7207   18.6148 C.ar    1  UNL1        0.1076
     20 C          -0.6732    3.5832   18.0988 C.3     1  UNL1        0.0484
     21 C          -1.6722    3.8089   19.1948 C.3     1  UNL1        0.1550
     22 C          -2.3485    4.5378   18.0717 C.3     1  UNL1        0.0484
     23 O          -2.9060    4.2878   19.9007 O.3     1  UNL1       -0.4612
     24 C          -3.1165    3.9594   21.3491 C.2     1  UNL1        0.2333
     25 S          -4.3503    4.4382   22.0551 S.2     1  UNL1        0.0061
     26 N          -2.0932    3.1521   22.0916 N.am    1  UNL1       -0.2785
     27 C          -0.8594    2.6732   21.3856 C.ar    1  UNL1        0.0501
     28 C           0.1638    1.8660   22.1280 C.ar    1  UNL1        0.0159
     29 C           1.3977    1.3871   21.4221 C.ar    1  UNL1        0.0215
     30 C           1.6083    1.7155   19.9737 C.ar    1  UNL1        0.1256
     31 C           0.5850    2.5228   19.2313 C.ar    1  UNL1        0.0205
     32 C          -0.6488    3.0016   19.9372 C.ar    1  UNL1        0.0284
     33 H          -2.2314    2.9365   23.0422 H       1  UNL1        0.1555
@<TRIPOS>BOND
     1    20    21    1
     2    21    22    1
     3    21    23    1
     4    23    24    1
     5    24    25    2
     6    24    26    1
     7    26    27    1
     8    27    28   ar
     9    28    29   ar
    10    29    30   ar
    11    30     1    1
    12     1     2    2
    13     1     3    2
    14     1     4    1
    15     4     5    1
    16     5     6   ar
    17     6     7   ar
    18     7     8   ar
    19     8     9   ar
    20     9    10   ar
    21    10    11    1
    22    11    12    1
    23    12    13    1
    24    13    14   ar
    25    14    15   ar
    26    15    16    1
    27    15    17   ar
    28    17    18   ar
    29    18    19   ar
    30    30    31   ar
    31    31    32   ar
    32    32    21    1
    33    32    27   ar
    34    19     4    1
    35    10     5   ar
    36    19    13   ar
    37    26    33    1
@<TRIPOS>MOLECULE
*****
 33 37 0 0 0
SMALL
GASTEIGER

@<TRIPOS>ATOM
      1 S           4.5933   -1.0409   32.0719 S.O2    1  UNL1        0.0802
      2 O           5.5886   -0.0125   31.6227 O.2     1  UNL1       -0.1494
      3 O           3.5980   -2.0694   32.5211 O.2     1  UNL1       -0.1494
      4 N           3.7005    0.0484   32.5879 N.pl3   1  UNL1       -0.1665
      5 C           2.6968    0.5848   31.6107 C.ar    1  UNL1        0.0732
      6 C           2.8026   -0.1043   30.2826 C.ar    1  UNL1        0.0163
      7 C           1.8858    0.2845   29.1609 C.ar    1  UNL1        0.0013
      8 C           0.8631    1.3622   29.3673 C.ar    1  UNL1       -0.0001
      9 C           0.7574    2.0513   30.6954 C.ar    1  UNL1        0.0006
     10 C           1.6742    1.6626   31.8171 C.ar    1  UNL1        0.0364
     11 C           1.4028    2.4701   33.0517 C.3     1  UNL1        0.2333
     12 O           2.0868    2.3994   34.3848 O.3     1  UNL1       -0.4692
     13 C           3.2114    1.5036   34.8125 C.ar    1  UNL1        0.1564
     14 C           3.6019    1.7571   36.2384 C.ar    1  UNL1        0.0679
     15 C           4.7107    0.9642   36.8646 C.ar    1  UNL1        0.1433
     16 F           5.1012    1.2177   38.2905 F       1  UNL1       -0.2041
     17 C           5.4288   -0.0821   36.0650 C.ar    1  UNL1        0.0312
     18 C           5.0383   -0.3355   34.6391 C.ar    1  UNL1        0.0219
     19 C           3.9296    0.4573   34.0128 C.ar    1  UNL1        0.1076
     20 C           6.4201   -1.9620   28.1932 C.3     1  UNL1        0.0484
     21 C           7.2612   -3.2039   28.1726 C.3     1  UNL1        0.1550
     22 C           7.4102   -2.7647   26.7462 C.3     1  UNL1        0.0484
     23 O           8.1539   -4.2933   27.6566 O.3     1  UNL1       -0.4612
     24 C           8.6055   -5.3905   28.5743 C.2     1  UNL1        0.2333
     25 S           9.4983   -6.4799   28.0583 S.2     1  UNL1        0.0061
     26 N           8.1644   -5.3984   30.0080 N.am    1  UNL1       -0.2785
     27 C           7.2716   -4.3091   30.5240 C.ar    1  UNL1        0.0501
     28 C           6.8305   -4.3170   31.9576 C.ar    1  UNL1        0.0159
     29 C           5.9377   -3.2276   32.4736 C.ar    1  UNL1        0.0215
     30 C           5.4861   -2.1303   31.5559 C.ar    1  UNL1        0.1256
     31 C           5.9273   -2.1225   30.1223 C.ar    1  UNL1        0.0205
     32 C           6.8200   -3.2118   29.6063 C.ar    1  UNL1        0.0284
     33 H           8.4608   -6.1186   30.6102 H       1  UNL1        0.1555
@<TRIPOS>BOND
     1    20    21    1
     2    21    22    1
     3    21    23    1
     4    23    24    1
     5    24    25    2
     6    24    26    1
     7    26    27    1
     8    27    28   ar
     9    28    29   ar
    10    29    30   ar
    11    30     1    1
    12     1     2    2
    13     1     3    2
    14     1     4    1
    15     4     5    1
    16     5     6   ar
    17     6     7   ar
    18     7     8   ar
    19     8     9   ar
    20     9    10   ar
    21    10    11    1
    22    11    12    1
    23    12    13    1
    24    13    14   ar
    25    14    15   ar
    26    15    16    1
    27    15    17   ar
    28    17    18   ar
    29    18    19   ar
    30    30    31   ar
    31    31    32   ar
    32    32    21    1
    33    32    27   ar
    34    19     4    1
    35    10     5   ar
    36    19    13   ar
    37    26    33    1
@<TRIPOS>MOLECULE
*****
 33 37 0 0 0
SMALL
GASTEIGER

@<TRIPOS>ATOM
      1 S           2.9271    1.4398   19.4516 S.O2    1  UNL1        0.0802
      2 O           3.8194    1.5999   20.6467 O.2     1  UNL1       -0.1494
      3 O           2.0348    1.2797   18.2565 O.2     1  UNL1       -0.1494
      4 N           4.0870    0.9199   18.6552 N.pl3   1  UNL1       -0.1665
      5 C           4.9001    1.9560   17.9372 C.ar    1  UNL1        0.0732
      6 C           4.3632    3.3361   18.1759 C.ar    1  UNL1        0.0163
      7 C           5.0336    4.5209   17.5461 C.ar    1  UNL1        0.0013
      8 C           6.2410    4.3256   16.6777 C.ar    1  UNL1       -0.0001
      9 C           6.7779    2.9455   16.4390 C.ar    1  UNL1        0.0006
     10 C           6.1074    1.7607   17.0688 C.ar    1  UNL1        0.0364
     11 C           6.7999    0.4811   16.7039 C.3     1  UNL1        0.2333
     12 O           6.4561   -0.9192   17.1173 O.3     1  UNL1       -0.4692
     13 C           5.3348   -1.3858   17.9977 C.ar    1  UNL1        0.1564
     14 C           5.3482   -2.8771   18.1580 C.ar    1  UNL1        0.0679
     15 C           4.3071   -3.5500   19.0027 C.ar    1  UNL1        0.1433
     16 F           4.3205   -5.0414   19.1630 F       1  UNL1       -0.2041
     17 C           3.2529   -2.7316   19.6872 C.ar    1  UNL1        0.0312
     18 C           3.2395   -1.2402   19.5269 C.ar    1  UNL1        0.0219
     19 C           4.2805   -0.5673   18.6822 C.ar    1  UNL1        0.1076
     20 C           1.6799    1.1494   23.6457 C.3     1  UNL1        0.0484
     21 C           0.4015    1.8625   23.9730 C.3     1  UNL1        0.1550
     22 C           0.7426    1.3062   25.3236 C.3     1  UNL1        0.0484
     23 O          -0.7584    2.3825   24.7694 O.3     1  UNL1       -0.4612
     24 C          -1.8155    3.2110   24.1015 C.2     1  UNL1        0.2333
     25 S          -2.9754    3.7309   24.8979 S.2     1  UNL1        0.0061
     26 N          -1.7126    3.5196   22.6371 N.am    1  UNL1       -0.2785
     27 C          -0.5527    2.9997   21.8407 C.ar    1  UNL1        0.0501
     28 C          -0.4499    3.3083   20.3765 C.ar    1  UNL1        0.0159
     29 C           0.7101    2.7883   19.5801 C.ar    1  UNL1        0.0215
     30 C           1.7672    1.9598   20.2480 C.ar    1  UNL1        0.1256
     31 C           1.6643    1.6512   21.7123 C.ar    1  UNL1        0.0205
     32 C           0.5044    2.1711   22.5086 C.ar    1  UNL1        0.0284
     33 H          -2.4064    4.0634   22.1988 H       1  UNL1        0.1555
@<TRIPOS>BOND
     1    20    21    1
     2    21    22    1
     3    21    23    1
     4    23    24    1
     5    24    25    2
     6    24    26    1
     7    26    27    1
     8    27    28   ar
     9    28    29   ar
    10    29    30   ar
    11    30     1    1
    12     1     2    2
    13     1     3    2
    14     1     4    1
    15     4     5    1
    16     5     6   ar
    17     6     7   ar
    18     7     8   ar
    19     8     9   ar
    20     9    10   ar
    21    10    11    1
    22    11    12    1
    23    12    13    1
    24    13    14   ar
    25    14    15   ar
    26    15    16    1
    27    15    17   ar
    28    17    18   ar
    29    18    19   ar
    30    30    31   ar
    31    31    32   ar
    32    32    21    1
    33    32    27   ar
    34    19     4    1
    35    10     5   ar
    36    19    13   ar
    37    26    33    1
@<TRIPOS>MOLECULE
*****
 33 37 0 0 0
SMALL
GASTEIGER

@<TRIPOS>ATOM
      1 S           3.8996   -0.2848   21.8146 S.O2    1  UNL1        0.0802
      2 O           2.4688   -0.2722   21.3645 O.2     1  UNL1       -0.1494
      3 O           5.3305   -0.2974   22.2646 O.2     1  UNL1       -0.1494
      4 N           4.3486   -0.3592   20.3852 N.pl3   1  UNL1       -0.1665
      5 C           4.5769    0.9583   19.7055 C.ar    1  UNL1        0.0732
      6 C           4.2988    2.1070   20.6291 C.ar    1  UNL1        0.0163
      7 C           4.4667    3.5166   20.1445 C.ar    1  UNL1        0.0013
      8 C           4.9127    3.7775   18.7363 C.ar    1  UNL1       -0.0001
      9 C           5.1908    2.6288   17.8127 C.ar    1  UNL1        0.0006
     10 C           5.0229    1.2192   18.2973 C.ar    1  UNL1        0.0364
     11 C           5.3506    0.2270   17.2211 C.3     1  UNL1        0.2333
     12 O           5.3134   -1.2710   17.2872 O.3     1  UNL1       -0.4692
     13 C           4.9392   -2.1470   18.4460 C.ar    1  UNL1        0.1564
     14 C           5.0360   -3.6004   18.0880 C.ar    1  UNL1        0.0679
     15 C           4.7033   -4.6480   19.1088 C.ar    1  UNL1        0.1433
     16 F           4.8001   -6.1014   18.7507 F       1  UNL1       -0.2041
     17 C           4.2739   -4.2422   20.4874 C.ar    1  UNL1        0.0312
     18 C           4.1772   -2.7888   20.8455 C.ar    1  UNL1        0.0219
     19 C           4.5098   -1.7412   19.8248 C.ar    1  UNL1        0.1076
     20 C           0.5725    1.6545   23.9120 C.3     1  UNL1        0.0484
     21 C           0.5468    1.4298   25.3949 C.3     1  UNL1        0.1550
     22 C          -0.6718    2.2908   25.2407 C.3     1  UNL1        0.0484
     23 O           0.0978    1.5042   26.8242 O.3     1  UNL1       -0.4612
     24 C           0.8764    0.7955   27.8926 C.2     1  UNL1        0.2333
     25 S           0.4275    0.8699   29.3220 S.2     1  UNL1        0.0061
     26 N           2.1039    0.0125   27.5318 N.am    1  UNL1       -0.2785
     27 C           2.5529   -0.0618   26.1025 C.ar    1  UNL1        0.0501
     28 C           3.7803   -0.8448   25.7417 C.ar    1  UNL1        0.0159
     29 C           4.2293   -0.9191   24.3124 C.ar    1  UNL1        0.0215
     30 C           3.4507   -0.2105   23.2439 C.ar    1  UNL1        0.1256
     31 C           2.2232    0.5725   23.6048 C.ar    1  UNL1        0.0205
     32 C           1.7743    0.6468   25.0340 C.ar    1  UNL1        0.0284
     33 H           2.6149   -0.4526   28.2331 H       1  UNL1        0.1555
@<TRIPOS>BOND
     1    20    21    1
     2    21    22    1
     3    21    23    1
     4    23    24    1
     5    24    25    2
     6    24    26    1
     7    26    27    1
     8    27    28   ar
     9    28    29   ar
    10    29    30   ar
    11    30     1    1
    12     1     2    2
    13     1     3    2
    14     1     4    1
    15     4     5    1
    16     5     6   ar
    17     6     7   ar
    18     7     8   ar
    19     8     9   ar
    20     9    10   ar
    21    10    11    1
    22    11    12    1
    23    12    13    1
    24    13    14   ar
    25    14    15   ar
    26    15    16    1
    27    15    17   ar
    28    17    18   ar
    29    18    19   ar
    30    30    31   ar
    31    31    32   ar
    32    32    21    1
    33    32    27   ar
    34    19     4    1
    35    10     5   ar
    36    19    13   ar
    37    26    33    1
@<TRIPOS>MOLECULE
*****
 33 37 0 0 0
SMALL
GASTEIGER

@<TRIPOS>ATOM
      1 S           3.6151    0.1298   21.4759 S.O2    1  UNL1        0.0802
      2 O           4.9898    0.1628   22.0753 O.2     1  UNL1       -0.1494
      3 O           2.2405    0.0969   20.8764 O.2     1  UNL1       -0.1494
      4 N           4.2149   -0.0086   20.1080 N.pl3   1  UNL1       -0.1665
      5 C           4.5177    1.2771   19.3970 C.ar    1  UNL1        0.0732
      6 C           4.1444    2.4660   20.2318 C.ar    1  UNL1        0.0163
      7 C           4.3664    3.8524   19.7040 C.ar    1  UNL1        0.0013
      8 C           4.9616    4.0498   18.3414 C.ar    1  UNL1       -0.0001
      9 C           5.3350    2.8608   17.5066 C.ar    1  UNL1        0.0006
     10 C           5.1130    1.4745   18.0344 C.ar    1  UNL1        0.0364
     11 C           5.5525    0.4349   17.0463 C.3     1  UNL1        0.2333
     12 O           5.5052   -1.0586   17.1766 O.3     1  UNL1       -0.4692
     13 C           5.0068   -1.8816   18.3275 C.ar    1  UNL1        0.1564
     14 C           5.1385   -3.3496   18.0489 C.ar    1  UNL1        0.0679
     15 C           4.6958   -4.3504   19.0749 C.ar    1  UNL1        0.1433
     16 F           4.8275   -5.8184   18.7964 F       1  UNL1       -0.2041
     17 C           4.1216   -3.8831   20.3794 C.ar    1  UNL1        0.0312
     18 C           3.9900   -2.4151   20.6580 C.ar    1  UNL1        0.0219
     19 C           4.4326   -1.4143   19.6321 C.ar    1  UNL1        0.1076
     20 C           4.6597   -1.3431   25.4720 C.3     1  UNL1        0.0484
     21 C           3.7201   -0.9231   26.5632 C.3     1  UNL1        0.1550
     22 C           4.6987   -1.7339   27.3599 C.3     1  UNL1        0.0484
     23 O           3.1203   -0.7847   27.9311 O.3     1  UNL1       -0.4612
     24 C           1.8682    0.0187   28.1231 C.2     1  UNL1        0.2333
     25 S           1.2684    0.1572   29.4910 S.2     1  UNL1        0.0061
     26 N           1.2159    0.6837   26.9473 N.am    1  UNL1       -0.2785
     27 C           1.8157    0.5452   25.5795 C.ar    1  UNL1        0.0501
     28 C           1.1634    1.2101   24.4038 C.ar    1  UNL1        0.0159
     29 C           1.7632    1.0717   23.0359 C.ar    1  UNL1        0.0215
     30 C           3.0153    0.2683   22.8437 C.ar    1  UNL1        0.1256
     31 C           3.6675   -0.3966   24.0195 C.ar    1  UNL1        0.0205
     32 C           3.0678   -0.2582   25.3873 C.ar    1  UNL1        0.0284
     33 H           0.3941    1.2110   27.0735 H       1  UNL1        0.1555
@<TRIPOS>BOND
     1    20    21    1
     2    21    22    1
     3    21    23    1
     4    23    24    1
     5    24    25    2
     6    24    26    1
     7    26    27    1
     8    27    28   ar
     9    28    29   ar
    10    29    30   ar
    11    30     1    1
    12     1     2    2
    13     1     3    2
    14     1     4    1
    15     4     5    1
    16     5     6   ar
    17     6     7   ar
    18     7     8   ar
    19     8     9   ar
    20     9    10   ar
    21    10    11    1
    22    11    12    1
    23    12    13    1
    24    13    14   ar
    25    14    15   ar
    26    15    16    1
    27    15    17   ar
    28    17    18   ar
    29    18    19   ar
    30    30    31   ar
    31    31    32   ar
    32    32    21    1
    33    32    27   ar
    34    19     4    1
    35    10     5   ar
    36    19    13   ar
    37    26    33    1
@<TRIPOS>MOLECULE
*****
 33 37 0 0 0
SMALL
GASTEIGER

@<TRIPOS>ATOM
      1 S          -2.4702    3.9197   20.7165 S.O2    1  UNL1        0.0802
      2 O          -2.1739    5.3871   20.8104 O.2     1  UNL1       -0.1494
      3 O          -2.7664    2.4522   20.6226 O.2     1  UNL1       -0.1494
      4 N          -3.8478    4.1632   21.2578 N.pl3   1  UNL1       -0.1665
      5 C          -4.9010    4.4803   20.2379 C.ar    1  UNL1        0.0732
      6 C          -4.3347    4.4867   18.8490 C.ar    1  UNL1        0.0163
      7 C          -5.2239    4.7828   17.6779 C.ar    1  UNL1        0.0013
      8 C          -6.6795    5.0724   17.8957 C.ar    1  UNL1       -0.0001
      9 C          -7.2458    5.0660   19.2846 C.ar    1  UNL1        0.0006
     10 C          -6.3566    4.7699   20.4557 C.ar    1  UNL1        0.0364
     11 C          -7.1183    4.8139   21.7472 C.3     1  UNL1        0.2333
     12 O          -6.6127    4.5793   23.1398 O.3     1  UNL1       -0.4692
     13 C          -5.2204    4.2425   23.5848 C.ar    1  UNL1        0.1564
     14 C          -5.1432    4.0900   25.0750 C.ar    1  UNL1        0.0679
     15 C          -3.8355    3.7524   25.7277 C.ar    1  UNL1        0.1433
     16 F          -3.7584    3.5999   27.2179 F       1  UNL1       -0.2041
     17 C          -2.6050    3.5672   24.8902 C.ar    1  UNL1        0.0312
     18 C          -2.6822    3.7197   23.3999 C.ar    1  UNL1        0.0219
     19 C          -3.9898    4.0574   22.7473 C.ar    1  UNL1        0.1076
     20 C           0.1818    0.4361   20.4685 C.3     1  UNL1        0.0484
     21 C           1.5071    0.6990   19.8168 C.3     1  UNL1        0.1550
     22 C           1.6578   -0.7592   20.1346 C.3     1  UNL1        0.0484
     23 O           2.8846    0.4555   19.2756 O.3     1  UNL1       -0.4612
     24 C           3.6512    1.5789   18.6428 C.2     1  UNL1        0.2333
     25 S           5.0288    1.3354   18.1015 S.2     1  UNL1        0.0061
     26 N           3.0402    2.9458   18.5513 N.am    1  UNL1       -0.2785
     27 C           1.6626    3.1893   19.0926 C.ar    1  UNL1        0.0501
     28 C           1.0516    4.5561   19.0011 C.ar    1  UNL1        0.0159
     29 C          -0.3260    4.7996   19.5424 C.ar    1  UNL1        0.0215
     30 C          -1.0926    3.6762   20.1752 C.ar    1  UNL1        0.1256
     31 C          -0.4815    2.3094   20.2666 C.ar    1  UNL1        0.0205
     32 C           0.8960    2.0659   19.7254 C.ar    1  UNL1        0.0284
     33 H           3.5433    3.6831   18.1360 H       1  UNL1        0.1555
@<TRIPOS>BOND
     1    20    21    1
     2    21    22    1
     3    21    23    1
     4    23    24    1
     5    24    25    2
     6    24    26    1
     7    26    27    1
     8    27    28   ar
     9    28    29   ar
    10    29    30   ar
    11    30     1    1
    12     1     2    2
    13     1     3    2
    14     1     4    1
    15     4     5    1
    16     5     6   ar
    17     6     7   ar
    18     7     8   ar
    19     8     9   ar
    20     9    10   ar
    21    10    11    1
    22    11    12    1
    23    12    13    1
    24    13    14   ar
    25    14    15   ar
    26    15    16    1
    27    15    17   ar
    28    17    18   ar
    29    18    19   ar
    30    30    31   ar
    31    31    32   ar
    32    32    21    1
    33    32    27   ar
    34    19     4    1
    35    10     5   ar
    36    19    13   ar
    37    26    33    1
@<TRIPOS>MOLECULE
*****
 33 37 0 0 0
SMALL
GASTEIGER

@<TRIPOS>ATOM
      1 S           4.6528   -0.6111   32.2825 S.O2    1  UNL1        0.0802
      2 O           3.7497   -1.7663   32.5985 O.2     1  UNL1       -0.1494
      3 O           5.5560    0.5441   31.9665 O.2     1  UNL1       -0.1494
      4 N           4.8593   -1.1511   30.8984 N.pl3   1  UNL1       -0.1665
      5 C           6.0065   -2.1037   30.7358 C.ar    1  UNL1        0.0732
      6 C           6.7265   -2.3209   32.0336 C.ar    1  UNL1        0.0163
      7 C           7.9091   -3.2419   32.0901 C.ar    1  UNL1        0.0013
      8 C           8.3715   -3.9458   30.8489 C.ar    1  UNL1       -0.0001
      9 C           7.6515   -3.7286   29.5511 C.ar    1  UNL1        0.0006
     10 C           6.4689   -2.8076   29.4946 C.ar    1  UNL1        0.0364
     11 C           5.8984   -2.7326   28.1093 C.3     1  UNL1        0.2333
     12 O           4.7245   -1.9353   27.6232 O.3     1  UNL1       -0.4692
     13 C           3.8312   -1.0160   28.4023 C.ar    1  UNL1        0.1564
     14 C           2.7704   -0.4133   27.5298 C.ar    1  UNL1        0.0679
     15 C           1.7694    0.5385   28.1149 C.ar    1  UNL1        0.1433
     16 F           0.7085    1.1412   27.2424 F       1  UNL1       -0.2041
     17 C           1.8294    0.8875   29.5724 C.ar    1  UNL1        0.0312
     18 C           2.8903    0.2848   30.4449 C.ar    1  UNL1        0.0219
     19 C           3.8912   -0.6670   29.8599 C.ar    1  UNL1        0.1076
     20 C           2.5022    2.8157   33.9741 C.3     1  UNL1        0.0484
     21 C           2.5928    2.9415   35.4661 C.3     1  UNL1        0.1550
     22 C           1.7377    4.1341   35.1556 C.3     1  UNL1        0.0484
     23 O           2.3864    3.4815   36.8503 O.3     1  UNL1       -0.4612
     24 C           3.0036    2.7851   38.0267 C.2     1  UNL1        0.2333
     25 S           2.7972    3.3251   39.4109 S.2     1  UNL1        0.0061
     26 N           3.8273    1.5487   37.8191 N.am    1  UNL1       -0.2785
     27 C           4.0337    1.0088   36.4349 C.ar    1  UNL1        0.0501
     28 C           4.8573   -0.2275   36.2273 C.ar    1  UNL1        0.0159
     29 C           5.0637   -0.7675   34.8432 C.ar    1  UNL1        0.0215
     30 C           4.4464   -0.0711   33.6666 C.ar    1  UNL1        0.1256
     31 C           3.6228    1.1652   33.8744 C.ar    1  UNL1        0.0205
     32 C           3.4164    1.7051   35.2584 C.ar    1  UNL1        0.0284
     33 H           4.2324    1.0917   38.5913 H       1  UNL1        0.1555
@<TRIPOS>BOND
     1    20    21    1
     2    21    22    1
     3    21    23    1
     4    23    24    1
     5    24    25    2
     6    24    26    1
     7    26    27    1
     8    27    28   ar
     9    28    29   ar
    10    29    30   ar
    11    30     1    1
    12     1     2    2
    13     1     3    2
    14     1     4    1
    15     4     5    1
    16     5     6   ar
    17     6     7   ar
    18     7     8   ar
    19     8     9   ar
    20     9    10   ar
    21    10    11    1
    22    11    12    1
    23    12    13    1
    24    13    14   ar
    25    14    15   ar
    26    15    16    1
    27    15    17   ar
    28    17    18   ar
    29    18    19   ar
    30    30    31   ar
    31    31    32   ar
    32    32    21    1
    33    32    27   ar
    34    19     4    1
    35    10     5   ar
    36    19    13   ar
    37    26    33    1
@<TRIPOS>MOLECULE
*****
 33 37 0 0 0
SMALL
GASTEIGER

@<TRIPOS>ATOM
      1 S           4.6536   -0.5945   32.2444 S.O2    1  UNL1        0.0802
      2 O           5.6235    0.5132   31.9577 O.2     1  UNL1       -0.1494
      3 O           3.6836   -1.7022   32.5312 O.2     1  UNL1       -0.1494
      4 N           4.8504   -1.1263   30.8558 N.pl3   1  UNL1       -0.1665
      5 C           3.9198   -0.5824   29.8126 C.ar    1  UNL1        0.0732
      6 C           2.9594    0.4096   30.3986 C.ar    1  UNL1        0.0163
      7 C           1.9399    1.0744   29.5220 C.ar    1  UNL1        0.0013
      8 C           1.8809    0.7473   28.0593 C.ar    1  UNL1       -0.0001
      9 C           2.8413   -0.2447   27.4732 C.ar    1  UNL1        0.0006
     10 C           3.8608   -0.9095   28.3499 C.ar    1  UNL1        0.0364
     11 C           4.7177   -1.8614   27.5692 C.3     1  UNL1        0.2333
     12 O           5.8454   -2.7213   28.0582 O.3     1  UNL1       -0.4692
     13 C           6.3945   -2.8415   29.4489 C.ar    1  UNL1        0.1564
     14 C           7.5300   -3.8199   29.5069 C.ar    1  UNL1        0.0679
     15 C           8.2228   -4.0885   30.8100 C.ar    1  UNL1        0.1433
     16 F           9.3583   -5.0668   30.8680 F       1  UNL1       -0.2041
     17 C           7.7800   -3.3787   32.0550 C.ar    1  UNL1        0.0312
     18 C           6.6445   -2.4003   31.9970 C.ar    1  UNL1        0.0219
     19 C           5.9518   -2.1317   30.6940 C.ar    1  UNL1        0.1076
     20 C           2.5078    2.8175   33.9719 C.3     1  UNL1        0.0484
     21 C           2.6098    2.9353   35.4638 C.3     1  UNL1        0.1550
     22 C           1.7494    4.1274   35.1666 C.3     1  UNL1        0.0484
     23 O           2.4130    3.4671   36.8525 O.3     1  UNL1       -0.4612
     24 C           3.0413    2.7658   38.0202 C.2     1  UNL1        0.2333
     25 S           2.8444    3.2976   39.4088 S.2     1  UNL1        0.0061
     26 N           3.8663    1.5327   37.7992 N.am    1  UNL1       -0.2785
     27 C           4.0632    1.0009   36.4105 C.ar    1  UNL1        0.0501
     28 C           4.8882   -0.2321   36.1896 C.ar    1  UNL1        0.0159
     29 C           5.0850   -0.7640   34.8009 C.ar    1  UNL1        0.0215
     30 C           4.4568   -0.0627   33.6331 C.ar    1  UNL1        0.1256
     31 C           3.6317    1.1703   33.8542 C.ar    1  UNL1        0.0205
     32 C           3.4349    1.7021   35.2428 C.ar    1  UNL1        0.0284
     33 H           4.2787    1.0724   38.5656 H       1  UNL1        0.1555
@<TRIPOS>BOND
     1    20    21    1
     2    21    22    1
     3    21    23    1
     4    23    24    1
     5    24    25    2
     6    24    26    1
     7    26    27    1
     8    27    28   ar
     9    28    29   ar
    10    29    30   ar
    11    30     1    1
    12     1     2    2
    13     1     3    2
    14     1     4    1
    15     4     5    1
    16     5     6   ar
    17     6     7   ar
    18     7     8   ar
    19     8     9   ar
    20     9    10   ar
    21    10    11    1
    22    11    12    1
    23    12    13    1
    24    13    14   ar
    25    14    15   ar
    26    15    16    1
    27    15    17   ar
    28    17    18   ar
    29    18    19   ar
    30    30    31   ar
    31    31    32   ar
    32    32    21    1
    33    32    27   ar
    34    19     4    1
    35    10     5   ar
    36    19    13   ar
    37    26    33    1
