@<TRIPOS>MOLECULE
*****
 28 31 0 0 0
SMALL
GASTEIGER

@<TRIPOS>ATOM
      1 C          -6.3949  -16.8154   23.7589 C.3     1  UNL1        0.0486
      2 C          -7.6579  -17.1902   23.0418 C.ar    1  UNL1       -0.0190
      3 C          -7.5886  -17.8942   21.7189 C.ar    1  UNL1        0.0355
      4 C          -8.8516  -18.2690   21.0018 C.ar    1  UNL1        0.1674
      5 O          -8.7823  -18.9729   19.6790 O.3     1  UNL1       -0.5029
      6 C         -10.1839  -17.9399   21.6073 C.ar    1  UNL1        0.1718
      7 C         -10.2532  -17.2360   22.9300 C.ar    1  UNL1        0.0355
      8 C          -8.9901  -16.8612   23.6473 C.ar    1  UNL1       -0.0221
      9 C          -9.0595  -16.1572   24.9701 C.3     1  UNL1        0.0374
     10 C          -7.7965  -15.7824   25.6873 C.3     1  UNL1        0.1076
     11 C          -7.5528  -15.0884   26.9945 C.2     1  UNL1        0.3169
     12 O          -8.6069  -14.5829   27.9344 O.2     1  UNL1       -0.2501
     13 O          -6.0699  -14.9886   27.1969 O.3     1  UNL1       -0.4485
     14 C          -5.3971  -15.6209   26.0147 C.3     1  UNL1        0.2095
     15 C          -6.4642  -16.1115   25.0817 C.3     1  UNL1        0.0628
     16 H          -7.9500  -19.1785   19.3007 H       1  UNL1        0.2923
     17 C          -3.4608  -18.8572   22.0349 C.ar    1  UNL1        0.1718
     18 C          -4.7931  -18.5281   22.6405 C.ar    1  UNL1        0.0361
     19 C          -5.0627  -17.1446   23.1534 C.ar    1  UNL1       -0.0151
     20 C          -3.9998  -16.0900   23.0607 C.ar    1  UNL1       -0.0006
     21 C          -2.6676  -16.4191   22.4551 C.ar    1  UNL1        0.0395
     22 C          -2.3980  -17.8027   21.9422 C.ar    1  UNL1        0.1677
     23 O          -1.0658  -18.1318   21.3367 O.3     1  UNL1       -0.5029
     24 H          -0.4020  -17.4731   21.2788 H       1  UNL1        0.2923
     25 C          -3.6262  -20.6260   20.1390 C.3     1  UNL1        0.2526
     26 O          -3.1913  -20.2408   21.5220 O.3     1  UNL1       -0.4684
     27 O         -11.4469  -18.3147   20.8901 O.3     1  UNL1       -0.4684
     28 C         -12.7609  -17.7471   21.3388 C.3     1  UNL1        0.2526
@<TRIPOS>BOND
     1    25    26    1
     2    26    17    1
     3    17    18   ar
     4    18    19   ar
     5     1    19    1
     6     1     2    1
     7     2     3   ar
     8     3     4   ar
     9     4     5    1
    10     4     6   ar
    11     6    27    1
    12    27    28    1
    13     6     7   ar
    14     7     8   ar
    15     8     9    1
    16    10     9    1
    17    10    11    1
    18    11    12    2
    19    11    13    1
    20    13    14    1
    21    15    14    1
    22    19    20   ar
    23    20    21   ar
    24    21    22   ar
    25    22    23    1
    26    22    17   ar
    27    15     1    1
    28     8     2   ar
    29    15    10    1
    30     5    16    1
    31    23    24    1
@<TRIPOS>MOLECULE
*****
 28 31 0 0 0
SMALL
GASTEIGER

@<TRIPOS>ATOM
      1 C          -6.7859  -17.6693   22.9667 C.3     1  UNL1        0.0486
      2 C          -5.4665  -18.1275   22.4198 C.ar    1  UNL1       -0.0190
      3 C          -5.4219  -19.1822   21.3541 C.ar    1  UNL1        0.0355
      4 C          -4.1024  -19.6403   20.8072 C.ar    1  UNL1        0.1674
      5 O          -4.0577  -20.6950   19.7416 O.3     1  UNL1       -0.5029
      6 C          -2.8276  -19.0439   21.3259 C.ar    1  UNL1        0.1718
      7 C          -2.8722  -17.9892   22.3916 C.ar    1  UNL1        0.0355
      8 C          -4.1918  -17.5310   22.9385 C.ar    1  UNL1       -0.0221
      9 C          -4.2364  -16.4763   24.0043 C.3     1  UNL1        0.0374
     10 C          -5.5558  -16.0181   24.5512 C.3     1  UNL1        0.1076
     11 C          -5.9109  -15.0031   25.5969 C.2     1  UNL1        0.3169
     12 O          -4.9419  -14.1659   26.3780 O.2     1  UNL1       -0.2501
     13 O          -7.4051  -14.9723   25.7245 O.3     1  UNL1       -0.4485
     14 C          -7.9736  -15.9683   24.7576 C.3     1  UNL1        0.2095
     15 C          -6.8306  -16.6147   24.0324 C.3     1  UNL1        0.0628
     16 H          -4.8540  -21.0676   19.4175 H       1  UNL1        0.2923
     17 C         -10.0596  -18.2096   20.7893 C.ar    1  UNL1        0.1718
     18 C          -8.7848  -17.6130   21.3080 C.ar    1  UNL1        0.0361
     19 C          -8.0607  -18.2659   22.4480 C.ar    1  UNL1       -0.0151
     20 C          -8.6114  -19.5153   23.0692 C.ar    1  UNL1       -0.0006
     21 C          -9.8861  -20.1118   22.5505 C.ar    1  UNL1        0.0395
     22 C         -10.6103  -19.4590   21.4105 C.ar    1  UNL1        0.1677
     23 O         -11.8850  -20.0555   20.8918 O.3     1  UNL1       -0.5029
     24 H         -12.2289  -20.8360   21.2798 H       1  UNL1        0.2923
     25 C         -11.4777  -16.2429   19.8557 C.3     1  UNL1        0.2526
     26 O         -10.7838  -17.5568   19.6494 O.3     1  UNL1       -0.4684
     27 O          -1.5081  -19.5020   20.7790 O.3     1  UNL1       -0.4684
     28 C          -0.6639  -18.5616   19.9709 C.3     1  UNL1        0.2526
@<TRIPOS>BOND
     1    25    26    1
     2    26    17    1
     3    17    18   ar
     4    18    19   ar
     5     1    19    1
     6     1     2    1
     7     2     3   ar
     8     3     4   ar
     9     4     5    1
    10     4     6   ar
    11     6    27    1
    12    27    28    1
    13     6     7   ar
    14     7     8   ar
    15     8     9    1
    16    10     9    1
    17    10    11    1
    18    11    12    2
    19    11    13    1
    20    13    14    1
    21    15    14    1
    22    19    20   ar
    23    20    21   ar
    24    21    22   ar
    25    22    23    1
    26    22    17   ar
    27    15     1    1
    28     8     2   ar
    29    15    10    1
    30     5    16    1
    31    23    24    1
@<TRIPOS>MOLECULE
*****
 28 31 0 0 0
SMALL
GASTEIGER

@<TRIPOS>ATOM
      1 C          -8.2063  -17.2726   23.4168 C.3     1  UNL1        0.0486
      2 C          -7.2293  -17.9970   22.5390 C.ar    1  UNL1       -0.0190
      3 C          -7.7246  -18.9615   21.5023 C.ar    1  UNL1        0.0355
      4 C          -6.7476  -19.6859   20.6244 C.ar    1  UNL1        0.1674
      5 O          -7.2428  -20.6503   19.5877 O.3     1  UNL1       -0.5029
      6 C          -5.2754  -19.4460   20.7831 C.ar    1  UNL1        0.1718
      7 C          -4.7802  -18.4815   21.8197 C.ar    1  UNL1        0.0355
      8 C          -5.7573  -17.7570   22.6977 C.ar    1  UNL1       -0.0221
      9 C          -5.2620  -16.7926   23.7344 C.3     1  UNL1        0.0374
     10 C          -6.2390  -16.0681   24.6123 C.3     1  UNL1        0.1076
     11 C          -6.0485  -15.0666   25.7126 C.2     1  UNL1        0.3169
     12 O          -4.7344  -14.5371   26.2051 O.2     1  UNL1       -0.2501
     13 O          -7.4030  -14.6876   26.2338 O.3     1  UNL1       -0.4485
     14 C          -8.4306  -15.4549   25.4557 C.3     1  UNL1        0.2095
     15 C          -7.7111  -16.3081   24.4535 C.3     1  UNL1        0.0628
     16 H          -8.1624  -20.8002   19.4886 H       1  UNL1        0.2923
     17 C         -11.8825  -17.1739   21.9249 C.ar    1  UNL1        0.1718
     18 C         -10.4103  -16.9338   22.0836 C.ar    1  UNL1        0.0361
     19 C          -9.6784  -17.5125   23.2581 C.ar    1  UNL1       -0.0151
     20 C         -10.4187  -18.3313   24.2738 C.ar    1  UNL1       -0.0006
     21 C         -11.8908  -18.5713   24.1151 C.ar    1  UNL1        0.0395
     22 C         -12.6228  -17.9926   22.9406 C.ar    1  UNL1        0.1677
     23 O         -14.0948  -18.2326   22.7819 O.3     1  UNL1       -0.5029
     24 H         -14.5572  -18.7440   23.4164 H       1  UNL1        0.2923
     25 C         -11.8496  -15.9381   19.6397 C.3     1  UNL1        0.2526
     26 O         -12.6144  -16.5951   20.7504 O.3     1  UNL1       -0.4684
     27 O          -4.2984  -20.1704   19.9052 O.3     1  UNL1       -0.4684
     28 C          -3.1176  -19.4412   19.3360 C.3     1  UNL1        0.2526
@<TRIPOS>BOND
     1    25    26    1
     2    26    17    1
     3    17    18   ar
     4    18    19   ar
     5     1    19    1
     6     1     2    1
     7     2     3   ar
     8     3     4   ar
     9     4     5    1
    10     4     6   ar
    11     6    27    1
    12    27    28    1
    13     6     7   ar
    14     7     8   ar
    15     8     9    1
    16    10     9    1
    17    10    11    1
    18    11    12    2
    19    11    13    1
    20    13    14    1
    21    15    14    1
    22    19    20   ar
    23    20    21   ar
    24    21    22   ar
    25    22    23    1
    26    22    17   ar
    27    15     1    1
    28     8     2   ar
    29    15    10    1
    30     5    16    1
    31    23    24    1
@<TRIPOS>MOLECULE
*****
 28 31 0 0 0
SMALL
GASTEIGER

@<TRIPOS>ATOM
      1 C          -7.2239  -18.4720   21.7962 C.3     1  UNL1        0.0486
      2 C          -5.7702  -18.7350   21.5362 C.ar    1  UNL1       -0.0190
      3 C          -4.7310  -18.1940   22.4731 C.ar    1  UNL1        0.0355
      4 C          -3.2773  -18.4570   22.2132 C.ar    1  UNL1        0.1674
      5 O          -2.2381  -17.9161   23.1500 O.3     1  UNL1       -0.5029
      6 C          -2.8626  -19.2608   21.0165 C.ar    1  UNL1        0.1718
      7 C          -3.9018  -19.8016   20.0797 C.ar    1  UNL1        0.0355
      8 C          -5.3556  -19.5387   20.3396 C.ar    1  UNL1       -0.0221
      9 C          -6.3948  -20.0796   19.4028 C.3     1  UNL1        0.0374
     10 C          -7.8485  -19.8167   19.6627 C.3     1  UNL1        0.1076
     11 C          -9.0892  -20.2177   18.9212 C.2     1  UNL1        0.3169
     12 O          -9.1397  -21.0317   17.6623 O.2     1  UNL1       -0.2501
     13 O         -10.2705  -19.6618   19.6596 O.3     1  UNL1       -0.4485
     14 C          -9.7600  -18.9172   20.8575 C.3     1  UNL1        0.2095
     15 C          -8.2630  -19.0129   20.8594 C.3     1  UNL1        0.0628
     16 H          -2.4971  -17.4140   23.8975 H       1  UNL1        0.2923
     17 C          -7.1917  -15.7337   24.6685 C.ar    1  UNL1        0.1718
     18 C          -6.7771  -16.5374   23.4718 C.ar    1  UNL1        0.0361
     19 C          -7.6384  -17.6683   22.9929 C.ar    1  UNL1       -0.0151
     20 C          -8.9143  -17.9953   23.7107 C.ar    1  UNL1       -0.0006
     21 C          -9.3289  -17.1916   24.9073 C.ar    1  UNL1        0.0395
     22 C          -8.4676  -16.0607   25.3863 C.ar    1  UNL1        0.1677
     23 O          -8.8821  -15.2570   26.5830 O.3     1  UNL1       -0.5029
     24 H          -9.6791  -15.4613   27.0313 H       1  UNL1        0.2923
     25 C          -5.2154  -14.8672   26.1155 C.3     1  UNL1        0.2526
     26 O          -6.3304  -14.6029   25.1474 O.3     1  UNL1       -0.4684
     27 O          -1.4089  -19.5237   20.7565 O.3     1  UNL1       -0.4684
     28 C          -0.5780  -18.5005   20.0404 C.3     1  UNL1        0.2526
@<TRIPOS>BOND
     1    25    26    1
     2    26    17    1
     3    17    18   ar
     4    18    19   ar
     5     1    19    1
     6     1     2    1
     7     2     3   ar
     8     3     4   ar
     9     4     5    1
    10     4     6   ar
    11     6    27    1
    12    27    28    1
    13     6     7   ar
    14     7     8   ar
    15     8     9    1
    16    10     9    1
    17    10    11    1
    18    11    12    2
    19    11    13    1
    20    13    14    1
    21    15    14    1
    22    19    20   ar
    23    20    21   ar
    24    21    22   ar
    25    22    23    1
    26    22    17   ar
    27    15     1    1
    28     8     2   ar
    29    15    10    1
    30     5    16    1
    31    23    24    1
@<TRIPOS>MOLECULE
*****
 28 31 0 0 0
SMALL
GASTEIGER

@<TRIPOS>ATOM
      1 C           3.9561   -1.3742   22.6028 C.3     1  UNL1        0.0486
      2 C           2.7795   -0.6222   22.0549 C.ar    1  UNL1       -0.0190
      3 C           2.1499    0.4756   22.8604 C.ar    1  UNL1        0.0355
      4 C           0.9734    1.2276   22.3125 C.ar    1  UNL1        0.1674
      5 O           0.3438    2.3253   23.1179 O.3     1  UNL1       -0.5029
      6 C           0.4262    0.8818   20.9593 C.ar    1  UNL1        0.1718
      7 C           1.0558   -0.2159   20.1539 C.ar    1  UNL1        0.0355
      8 C           2.2325   -0.9679   20.7018 C.ar    1  UNL1       -0.0221
      9 C           2.8620   -2.0657   19.8964 C.3     1  UNL1        0.0374
     10 C           4.0386   -2.8177   20.4442 C.3     1  UNL1        0.1076
     11 C           4.8613   -3.9402   19.8846 C.2     1  UNL1        0.3169
     12 O           4.6632   -4.5991   18.5517 O.2     1  UNL1       -0.2501
     13 O           5.9167   -4.2882   20.8920 O.3     1  UNL1       -0.4485
     14 C           5.7464   -3.3807   22.0742 C.3     1  UNL1        0.2095
     15 C           4.5856   -2.4719   21.7975 C.3     1  UNL1        0.0628
     16 H           0.6855    2.5413   23.9632 H       1  UNL1        0.2923
     17 C           4.3391   -1.1452   26.5463 C.ar    1  UNL1        0.1718
     18 C           3.7920   -1.4910   25.1931 C.ar    1  UNL1        0.0361
     19 C           4.5031   -1.0284   23.9560 C.ar    1  UNL1       -0.0151
     20 C           5.7613   -0.2199   24.0722 C.ar    1  UNL1       -0.0006
     21 C           6.3083    0.1259   25.4253 C.ar    1  UNL1        0.0395
     22 C           5.5973   -0.3367   26.6625 C.ar    1  UNL1        0.1677
     23 O           6.1443    0.0090   28.0156 O.3     1  UNL1       -0.5029
     24 H           6.9302    0.5140   28.0881 H       1  UNL1        0.2923
     25 C           2.6184   -0.7175   28.4454 C.3     1  UNL1        0.2526
     26 O           3.6280   -1.6078   27.7833 O.3     1  UNL1       -0.4684
     27 O          -0.7503    1.6338   20.4114 O.3     1  UNL1       -0.4684
     28 C          -0.5473    2.9627   19.7460 C.3     1  UNL1        0.2526
@<TRIPOS>BOND
     1    25    26    1
     2    26    17    1
     3    17    18   ar
     4    18    19   ar
     5     1    19    1
     6     1     2    1
     7     2     3   ar
     8     3     4   ar
     9     4     5    1
    10     4     6   ar
    11     6    27    1
    12    27    28    1
    13     6     7   ar
    14     7     8   ar
    15     8     9    1
    16    10     9    1
    17    10    11    1
    18    11    12    2
    19    11    13    1
    20    13    14    1
    21    15    14    1
    22    19    20   ar
    23    20    21   ar
    24    21    22   ar
    25    22    23    1
    26    22    17   ar
    27    15     1    1
    28     8     2   ar
    29    15    10    1
    30     5    16    1
    31    23    24    1
@<TRIPOS>MOLECULE
*****
 28 31 0 0 0
SMALL
GASTEIGER

@<TRIPOS>ATOM
      1 C          -7.1620  -18.6057   21.5896 C.3     1  UNL1        0.0486
      2 C          -5.6948  -18.8221   21.3651 C.ar    1  UNL1       -0.0190
      3 C          -4.6965  -18.2507   22.3280 C.ar    1  UNL1        0.0355
      4 C          -3.2292  -18.4671   22.1035 C.ar    1  UNL1        0.1674
      5 O          -2.2310  -17.8958   23.0663 O.3     1  UNL1       -0.5029
      6 C          -2.7602  -19.2549   20.9163 C.ar    1  UNL1        0.1718
      7 C          -3.7585  -19.8263   19.9535 C.ar    1  UNL1        0.0355
      8 C          -5.2258  -19.6098   20.1780 C.ar    1  UNL1       -0.0221
      9 C          -6.2241  -20.1812   19.2151 C.3     1  UNL1        0.0374
     10 C          -7.6914  -19.9648   19.4396 C.3     1  UNL1        0.1076
     11 C          -8.9002  -20.4032   18.6673 C.2     1  UNL1        0.3169
     12 O          -8.8941  -21.2157   17.4064 O.2     1  UNL1       -0.2501
     13 O         -10.1163  -19.8863   19.3772 O.3     1  UNL1       -0.4485
     14 C          -9.6590  -19.1285   20.5883 C.3     1  UNL1        0.2095
     15 C          -8.1603  -19.1770   20.6268 C.3     1  UNL1        0.0628
     16 H          -2.5239  -17.4037   23.8079 H       1  UNL1        0.2923
     17 C          -9.2383  -17.5373   24.7986 C.ar    1  UNL1        0.1718
     18 C          -8.7695  -18.3251   23.6113 C.ar    1  UNL1        0.0361
     19 C          -7.6309  -17.8179   22.7768 C.ar    1  UNL1       -0.0151
     20 C          -6.9612  -16.5228   23.1296 C.ar    1  UNL1       -0.0006
     21 C          -7.4301  -15.7350   24.3168 C.ar    1  UNL1        0.0395
     22 C          -8.5687  -16.2423   25.1513 C.ar    1  UNL1        0.1677
     23 O          -9.0376  -15.4545   26.3385 O.3     1  UNL1       -0.5029
     24 H          -8.6192  -14.6455   26.5588 H       1  UNL1        0.2923
     25 C         -11.5088  -18.7863   24.9860 C.3     1  UNL1        0.2526
     26 O         -10.3769  -18.0445   25.6331 O.3     1  UNL1       -0.4684
     27 O          -1.2930  -19.4713   20.6918 O.3     1  UNL1       -0.4684
     28 C          -0.4779  -18.4218   19.9960 C.3     1  UNL1        0.2526
@<TRIPOS>BOND
     1    25    26    1
     2    26    17    1
     3    17    18   ar
     4    18    19   ar
     5     1    19    1
     6     1     2    1
     7     2     3   ar
     8     3     4   ar
     9     4     5    1
    10     4     6   ar
    11     6    27    1
    12    27    28    1
    13     6     7   ar
    14     7     8   ar
    15     8     9    1
    16    10     9    1
    17    10    11    1
    18    11    12    2
    19    11    13    1
    20    13    14    1
    21    15    14    1
    22    19    20   ar
    23    20    21   ar
    24    21    22   ar
    25    22    23    1
    26    22    17   ar
    27    15     1    1
    28     8     2   ar
    29    15    10    1
    30     5    16    1
    31    23    24    1
@<TRIPOS>MOLECULE
*****
 28 31 0 0 0
SMALL
GASTEIGER

@<TRIPOS>ATOM
      1 C          -8.0643  -18.2536   21.7461 C.3     1  UNL1        0.0486
      2 C          -7.9043  -17.3713   22.9486 C.ar    1  UNL1       -0.0190
      3 C          -6.5509  -17.1866   23.5685 C.ar    1  UNL1        0.0355
      4 C          -6.3909  -16.3043   24.7709 C.ar    1  UNL1        0.1674
      5 O          -5.0376  -16.1196   25.3909 O.3     1  UNL1       -0.5029
      6 C          -7.5842  -15.6067   25.3536 C.ar    1  UNL1        0.1718
      7 C          -8.9376  -15.7914   24.7336 C.ar    1  UNL1        0.0355
      8 C          -9.0976  -16.6738   23.5311 C.ar    1  UNL1       -0.0221
      9 C         -10.4510  -16.8585   22.9112 C.3     1  UNL1        0.0374
     10 C         -10.6110  -17.7408   21.7087 C.3     1  UNL1        0.1076
     11 C         -11.8108  -18.1111   20.8881 C.2     1  UNL1        0.3169
     12 O         -13.2157  -17.6380   21.1170 O.2     1  UNL1       -0.2501
     13 O         -11.3589  -19.0375   19.7984 O.3     1  UNL1       -0.4485
     14 C          -9.8799  -19.2398   19.9455 C.3     1  UNL1        0.2095
     15 C          -9.4177  -18.4383   21.1262 C.3     1  UNL1        0.0628
     16 H          -4.2921  -16.5553   25.0270 H       1  UNL1        0.2923
     17 C          -4.6368  -18.8626   19.8406 C.ar    1  UNL1        0.1718
     18 C          -5.8301  -18.1649   20.4231 C.ar    1  UNL1        0.0361
     19 C          -6.8710  -18.9512   21.1636 C.ar    1  UNL1       -0.0151
     20 C          -6.7185  -20.4351   21.3216 C.ar    1  UNL1       -0.0006
     21 C          -5.5253  -21.1327   20.7391 C.ar    1  UNL1        0.0395
     22 C          -4.4843  -20.3464   19.9985 C.ar    1  UNL1        0.1677
     23 O          -3.2911  -21.0440   19.4161 O.3     1  UNL1       -0.5029
     24 H          -3.1958  -21.9709   19.5148 H       1  UNL1        0.2923
     25 C          -2.3609  -17.6097   19.8122 C.3     1  UNL1        0.2526
     26 O          -3.5959  -18.0763   19.1000 O.3     1  UNL1       -0.4684
     27 O          -7.4242  -14.7244   26.5560 O.3     1  UNL1       -0.4684
     28 C          -8.3218  -14.9057   27.7441 C.3     1  UNL1        0.2526
@<TRIPOS>BOND
     1    25    26    1
     2    26    17    1
     3    17    18   ar
     4    18    19   ar
     5     1    19    1
     6     1     2    1
     7     2     3   ar
     8     3     4   ar
     9     4     5    1
    10     4     6   ar
    11     6    27    1
    12    27    28    1
    13     6     7   ar
    14     7     8   ar
    15     8     9    1
    16    10     9    1
    17    10    11    1
    18    11    12    2
    19    11    13    1
    20    13    14    1
    21    15    14    1
    22    19    20   ar
    23    20    21   ar
    24    21    22   ar
    25    22    23    1
    26    22    17   ar
    27    15     1    1
    28     8     2   ar
    29    15    10    1
    30     5    16    1
    31    23    24    1
@<TRIPOS>MOLECULE
*****
 28 31 0 0 0
SMALL
GASTEIGER

@<TRIPOS>ATOM
      1 C           1.8668    0.6673   23.3986 C.3     1  UNL1        0.0486
      2 C           2.8511   -0.4638   23.4393 C.ar    1  UNL1       -0.0190
      3 C           3.5009   -0.8463   24.7361 C.ar    1  UNL1        0.0355
      4 C           4.4852   -1.9774   24.7767 C.ar    1  UNL1        0.1674
      5 O           5.1350   -2.3600   26.0734 O.3     1  UNL1       -0.5029
      6 C           4.8198   -2.7261   23.5207 C.ar    1  UNL1        0.1718
      7 C           4.1700   -2.3436   22.2240 C.ar    1  UNL1        0.0355
      8 C           3.1856   -1.2124   22.1833 C.ar    1  UNL1       -0.0221
      9 C           2.5359   -0.8299   20.8865 C.3     1  UNL1        0.0374
     10 C           1.5516    0.3012   20.8459 C.3     1  UNL1        0.1076
     11 C           0.7577    0.9010   19.7233 C.2     1  UNL1        0.3169
     12 O           0.7843    0.4591   18.2902 O.2     1  UNL1       -0.2501
     13 O          -0.0675    2.0203   20.2857 O.3     1  UNL1       -0.4485
     14 C           0.2164    2.1123   21.7557 C.3     1  UNL1        0.2095
     15 C           1.2170    1.0498   22.1019 C.3     1  UNL1        0.0628
     16 H           4.9260   -1.8923   26.8580 H       1  UNL1        0.2923
     17 C          -0.0350    1.8111   26.6888 C.ar    1  UNL1        0.1718
     18 C           0.2995    1.0624   25.4327 C.ar    1  UNL1        0.0361
     19 C           1.5322    1.4159   24.6547 C.ar    1  UNL1       -0.0151
     20 C           2.4306    2.5180   25.1328 C.ar    1  UNL1       -0.0006
     21 C           2.0961    3.2666   26.3888 C.ar    1  UNL1        0.0395
     22 C           0.8632    2.9132   27.1668 C.ar    1  UNL1        0.1677
     23 O           0.5287    3.6617   28.4228 O.3     1  UNL1       -0.5029
     24 H           1.0899    4.3502   28.7214 H       1  UNL1        0.2923
     25 C          -1.1779    0.5062   28.6230 C.3     1  UNL1        0.2526
     26 O          -1.2678    1.4576   27.4668 O.3     1  UNL1       -0.4684
     27 O           5.8041   -3.8572   23.5613 O.3     1  UNL1       -0.4684
     28 C           6.9617   -3.8787   22.6076 C.3     1  UNL1        0.2526
@<TRIPOS>BOND
     1    25    26    1
     2    26    17    1
     3    17    18   ar
     4    18    19   ar
     5     1    19    1
     6     1     2    1
     7     2     3   ar
     8     3     4   ar
     9     4     5    1
    10     4     6   ar
    11     6    27    1
    12    27    28    1
    13     6     7   ar
    14     7     8   ar
    15     8     9    1
    16    10     9    1
    17    10    11    1
    18    11    12    2
    19    11    13    1
    20    13    14    1
    21    15    14    1
    22    19    20   ar
    23    20    21   ar
    24    21    22   ar
    25    22    23    1
    26    22    17   ar
    27    15     1    1
    28     8     2   ar
    29    15    10    1
    30     5    16    1
    31    23    24    1
@<TRIPOS>MOLECULE
*****
 28 31 0 0 0
SMALL
GASTEIGER

@<TRIPOS>ATOM
      1 C           2.1045    3.5612   35.1667 C.3     1  UNL1        0.0486
      2 C           2.2267    2.6519   33.9801 C.ar    1  UNL1       -0.0190
      3 C           3.1268    1.4535   34.0431 C.ar    1  UNL1        0.0355
      4 C           3.2490    0.5442   32.8565 C.ar    1  UNL1        0.1674
      5 O           4.1490   -0.6542   32.9195 O.3     1  UNL1       -0.5029
      6 C           2.4713    0.8331   31.6068 C.ar    1  UNL1        0.1718
      7 C           1.5713    2.0314   31.5438 C.ar    1  UNL1        0.0355
      8 C           1.4491    2.9408   32.7305 C.ar    1  UNL1       -0.0221
      9 C           0.5490    4.1392   32.6674 C.3     1  UNL1        0.0374
     10 C           0.4267    5.0485   33.8541 C.3     1  UNL1        0.1076
     11 C          -0.3749    6.2952   34.0848 C.2     1  UNL1        0.3169
     12 O          -1.2970    6.9460   33.0968 O.2     1  UNL1       -0.2501
     13 O          -0.0926    6.7766   35.4771 O.3     1  UNL1       -0.4485
     14 C           0.8835    5.8276   36.1068 C.3     1  UNL1        0.2095
     15 C           1.2045    4.7595   35.1037 C.3     1  UNL1        0.0628
     16 H           4.6349   -0.8347   33.7001 H       1  UNL1        0.2923
     17 C           3.1349    1.9948   38.6645 C.ar    1  UNL1        0.1718
     18 C           2.3570    2.2837   37.4149 C.ar    1  UNL1        0.0361
     19 C           2.8822    3.2722   36.4163 C.ar    1  UNL1       -0.0151
     20 C           4.1852    3.9717   36.6675 C.ar    1  UNL1       -0.0006
     21 C           4.9630    3.6828   37.9170 C.ar    1  UNL1        0.0395
     22 C           4.4378    2.6943   38.9156 C.ar    1  UNL1        0.1677
     23 O           5.2155    2.4053   40.1652 O.3     1  UNL1       -0.5029
     24 H           6.0294    2.8422   40.3220 H       1  UNL1        0.2923
     25 C           1.3032    0.3120   39.4153 C.3     1  UNL1        0.2526
     26 O           2.6097    1.0063   39.6630 O.3     1  UNL1       -0.4684
     27 O           2.5936   -0.0762   30.4201 O.3     1  UNL1       -0.4684
     28 C           1.4460   -0.2214   29.4651 C.3     1  UNL1        0.2526
@<TRIPOS>BOND
     1    25    26    1
     2    26    17    1
     3    17    18   ar
     4    18    19   ar
     5     1    19    1
     6     1     2    1
     7     2     3   ar
     8     3     4   ar
     9     4     5    1
    10     4     6   ar
    11     6    27    1
    12    27    28    1
    13     6     7   ar
    14     7     8   ar
    15     8     9    1
    16    10     9    1
    17    10    11    1
    18    11    12    2
    19    11    13    1
    20    13    14    1
    21    15    14    1
    22    19    20   ar
    23    20    21   ar
    24    21    22   ar
    25    22    23    1
    26    22    17   ar
    27    15     1    1
    28     8     2   ar
    29    15    10    1
    30     5    16    1
    31    23    24    1
