@<TRIPOS>MOLECULE
*****
 36 38 0 0 0
SMALL
GASTEIGER

@<TRIPOS>ATOM
      1 C           3.6189   -0.6983   21.7756 C.ar    1  UNL1       -0.0185
      2 C           2.8028    0.2486   22.6048 C.ar    1  UNL1       -0.0041
      3 C           1.6655    1.0023   21.9816 C.ar    1  UNL1        0.0057
      4 C           1.3442    0.8091   20.5292 C.ar    1  UNL1        0.0696
      5 C           2.1602   -0.1378   19.7000 C.ar    1  UNL1        0.0095
      6 C           3.2976   -0.8915   20.3232 C.ar    1  UNL1        0.0677
      7 C           8.1681   -3.7132   24.2686 C.2     1  UNL1        0.2497
      8 O           9.5351   -3.0981   24.3230 O.2     1  UNL1       -0.2699
      9 N           7.0308   -2.9595   23.6454 N.am    1  UNL1       -0.2760
     10 C           7.2604   -1.5906   23.0765 C.3     1  UNL1        0.0940
     11 C           6.1232   -0.8369   22.4533 C.3     1  UNL1        0.0259
     12 C           4.7562   -1.4520   22.3989 C.3     1  UNL1        0.0257
     13 C           4.5265   -2.8208   22.9676 C.3     1  UNL1        0.0259
     14 C           5.6638   -3.5746   23.5909 C.3     1  UNL1        0.0940
     15 C           7.3255   -5.2358   26.1978 C.ar    1  UNL1        0.0728
     16 C           7.0959   -6.6047   26.7666 C.ar    1  UNL1        0.0104
     17 C           7.4791   -7.8198   25.9749 C.ar    1  UNL1        0.0007
     18 C           8.0920   -7.6660   24.6145 C.ar    1  UNL1        0.0002
     19 C           8.3216   -6.2972   24.0458 C.ar    1  UNL1        0.0052
     20 C           7.9384   -5.0821   24.8374 C.ar    1  UNL1        0.0632
     21 N           6.5591   -2.8056   27.7811 N.1     1  UNL1       -0.1908
     22 C           6.9423   -4.0207   26.9894 C.1     1  UNL1        0.1006
     23 C           0.2069    1.5628   19.9060 C.2     1  UNL1        0.3078
     24 O           0.1166    1.6852   18.4137 O.2     1  UNL1       -0.2516
     25 N          -0.8401    2.1942   20.7750 N.am    1  UNL1       -0.1708
     26 H          -0.7809    2.1138   21.7544 H       1  UNL1        0.2545
     27 C          -1.9774    2.9479   20.1518 C.2     1  UNL1        0.3751
     28 N          -1.7179    3.8935   19.0167 N.pl3   1  UNL1       -0.1313
     29 N          -3.3743    2.7560   20.6637 N.pl3   1  UNL1       -0.2906
     30 H          -0.8011    4.0194   18.6807 H       1  UNL1        0.3060
     31 H          -3.5446    2.1354   21.4087 H       1  UNL1        0.2545
     32 H          -4.1208    3.2507   20.2546 H       1  UNL1        0.2545
     33 C           4.1135   -1.8384   19.4941 C.3     1  UNL1        0.4183
     34 F           4.9295   -2.7853   18.6649 F       1  UNL1       -0.1659
     35 F           3.1523   -2.9452   19.8121 F       1  UNL1       -0.1659
     36 F           5.0747   -0.7316   19.1761 F       1  UNL1       -0.1659
@<TRIPOS>BOND
     1    21    22    3
     2    22    15    1
     3    15    16   ar
     4    16    17   ar
     5    17    18   ar
     6    18    19   ar
     7    19    20   ar
     8    20     7    1
     9     7     8    2
    10     7     9   am
    11     9    10    1
    12    10    11    1
    13    11    12    1
    14    12     1    1
    15     1     2   ar
    16     2     3   ar
    17     3     4   ar
    18     4    23    1
    19    23    24    2
    20    23    25   am
    21    25    27    1
    22    27    28    2
    23    27    29    1
    24     4     5   ar
    25     5     6   ar
    26     6    33    1
    27    33    34    1
    28    33    35    1
    29    33    36    1
    30    12    13    1
    31    13    14    1
    32    20    15   ar
    33    14     9    1
    34     6     1   ar
    35    25    26    1
    36    28    30    1
    37    29    31    1
    38    29    32    1
@<TRIPOS>MOLECULE
*****
 36 38 0 0 0
SMALL
GASTEIGER

@<TRIPOS>ATOM
      1 C          -0.8042    2.6773   21.8475 C.ar    1  UNL1       -0.0185
      2 C          -1.8819    2.9130   20.8310 C.ar    1  UNL1       -0.0041
      3 C          -3.1591    3.5880   21.2348 C.ar    1  UNL1        0.0057
      4 C          -3.3587    4.0274   22.6551 C.ar    1  UNL1        0.0696
      5 C          -2.2811    3.7918   23.6715 C.ar    1  UNL1        0.0095
      6 C          -1.0038    3.1167   23.2678 C.ar    1  UNL1        0.0677
      7 C           4.3046   -0.0228   20.2323 C.2     1  UNL1        0.2497
      8 O           5.4873    0.7991   19.8130 O.2     1  UNL1       -0.2699
      9 N           3.0274    0.6522   20.6361 N.am    1  UNL1       -0.2760
     10 C           2.9328    2.1492   20.6206 C.3     1  UNL1        0.0940
     11 C           1.6557    2.8242   21.0244 C.3     1  UNL1        0.0259
     12 C           0.4730    2.0023   21.4437 C.3     1  UNL1        0.0257
     13 C           0.5675    0.5054   21.4592 C.3     1  UNL1        0.0259
     14 C           1.8448   -0.1697   21.0554 C.3     1  UNL1        0.0940
     15 C           4.3213   -2.2895   18.9627 C.ar    1  UNL1        0.0728
     16 C           4.4159   -3.7864   18.9782 C.ar    1  UNL1        0.0104
     17 C           4.5883   -4.5136   20.2788 C.ar    1  UNL1        0.0007
     18 C           4.6662   -3.7438   21.5639 C.ar    1  UNL1        0.0002
     19 C           4.5717   -2.2469   21.5483 C.ar    1  UNL1        0.0052
     20 C           4.3992   -1.5198   20.2478 C.ar    1  UNL1        0.0632
     21 N           3.9763   -0.8352   16.3616 N.1     1  UNL1       -0.1908
     22 C           4.1488   -1.5623   17.6621 C.1     1  UNL1        0.1006
     23 C          -4.6358    4.7024   23.0589 C.2     1  UNL1        0.3078
     24 O          -4.7397    6.1982   23.0159 O.2     1  UNL1       -0.2516
     25 N          -5.8092    3.8816   23.5058 N.am    1  UNL1       -0.1708
     26 H          -5.7410    2.8999   23.5340 H       1  UNL1        0.2545
     27 C          -7.0864    4.5567   23.9096 C.2     1  UNL1        0.3751
     28 N          -8.4045    3.9950   23.4655 N.pl3   1  UNL1       -0.1313
     29 N          -7.0455    5.7934   24.7574 N.pl3   1  UNL1       -0.2906
     30 H          -8.4313    3.1833   22.9091 H       1  UNL1        0.3060
     31 H          -6.1804    6.1621   25.0489 H       1  UNL1        0.2545
     32 H          -7.8838    6.2365   25.0225 H       1  UNL1        0.2545
     33 C           0.0738    2.8811   24.2842 C.3     1  UNL1        0.4183
     34 F           1.1514    2.6455   25.3007 F       1  UNL1       -0.1659
     35 F           0.6944    4.2005   23.9322 F       1  UNL1       -0.1659
     36 F          -0.5467    1.5617   24.6362 F       1  UNL1       -0.1659
@<TRIPOS>BOND
     1    21    22    3
     2    22    15    1
     3    15    16   ar
     4    16    17   ar
     5    17    18   ar
     6    18    19   ar
     7    19    20   ar
     8    20     7    1
     9     7     8    2
    10     7     9   am
    11     9    10    1
    12    10    11    1
    13    11    12    1
    14    12     1    1
    15     1     2   ar
    16     2     3   ar
    17     3     4   ar
    18     4    23    1
    19    23    24    2
    20    23    25   am
    21    25    27    1
    22    27    28    2
    23    27    29    1
    24     4     5   ar
    25     5     6   ar
    26     6    33    1
    27    33    34    1
    28    33    35    1
    29    33    36    1
    30    12    13    1
    31    13    14    1
    32    20    15   ar
    33    14     9    1
    34     6     1   ar
    35    25    26    1
    36    28    30    1
    37    29    31    1
    38    29    32    1
@<TRIPOS>MOLECULE
*****
 36 38 0 0 0
SMALL
GASTEIGER

@<TRIPOS>ATOM
      1 C           1.5512    1.4673   27.8617 C.ar    1  UNL1       -0.0185
      2 C           3.0460    1.5055   27.7423 C.ar    1  UNL1       -0.0041
      3 C           3.8921    0.6506   28.6386 C.ar    1  UNL1        0.0057
      4 C           3.2434   -0.2425   29.6542 C.ar    1  UNL1        0.0696
      5 C           1.7487   -0.2807   29.7737 C.ar    1  UNL1        0.0095
      6 C           0.9025    0.5742   28.8774 C.ar    1  UNL1        0.0677
      7 C          -1.8329    4.8869   24.2766 C.2     1  UNL1        0.2497
      8 O          -2.1304    6.3071   24.6568 O.2     1  UNL1       -0.2699
      9 N          -0.9869    4.0320   25.1728 N.am    1  UNL1       -0.2760
     10 C          -0.4383    4.5973   26.4494 C.3     1  UNL1        0.0940
     11 C           0.4077    3.7424   27.3457 C.3     1  UNL1        0.0259
     12 C           0.7052    2.3222   26.9654 C.3     1  UNL1        0.0257
     13 C           0.1567    1.7569   25.6889 C.3     1  UNL1        0.0259
     14 C          -0.6894    2.6118   24.7926 C.3     1  UNL1        0.0940
     15 C          -3.7516    3.7115   22.9777 C.ar    1  UNL1        0.0728
     16 C          -4.3002    3.1463   21.7011 C.ar    1  UNL1        0.0104
     17 C          -3.4786    3.1912   20.4469 C.ar    1  UNL1        0.0007
     18 C          -2.1085    3.8014   20.4693 C.ar    1  UNL1        0.0002
     19 C          -1.5600    4.3666   21.7458 C.ar    1  UNL1        0.0052
     20 C          -2.3815    4.3217   23.0000 C.ar    1  UNL1        0.0632
     21 N          -5.3947    3.6217   25.4861 N.1     1  UNL1       -0.1908
     22 C          -4.5732    3.6666   24.2319 C.1     1  UNL1        0.1006
     23 C           4.0894   -1.0974   30.5505 C.2     1  UNL1        0.3078
     24 O           5.3969   -1.6398   30.0542 O.2     1  UNL1       -0.2516
     25 N           3.6280   -1.4100   31.9432 N.am    1  UNL1       -0.1708
     26 H           2.7698   -1.0540   32.2689 H       1  UNL1        0.2545
     27 C           4.4740   -2.2649   32.8394 C.2     1  UNL1        0.3751
     28 N           3.8473   -3.3806   33.6221 N.pl3   1  UNL1       -0.1313
     29 N           5.9469   -2.0042   32.9531 N.pl3   1  UNL1       -0.2906
     30 H           2.8807   -3.5517   33.5475 H       1  UNL1        0.3060
     31 H           6.3582   -1.2719   32.4394 H       1  UNL1        0.2545
     32 H           6.5021   -2.5653   33.5413 H       1  UNL1        0.2545
     33 C          -0.5922    0.5361   28.9968 C.3     1  UNL1        0.4183
     34 F          -2.0869    0.4979   29.1162 F       1  UNL1       -0.1659
     35 F          -0.6465   -0.5540   27.9679 F       1  UNL1       -0.1659
     36 F          -0.5378    1.6261   30.0258 F       1  UNL1       -0.1659
@<TRIPOS>BOND
     1    21    22    3
     2    22    15    1
     3    15    16   ar
     4    16    17   ar
     5    17    18   ar
     6    18    19   ar
     7    19    20   ar
     8    20     7    1
     9     7     8    2
    10     7     9   am
    11     9    10    1
    12    10    11    1
    13    11    12    1
    14    12     1    1
    15     1     2   ar
    16     2     3   ar
    17     3     4   ar
    18     4    23    1
    19    23    24    2
    20    23    25   am
    21    25    27    1
    22    27    28    2
    23    27    29    1
    24     4     5   ar
    25     5     6   ar
    26     6    33    1
    27    33    34    1
    28    33    35    1
    29    33    36    1
    30    12    13    1
    31    13    14    1
    32    20    15   ar
    33    14     9    1
    34     6     1   ar
    35    25    26    1
    36    28    30    1
    37    29    31    1
    38    29    32    1
@<TRIPOS>MOLECULE
*****
 36 38 0 0 0
SMALL
GASTEIGER

@<TRIPOS>ATOM
      1 C           2.5339   -0.0020   22.0511 C.ar    1  UNL1       -0.0185
      2 C           2.7946   -0.2547   23.5065 C.ar    1  UNL1       -0.0041
      3 C           3.7072   -1.3701   23.9224 C.ar    1  UNL1        0.0057
      4 C           4.3592   -2.2328   22.8828 C.ar    1  UNL1        0.0696
      5 C           4.0985   -1.9802   21.4274 C.ar    1  UNL1        0.0095
      6 C           3.1859   -0.8647   21.0115 C.ar    1  UNL1        0.0677
      7 C          -1.1167    4.4596   20.3877 C.2     1  UNL1        0.2497
      8 O          -0.6773    5.8855   20.5426 O.2     1  UNL1       -0.2699
      9 N          -0.2040    3.3442   20.8035 N.am    1  UNL1       -0.2760
     10 C           1.1480    3.6546   21.3743 C.3     1  UNL1        0.0940
     11 C           2.0606    2.5392   21.7902 C.3     1  UNL1        0.0259
     12 C           1.6213    1.1134   21.6352 C.3     1  UNL1        0.0257
     13 C           0.2693    0.8030   21.0645 C.3     1  UNL1        0.0259
     14 C          -0.6434    1.9184   20.6486 C.3     1  UNL1        0.0940
     15 C          -3.6124    3.8245   20.7314 C.ar    1  UNL1        0.0728
     16 C          -4.9643    3.5141   20.1606 C.ar    1  UNL1        0.0104
     17 C          -5.1726    3.5285   18.6752 C.ar    1  UNL1        0.0007
     18 C          -4.0289    3.8532   17.7606 C.ar    1  UNL1        0.0002
     19 C          -2.6770    4.1636   18.3315 C.ar    1  UNL1        0.0052
     20 C          -2.4687    4.1492   19.8169 C.ar    1  UNL1        0.0632
     21 N          -3.1958    3.7957   23.7022 N.1     1  UNL1       -0.1908
     22 C          -3.4041    3.8101   22.2168 C.1     1  UNL1        0.1006
     23 C           5.2718   -3.3482   23.2987 C.2     1  UNL1        0.3078
     24 O           5.7074   -4.3746   22.2952 O.2     1  UNL1       -0.2516
     25 N           5.7489   -3.4374   24.7180 N.am    1  UNL1       -0.1708
     26 H           5.4630   -2.7637   25.3766 H       1  UNL1        0.2545
     27 C           6.6615   -4.5527   25.1339 C.2     1  UNL1        0.3751
     28 N           6.4620   -5.2314   26.4566 N.pl3   1  UNL1       -0.1313
     29 N           7.7737   -4.9895   24.2270 N.pl3   1  UNL1       -0.2906
     30 H           5.7321   -4.9448   27.0518 H       1  UNL1        0.3060
     31 H           7.9046   -4.5441   23.3588 H       1  UNL1        0.2545
     32 H           8.3726   -5.7216   24.4999 H       1  UNL1        0.2545
     33 C           2.9253   -0.6120   19.5561 C.3     1  UNL1        0.4183
     34 F           2.6646   -0.3593   18.1008 F       1  UNL1       -0.1659
     35 F           4.0246    0.4082   19.5364 F       1  UNL1       -0.1659
     36 F           1.8259   -1.6323   19.5759 F       1  UNL1       -0.1659
@<TRIPOS>BOND
     1    21    22    3
     2    22    15    1
     3    15    16   ar
     4    16    17   ar
     5    17    18   ar
     6    18    19   ar
     7    19    20   ar
     8    20     7    1
     9     7     8    2
    10     7     9   am
    11     9    10    1
    12    10    11    1
    13    11    12    1
    14    12     1    1
    15     1     2   ar
    16     2     3   ar
    17     3     4   ar
    18     4    23    1
    19    23    24    2
    20    23    25   am
    21    25    27    1
    22    27    28    2
    23    27    29    1
    24     4     5   ar
    25     5     6   ar
    26     6    33    1
    27    33    34    1
    28    33    35    1
    29    33    36    1
    30    12    13    1
    31    13    14    1
    32    20    15   ar
    33    14     9    1
    34     6     1   ar
    35    25    26    1
    36    28    30    1
    37    29    31    1
    38    29    32    1
@<TRIPOS>MOLECULE
*****
 36 38 0 0 0
SMALL
GASTEIGER

@<TRIPOS>ATOM
      1 C           2.5698    0.0564   21.9349 C.ar    1  UNL1       -0.0185
      2 C           2.8150   -0.1550   23.3996 C.ar    1  UNL1       -0.0041
      3 C           3.7100   -1.2683   23.8573 C.ar    1  UNL1        0.0057
      4 C           4.3599   -2.1703   22.8502 C.ar    1  UNL1        0.0696
      5 C           4.1148   -1.9590   21.3856 C.ar    1  UNL1        0.0095
      6 C           3.2197   -0.8456   20.9279 C.ar    1  UNL1        0.0677
      7 C          -1.0103    4.5096   20.1044 C.2     1  UNL1        0.2497
      8 O          -0.4610    5.8964   19.9456 O.2     1  UNL1       -0.2699
      9 N          -0.1153    3.3963   20.5620 N.am    1  UNL1       -0.2760
     10 C           1.3291    3.6698   20.8609 C.3     1  UNL1        0.0940
     11 C           2.2241    2.5565   21.3185 C.3     1  UNL1        0.0259
     12 C           1.6748    1.1697   21.4773 C.3     1  UNL1        0.0257
     13 C           0.2306    0.8962   21.1785 C.3     1  UNL1        0.0259
     14 C          -0.6645    2.0096   20.7208 C.3     1  UNL1        0.0940
     15 C          -2.9100    4.0802   18.3849 C.ar    1  UNL1        0.0728
     16 C          -4.3543    3.8068   18.0861 C.ar    1  UNL1        0.0104
     17 C          -5.3431    3.6894   19.2080 C.ar    1  UNL1        0.0007
     18 C          -4.8876    3.8454   20.6286 C.ar    1  UNL1        0.0002
     19 C          -3.4434    4.1188   20.9273 C.ar    1  UNL1        0.0052
     20 C          -2.4546    4.2362   19.8055 C.ar    1  UNL1        0.0632
     21 N          -0.9324    4.3150   16.1413 N.1     1  UNL1       -0.1908
     22 C          -1.9212    4.1976   17.2631 C.1     1  UNL1        0.1006
     23 C           5.2549   -3.2836   23.3079 C.2     1  UNL1        0.3078
     24 O           5.6814   -4.3485   22.3414 O.2     1  UNL1       -0.2516
     25 N           5.7235   -3.3320   24.7320 N.am    1  UNL1       -0.1708
     26 H           5.4436   -2.6330   25.3664 H       1  UNL1        0.2545
     27 C           6.6185   -4.4453   25.1897 C.2     1  UNL1        0.3751
     28 N           7.7430   -4.9120   24.3135 N.pl3   1  UNL1       -0.1313
     29 N           6.3890   -5.0920   26.5236 N.pl3   1  UNL1       -0.2906
     30 H           7.8936   -4.4875   23.4380 H       1  UNL1        0.3060
     31 H           5.6510   -4.7857   27.0986 H       1  UNL1        0.2545
     32 H           6.9765   -5.8227   26.8239 H       1  UNL1        0.2545
     33 C           2.9746   -0.6343   19.4633 C.3     1  UNL1        0.4183
     34 F           2.7294   -0.4230   17.9986 F       1  UNL1       -0.1659
     35 F           1.7981   -1.5627   19.5262 F       1  UNL1       -0.1659
     36 F           4.1510    0.2941   19.4003 F       1  UNL1       -0.1659
@<TRIPOS>BOND
     1    21    22    3
     2    22    15    1
     3    15    16   ar
     4    16    17   ar
     5    17    18   ar
     6    18    19   ar
     7    19    20   ar
     8    20     7    1
     9     7     8    2
    10     7     9   am
    11     9    10    1
    12    10    11    1
    13    11    12    1
    14    12     1    1
    15     1     2   ar
    16     2     3   ar
    17     3     4   ar
    18     4    23    1
    19    23    24    2
    20    23    25   am
    21    25    27    1
    22    27    28    2
    23    27    29    1
    24     4     5   ar
    25     5     6   ar
    26     6    33    1
    27    33    34    1
    28    33    35    1
    29    33    36    1
    30    12    13    1
    31    13    14    1
    32    20    15   ar
    33    14     9    1
    34     6     1   ar
    35    25    26    1
    36    28    30    1
    37    29    31    1
    38    29    32    1
@<TRIPOS>MOLECULE
*****
 36 38 0 0 0
SMALL
GASTEIGER

@<TRIPOS>ATOM
      1 C           5.4974   -0.7327   34.2483 C.ar    1  UNL1       -0.0185
      2 C           4.6608   -1.8056   33.6165 C.ar    1  UNL1       -0.0041
      3 C           5.2861   -2.7809   32.6638 C.ar    1  UNL1        0.0057
      4 C           6.7481   -2.6834   32.3428 C.ar    1  UNL1        0.0696
      5 C           7.5848   -1.6106   32.9746 C.ar    1  UNL1        0.0095
      6 C           6.9594   -0.6352   33.9273 C.ar    1  UNL1        0.0677
      7 C           2.9958    3.1684   38.0592 C.2     1  UNL1        0.2497
      8 O           2.8473    2.8110   39.5084 O.2     1  UNL1       -0.2699
      9 N           3.6212    2.1932   37.1064 N.am    1  UNL1       -0.2760
     10 C           4.0981    0.8604   37.6029 C.3     1  UNL1        0.0940
     11 C           4.7234   -0.1149   36.6502 C.3     1  UNL1        0.0259
     12 C           4.8720    0.2425   35.2010 C.3     1  UNL1        0.0257
     13 C           4.3952    1.5752   34.7045 C.3     1  UNL1        0.0259
     14 C           3.7698    2.5506   35.6572 C.3     1  UNL1        0.0940
     15 C           3.4141    5.7010   37.6578 C.ar    1  UNL1        0.0728
     16 C           2.9372    7.0337   37.1613 C.ar    1  UNL1        0.0104
     17 C           1.5652    7.1665   36.5698 C.ar    1  UNL1        0.0007
     18 C           0.6701    5.9667   36.4747 C.ar    1  UNL1        0.0002
     19 C           1.1470    4.6340   36.9711 C.ar    1  UNL1        0.0052
     20 C           2.5190    4.5012   37.5627 C.ar    1  UNL1        0.0632
     21 N           6.1581    5.4353   38.8409 N.1     1  UNL1       -0.1908
     22 C           4.7861    5.5682   38.2493 C.1     1  UNL1        0.1006
     23 C           7.3735   -3.6586   31.3901 C.2     1  UNL1        0.3078
     24 O           8.8286   -3.5419   31.0449 O.2     1  UNL1       -0.2516
     25 N           6.5438   -4.7507   30.7826 N.am    1  UNL1       -0.1708
     26 H           5.5888   -4.8273   31.0091 H       1  UNL1        0.2545
     27 C           7.1692   -5.7260   29.8299 C.2     1  UNL1        0.3751
     28 N           6.5323   -5.9858   28.4969 N.pl3   1  UNL1       -0.1313
     29 N           8.4316   -6.4415   30.2101 N.pl3   1  UNL1       -0.2906
     30 H           5.7037   -5.5163   28.2473 H       1  UNL1        0.3060
     31 H           8.8497   -6.2709   31.0849 H       1  UNL1        0.2545
     32 H           8.8421   -7.0816   29.5848 H       1  UNL1        0.2545
     33 C           7.7960    0.4376   34.5591 C.3     1  UNL1        0.4183
     34 F           8.6327    1.5103   35.1908 F       1  UNL1       -0.1659
     35 F           8.0785   -0.4673   35.7216 F       1  UNL1       -0.1659
     36 F           7.5136    1.3424   33.3966 F       1  UNL1       -0.1659
@<TRIPOS>BOND
     1    21    22    3
     2    22    15    1
     3    15    16   ar
     4    16    17   ar
     5    17    18   ar
     6    18    19   ar
     7    19    20   ar
     8    20     7    1
     9     7     8    2
    10     7     9   am
    11     9    10    1
    12    10    11    1
    13    11    12    1
    14    12     1    1
    15     1     2   ar
    16     2     3   ar
    17     3     4   ar
    18     4    23    1
    19    23    24    2
    20    23    25   am
    21    25    27    1
    22    27    28    2
    23    27    29    1
    24     4     5   ar
    25     5     6   ar
    26     6    33    1
    27    33    34    1
    28    33    35    1
    29    33    36    1
    30    12    13    1
    31    13    14    1
    32    20    15   ar
    33    14     9    1
    34     6     1   ar
    35    25    26    1
    36    28    30    1
    37    29    31    1
    38    29    32    1
@<TRIPOS>MOLECULE
*****
 36 38 0 0 0
SMALL
GASTEIGER

@<TRIPOS>ATOM
      1 C           6.0880   -2.4833   25.0182 C.ar    1  UNL1       -0.0185
      2 C           5.4392   -2.0081   26.2845 C.ar    1  UNL1       -0.0041
      3 C           5.9493   -2.4832   27.6126 C.ar    1  UNL1        0.0057
      4 C           7.1082   -3.4335   27.6746 C.ar    1  UNL1        0.0696
      5 C           7.7571   -3.9086   26.4085 C.ar    1  UNL1        0.0095
      6 C           7.2470   -3.4335   25.0802 C.ar    1  UNL1        0.0677
      7 C           4.0475   -0.5828   19.7056 C.2     1  UNL1        0.2497
      8 O           2.9511   -1.3345   19.0108 O.2     1  UNL1       -0.2699
      9 N           4.5576   -1.0579   21.0338 N.am    1  UNL1       -0.2760
     10 C           3.9713   -2.2848   21.6672 C.3     1  UNL1        0.0940
     11 C           4.4814   -2.7599   22.9953 C.3     1  UNL1        0.0259
     12 C           5.5779   -2.0082   23.6901 C.3     1  UNL1        0.0257
     13 C           6.1642   -0.7813   23.0568 C.3     1  UNL1        0.0259
     14 C           5.6540   -0.3062   21.7286 C.3     1  UNL1        0.0940
     15 C           5.7813    0.5182   18.1145 C.ar    1  UNL1        0.0728
     16 C           6.3675    1.7451   17.4811 C.ar    1  UNL1        0.0104
     17 C           5.8063    3.0977   17.8056 C.ar    1  UNL1        0.0007
     18 C           4.6588    3.2236   18.7633 C.ar    1  UNL1        0.0002
     19 C           4.0725    1.9968   19.3967 C.ar    1  UNL1        0.0052
     20 C           4.6338    0.6441   19.0722 C.ar    1  UNL1        0.0632
     21 N           6.9038   -2.1871   17.4656 N.1     1  UNL1       -0.1908
     22 C           6.3425   -0.8344   17.7900 C.1     1  UNL1        0.1006
     23 C           7.6184   -3.9086   29.0028 C.2     1  UNL1        0.3078
     24 O           9.0950   -3.9980   29.2507 O.2     1  UNL1       -0.2516
     25 N           6.6518   -4.2943   30.0831 N.am    1  UNL1       -0.1708
     26 H           5.6826   -4.2356   29.9204 H       1  UNL1        0.2545
     27 C           7.1619   -4.7694   31.4112 C.2     1  UNL1        0.3751
     28 N           6.6001   -6.0159   32.0282 N.pl3   1  UNL1       -0.1313
     29 N           8.2340   -3.9980   32.1225 N.pl3   1  UNL1       -0.2906
     30 H           5.8966   -6.5222   31.5614 H       1  UNL1        0.3060
     31 H           8.6027   -3.1799   31.7176 H       1  UNL1        0.2545
     32 H           8.5688   -4.3098   32.9942 H       1  UNL1        0.2545
     33 C           7.8958   -3.9086   23.8141 C.3     1  UNL1        0.4183
     34 F           8.5446   -4.3838   22.5479 F       1  UNL1       -0.1659
     35 F           6.9479   -5.0701   23.7642 F       1  UNL1       -0.1659
     36 F           8.8437   -2.7472   23.8640 F       1  UNL1       -0.1659
@<TRIPOS>BOND
     1    21    22    3
     2    22    15    1
     3    15    16   ar
     4    16    17   ar
     5    17    18   ar
     6    18    19   ar
     7    19    20   ar
     8    20     7    1
     9     7     8    2
    10     7     9   am
    11     9    10    1
    12    10    11    1
    13    11    12    1
    14    12     1    1
    15     1     2   ar
    16     2     3   ar
    17     3     4   ar
    18     4    23    1
    19    23    24    2
    20    23    25   am
    21    25    27    1
    22    27    28    2
    23    27    29    1
    24     4     5   ar
    25     5     6   ar
    26     6    33    1
    27    33    34    1
    28    33    35    1
    29    33    36    1
    30    12    13    1
    31    13    14    1
    32    20    15   ar
    33    14     9    1
    34     6     1   ar
    35    25    26    1
    36    28    30    1
    37    29    31    1
    38    29    32    1
@<TRIPOS>MOLECULE
*****
 36 38 0 0 0
SMALL
GASTEIGER

@<TRIPOS>ATOM
      1 C           6.4037   -3.1104   24.8769 C.ar    1  UNL1       -0.0185
      2 C           5.7288   -2.4516   26.0434 C.ar    1  UNL1       -0.0041
      3 C           6.1608   -2.7782   27.4422 C.ar    1  UNL1        0.0057
      4 C           7.2677   -3.7635   27.6746 C.ar    1  UNL1        0.0696
      5 C           7.9426   -4.4223   26.5082 C.ar    1  UNL1        0.0095
      6 C           7.5106   -4.0957   25.1093 C.ar    1  UNL1        0.0677
      7 C           4.6759   -1.8041   19.2816 C.2     1  UNL1        0.2497
      8 O           3.7060   -2.6986   18.5680 O.2     1  UNL1       -0.2699
      9 N           5.1078   -2.1306   20.6804 N.am    1  UNL1       -0.2760
     10 C           4.5700   -3.3518   21.3657 C.3     1  UNL1        0.0940
     11 C           5.0020   -3.6784   22.7645 C.3     1  UNL1        0.0259
     12 C           5.9718   -2.7838   23.4781 C.3     1  UNL1        0.0257
     13 C           6.5096   -1.5627   22.7929 C.3     1  UNL1        0.0259
     14 C           6.0776   -1.2361   21.3940 C.3     1  UNL1        0.0940
     15 C           4.5226    0.7376   18.7653 C.ar    1  UNL1        0.0728
     16 C           5.0604    1.9587   18.0800 C.ar    1  UNL1        0.0104
     17 C           6.2894    1.8593   17.2258 C.ar    1  UNL1        0.0007
     18 C           6.9805    0.5388   17.0568 C.ar    1  UNL1        0.0002
     19 C           6.4427   -0.6823   17.7421 C.ar    1  UNL1        0.0052
     20 C           5.2137   -0.5829   18.5963 C.ar    1  UNL1        0.0632
     21 N           2.0646    0.9364   20.4738 N.1     1  UNL1       -0.1908
     22 C           3.2936    0.8370   19.6195 C.1     1  UNL1        0.1006
     23 C           7.6996   -4.0901   29.0734 C.2     1  UNL1        0.3078
     24 O           8.7562   -3.2633   29.7444 O.2     1  UNL1       -0.2516
     25 N           7.0751   -5.2434   29.8013 N.am    1  UNL1       -0.1708
     26 H           6.3816   -5.7861   29.3609 H       1  UNL1        0.2545
     27 C           7.5070   -5.5700   31.2001 C.2     1  UNL1        0.3751
     28 N           6.5077   -6.0864   32.1924 N.pl3   1  UNL1       -0.1313
     29 N           8.9384   -5.3802   31.6067 N.pl3   1  UNL1       -0.2906
     30 H           5.5683   -6.2110   31.9256 H       1  UNL1        0.3060
     31 H           9.5943   -5.0413   30.9554 H       1  UNL1        0.2545
     32 H           9.2219   -5.5945   32.5248 H       1  UNL1        0.2545
     33 C           8.1855   -4.7545   23.9429 C.3     1  UNL1        0.4183
     34 F           8.8604   -5.4132   22.7765 F       1  UNL1       -0.1659
     35 F           9.1286   -3.5933   23.8328 F       1  UNL1       -0.1659
     36 F           7.2424   -5.9157   24.0531 F       1  UNL1       -0.1659
@<TRIPOS>BOND
     1    21    22    3
     2    22    15    1
     3    15    16   ar
     4    16    17   ar
     5    17    18   ar
     6    18    19   ar
     7    19    20   ar
     8    20     7    1
     9     7     8    2
    10     7     9   am
    11     9    10    1
    12    10    11    1
    13    11    12    1
    14    12     1    1
    15     1     2   ar
    16     2     3   ar
    17     3     4   ar
    18     4    23    1
    19    23    24    2
    20    23    25   am
    21    25    27    1
    22    27    28    2
    23    27    29    1
    24     4     5   ar
    25     5     6   ar
    26     6    33    1
    27    33    34    1
    28    33    35    1
    29    33    36    1
    30    12    13    1
    31    13    14    1
    32    20    15   ar
    33    14     9    1
    34     6     1   ar
    35    25    26    1
    36    28    30    1
    37    29    31    1
    38    29    32    1
@<TRIPOS>MOLECULE
*****
 36 38 0 0 0
SMALL
GASTEIGER

@<TRIPOS>ATOM
      1 C           6.1587   -2.9304   24.9126 C.ar    1  UNL1       -0.0185
      2 C           6.9376   -4.2110   24.8542 C.ar    1  UNL1       -0.0041
      3 C           7.4317   -4.8468   26.1197 C.ar    1  UNL1        0.0057
      4 C           7.1469   -4.2020   27.4438 C.ar    1  UNL1        0.0696
      5 C           6.3681   -2.9214   27.5023 C.ar    1  UNL1        0.0095
      6 C           5.8740   -2.2856   26.2367 C.ar    1  UNL1        0.0677
      7 C           4.1824   -0.3872   19.8504 C.2     1  UNL1        0.2497
      8 O           2.9508   -0.9159   19.1767 O.2     1  UNL1       -0.2699
      9 N           4.6764   -1.0230   21.1160 N.am    1  UNL1       -0.2760
     10 C           3.9390   -2.1875   21.7079 C.3     1  UNL1        0.0940
     11 C           4.4331   -2.8232   22.9734 C.3     1  UNL1        0.0259
     12 C           5.6646   -2.2946   23.6471 C.3     1  UNL1        0.0257
     13 C           6.4021   -1.1302   23.0553 C.3     1  UNL1        0.0259
     14 C           5.9080   -0.4944   21.7897 C.3     1  UNL1        0.0940
     15 C           6.0276    0.5419   18.2750 C.ar    1  UNL1        0.0728
     16 C           6.7650    1.7063   17.6831 C.ar    1  UNL1        0.0104
     17 C           6.3946    3.1061   18.0748 C.ar    1  UNL1        0.0007
     18 C           5.2868    3.3414   19.0584 C.ar    1  UNL1        0.0002
     19 C           4.5494    2.1770   19.6502 C.ar    1  UNL1        0.0052
     20 C           4.9198    0.7772   19.2585 C.ar    1  UNL1        0.0632
     21 N           6.7683   -2.2577   17.4916 N.1     1  UNL1       -0.1908
     22 C           6.3980   -0.8579   17.8833 C.1     1  UNL1        0.1006
     23 C           7.6410   -4.8378   28.7093 C.2     1  UNL1        0.3078
     24 O           8.8884   -5.6707   28.6928 O.2     1  UNL1       -0.2516
     25 N           6.8877   -4.6406   29.9914 N.am    1  UNL1       -0.1708
     26 H           6.0690   -4.0940   30.0022 H       1  UNL1        0.2545
     27 C           7.3818   -5.2764   31.2569 C.2     1  UNL1        0.3751
     28 N           6.4366   -6.0535   32.1245 N.pl3   1  UNL1       -0.1313
     29 N           8.8212   -5.1351   31.6549 N.pl3   1  UNL1       -0.2906
     30 H           5.4919   -6.1462   31.8633 H       1  UNL1        0.3060
     31 H           9.4416   -4.6251   31.0855 H       1  UNL1        0.2545
     32 H           9.1455   -5.5524   32.4856 H       1  UNL1        0.2545
     33 C           5.0951   -1.0050   26.2952 C.3     1  UNL1        0.4183
     34 F           4.3163    0.2756   26.3538 F       1  UNL1       -0.1659
     35 F           3.8157   -1.7857   26.3525 F       1  UNL1       -0.1659
     36 F           6.3746   -0.2242   26.2379 F       1  UNL1       -0.1659
@<TRIPOS>BOND
     1    21    22    3
     2    22    15    1
     3    15    16   ar
     4    16    17   ar
     5    17    18   ar
     6    18    19   ar
     7    19    20   ar
     8    20     7    1
     9     7     8    2
    10     7     9   am
    11     9    10    1
    12    10    11    1
    13    11    12    1
    14    12     1    1
    15     1     2   ar
    16     2     3   ar
    17     3     4   ar
    18     4    23    1
    19    23    24    2
    20    23    25   am
    21    25    27    1
    22    27    28    2
    23    27    29    1
    24     4     5   ar
    25     5     6   ar
    26     6    33    1
    27    33    34    1
    28    33    35    1
    29    33    36    1
    30    12    13    1
    31    13    14    1
    32    20    15   ar
    33    14     9    1
    34     6     1   ar
    35    25    26    1
    36    28    30    1
    37    29    31    1
    38    29    32    1
