@<TRIPOS>MOLECULE
*****
 40 46 0 0 0
SMALL
GASTEIGER

@<TRIPOS>ATOM
      1 C          -1.7425    3.8357   20.2519 C.ar    1  UNL1        0.0146
      2 C          -3.0872    3.7662   19.5910 C.ar    1  UNL1       -0.0011
      3 C          -4.3283    3.6546   20.4259 C.ar    1  UNL1        0.0014
      4 C          -4.2246    3.6125   21.9217 C.ar    1  UNL1        0.0206
      5 C          -2.8799    3.6820   22.5826 C.ar    1  UNL1        0.0989
      6 C          -1.6388    3.7936   21.7477 C.ar    1  UNL1        0.1511
      7 O          -0.2940    3.8631   22.4085 O.3     1  UNL1       -0.4678
      8 C          -0.1903    3.8210   23.9044 C.3     1  UNL1        0.2510
      9 C          -1.4315    3.7094   24.7393 C.ar    1  UNL1        0.1087
     10 C          -1.6405    3.6464   26.2233 C.ar    1  UNL1        0.1518
     11 N          -3.1145    3.5380   26.4796 N.ar    1  UNL1       -0.2192
     12 C          -3.8164    3.5340   25.1540 C.ar    1  UNL1        0.1828
     13 N          -2.7763    3.6399   24.0784 N.ar    1  UNL1       -0.2851
     14 C          -0.5645    3.6851   27.2677 C.2     1  UNL1        0.2682
     15 O           0.1873    4.9577   27.5232 O.2     1  UNL1       -0.2682
     16 N          -0.2403    2.4511   28.0565 N.am    1  UNL1       -0.2697
     17 C          -0.9920    1.1785   27.8010 C.3     1  UNL1        0.1258
     18 C          -0.6678   -0.0554   28.5898 C.3     1  UNL1        0.1637
     19 O           0.4083   -0.0167   29.6342 O.3     1  UNL1       -0.3501
     20 C           1.1600    1.2559   29.8897 C.3     1  UNL1        0.1637
     21 C           0.8358    2.4898   29.1008 C.3     1  UNL1        0.1258
     22 C          -0.5013    3.9474   19.4169 C.3     1  UNL1        0.0468
     23 C          -0.1018    2.8193   18.5126 C.3     1  UNL1        0.0770
     24 N           2.3984   -0.5654   20.1072 N.pl3   1  UNL1       -0.3046
     25 C           3.0042    0.4384   19.1716 C.3     1  UNL1        0.1081
     26 C           2.1708    1.5667   18.6400 C.3     1  UNL1        0.0938
     27 N           0.7316    1.6911   19.0441 N.3     1  UNL1       -0.2695
     28 C           0.1258    0.6872   19.9797 C.3     1  UNL1        0.0938
     29 C           0.9592   -0.4410   20.5112 C.3     1  UNL1        0.1081
     30 C           4.9988   -1.6757   26.3726 C.3     1  UNL1        0.0521
     31 C           4.5570   -1.6802   24.9391 C.ar    1  UNL1        0.0593
     32 C           3.7236   -0.5520   24.4076 C.ar    1  UNL1        0.0148
     33 C           3.2819   -0.5565   22.9741 C.ar    1  UNL1        0.0039
     34 C           3.6735   -1.6892   22.0722 C.ar    1  UNL1        0.0310
     35 C           3.2318   -1.6936   20.6387 C.ar    1  UNL1        0.0493
     36 C           3.6235   -2.8264   19.7367 C.ar    1  UNL1        0.0146
     37 C           4.4569   -3.9546   20.2682 C.ar    1  UNL1        0.0028
     38 C           4.8986   -3.9502   21.7017 C.ar    1  UNL1        0.0192
     39 C           4.5070   -2.8175   22.6037 C.ar    1  UNL1        0.0821
     40 N           4.9487   -2.8130   24.0371 N.ar    1  UNL1       -0.2496
@<TRIPOS>BOND
     1    30    31    1
     2    31    32   ar
     3    32    33   ar
     4    33    34   ar
     5    34    35   ar
     6    35    24    1
     7    24    25    1
     8    25    26    1
     9    26    27    1
    10    27    23    1
    11    23    22    1
    12    22     1    1
    13     1     2   ar
    14     2     3   ar
    15     3     4   ar
    16     4     5   ar
    17     5     6   ar
    18     6     7    1
    19     7     8    1
    20     8     9    1
    21     9    10   ar
    22    10    14    1
    23    14    15    2
    24    14    16   am
    25    16    17    1
    26    17    18    1
    27    18    19    1
    28    19    20    1
    29    20    21    1
    30    10    11   ar
    31    11    12   ar
    32    12    13   ar
    33    27    28    1
    34    28    29    1
    35    35    36   ar
    36    36    37   ar
    37    37    38   ar
    38    38    39   ar
    39    39    40   ar
    40    40    31   ar
    41    39    34   ar
    42    29    24    1
    43     6     1   ar
    44    13     9   ar
    45    13     5    1
    46    21    16    1
@<TRIPOS>MOLECULE
*****
 40 46 0 0 0
SMALL
GASTEIGER

@<TRIPOS>ATOM
      1 C          -0.5576    3.4543   23.6731 C.ar    1  UNL1        0.0146
      2 C          -1.9636    3.9769   23.6852 C.ar    1  UNL1       -0.0011
      3 C          -2.8676    3.6706   24.8423 C.ar    1  UNL1        0.0014
      4 C          -2.3657    2.8416   25.9872 C.ar    1  UNL1        0.0206
      5 C          -0.9598    2.3190   25.9751 C.ar    1  UNL1        0.0989
      6 C          -0.0557    2.6253   24.8181 C.ar    1  UNL1        0.1511
      7 O           1.3503    2.1027   24.8059 O.3     1  UNL1       -0.4678
      8 C           1.8522    1.2737   25.9508 C.3     1  UNL1        0.2510
      9 C           0.9480    0.9674   27.1079 C.ar    1  UNL1        0.1087
     10 C           1.1617    0.1825   28.3682 C.ar    1  UNL1        0.1518
     11 N          -0.1122    0.2200   29.1592 N.ar    1  UNL1       -0.2192
     12 C          -1.1131    1.0281   28.3878 C.ar    1  UNL1        0.1828
     13 N          -0.4579    1.4900   27.1201 N.ar    1  UNL1       -0.2851
     14 C           2.4271   -0.5171   28.7673 C.2     1  UNL1        0.2682
     15 O           3.0739   -1.4914   27.8280 O.2     1  UNL1       -0.2682
     16 N           3.0457   -0.2424   30.1060 N.am    1  UNL1       -0.2697
     17 C           2.3990    0.7318   31.0454 C.3     1  UNL1        0.1258
     18 C           3.0177    1.0065   32.3840 C.3     1  UNL1        0.1637
     19 O           4.2831    0.3069   32.7832 O.3     1  UNL1       -0.3501
     20 C           4.9298   -0.6674   31.8437 C.3     1  UNL1        0.1637
     21 C           4.3111   -0.9420   30.5051 C.3     1  UNL1        0.1258
     22 C           0.3465    3.7606   22.5160 C.3     1  UNL1        0.0468
     23 C           0.2141    2.9896   21.2362 C.3     1  UNL1        0.0770
     24 N           2.8436   -0.5829   20.4793 N.pl3   1  UNL1       -0.3046
     25 C           1.3518   -0.7391   20.4928 C.3     1  UNL1        0.1081
     26 C           0.4752    0.4518   20.7451 C.3     1  UNL1        0.0938
     27 N           1.0905    1.7988   20.9839 N.3     1  UNL1       -0.2695
     28 C           2.5824    1.9549   20.9703 C.3     1  UNL1        0.0938
     29 C           3.4588    0.7641   20.7180 C.3     1  UNL1        0.1081
     30 C           6.6118   -4.3903   24.7867 C.3     1  UNL1        0.0521
     31 C           5.8889   -3.7361   23.6467 C.ar    1  UNL1        0.0593
     32 C           5.0124   -2.5453   23.8990 C.ar    1  UNL1        0.0148
     33 C           4.2895   -1.8912   22.7591 C.ar    1  UNL1        0.0039
     34 C           4.4430   -2.4278   21.3669 C.ar    1  UNL1        0.0310
     35 C           3.7200   -1.7737   20.2270 C.ar    1  UNL1        0.0493
     36 C           3.8736   -2.3105   18.8347 C.ar    1  UNL1        0.0146
     37 C           4.7500   -3.5013   18.5824 C.ar    1  UNL1        0.0028
     38 C           5.4730   -4.1554   19.7223 C.ar    1  UNL1        0.0192
     39 C           5.3195   -3.6187   21.1145 C.ar    1  UNL1        0.0821
     40 N           6.0424   -4.2729   22.2544 N.ar    1  UNL1       -0.2496
@<TRIPOS>BOND
     1    30    31    1
     2    31    32   ar
     3    32    33   ar
     4    33    34   ar
     5    34    35   ar
     6    35    24    1
     7    24    25    1
     8    25    26    1
     9    26    27    1
    10    27    23    1
    11    23    22    1
    12    22     1    1
    13     1     2   ar
    14     2     3   ar
    15     3     4   ar
    16     4     5   ar
    17     5     6   ar
    18     6     7    1
    19     7     8    1
    20     8     9    1
    21     9    10   ar
    22    10    14    1
    23    14    15    2
    24    14    16   am
    25    16    17    1
    26    17    18    1
    27    18    19    1
    28    19    20    1
    29    20    21    1
    30    10    11   ar
    31    11    12   ar
    32    12    13   ar
    33    27    28    1
    34    28    29    1
    35    35    36   ar
    36    36    37   ar
    37    37    38   ar
    38    38    39   ar
    39    39    40   ar
    40    40    31   ar
    41    39    34   ar
    42    29    24    1
    43     6     1   ar
    44    13     9   ar
    45    13     5    1
    46    21    16    1
@<TRIPOS>MOLECULE
*****
 40 46 0 0 0
SMALL
GASTEIGER

@<TRIPOS>ATOM
      1 C           7.2617   -2.2771   29.2925 C.ar    1  UNL1        0.0146
      2 C           8.1681   -2.1924   30.4846 C.ar    1  UNL1       -0.0011
      3 C           7.6923   -1.5290   31.7429 C.ar    1  UNL1        0.0014
      4 C           6.3100   -0.9503   31.8092 C.ar    1  UNL1        0.0206
      5 C           5.4036   -1.0351   30.6171 C.ar    1  UNL1        0.0989
      6 C           5.8794   -1.6985   29.3588 C.ar    1  UNL1        0.1511
      7 O           4.9729   -1.7832   28.1666 O.3     1  UNL1       -0.4678
      8 C           3.5906   -1.2046   28.2329 C.3     1  UNL1        0.2510
      9 C           3.1148   -0.5411   29.4913 C.ar    1  UNL1        0.1087
     10 C           1.8144    0.1147   29.8502 C.ar    1  UNL1        0.1518
     11 N           1.9172    0.6048   31.2641 N.ar    1  UNL1       -0.2192
     12 C           3.2811    0.2518   31.7790 C.ar    1  UNL1        0.1828
     13 N           4.0213   -0.4564   30.6833 N.ar    1  UNL1       -0.2851
     14 C           0.6208    0.2557   28.9527 C.2     1  UNL1        0.2682
     15 O          -0.5921   -0.5976   29.1781 O.2     1  UNL1       -0.2682
     16 N           0.6401    1.2500   27.8297 N.am    1  UNL1       -0.2697
     17 C           1.8530    2.1033   27.6042 C.3     1  UNL1        0.1258
     18 C           1.8722    3.0976   26.4813 C.3     1  UNL1        0.1637
     19 O           0.6786    3.2386   25.5838 O.3     1  UNL1       -0.3501
     20 C          -0.5342    2.3853   25.8093 C.3     1  UNL1        0.1637
     21 C          -0.5535    1.3910   26.9323 C.3     1  UNL1        0.1258
     22 C           7.7375   -2.9406   28.0341 C.3     1  UNL1        0.0468
     23 C           8.1476   -2.1076   26.8560 C.3     1  UNL1        0.0770
     24 N           6.0614   -2.6207   22.9020 N.pl3   1  UNL1       -0.3046
     25 C           5.7742   -3.5669   24.0299 C.3     1  UNL1        0.1081
     26 C           6.4696   -3.3959   25.3480 C.3     1  UNL1        0.0938
     27 N           7.4522   -2.2786   25.5381 N.3     1  UNL1       -0.2695
     28 C           7.7394   -1.3324   24.4101 C.3     1  UNL1        0.0938
     29 C           7.0440   -1.5034   23.0921 C.3     1  UNL1        0.1081
     30 C           0.3681    0.3112   20.4040 C.3     1  UNL1        0.0521
     31 C           1.6176   -0.4646   20.6990 C.ar    1  UNL1        0.0593
     32 C           2.3130   -0.2935   22.0170 C.ar    1  UNL1        0.0148
     33 C           3.5624   -1.0692   22.3120 C.ar    1  UNL1        0.0039
     34 C           4.1165   -2.0160   21.2890 C.ar    1  UNL1        0.0310
     35 C           5.3660   -2.7918   21.5841 C.ar    1  UNL1        0.0493
     36 C           5.9201   -3.7387   20.5610 C.ar    1  UNL1        0.0146
     37 C           5.2246   -3.9097   19.2430 C.ar    1  UNL1        0.0028
     38 C           3.9752   -3.1340   18.9480 C.ar    1  UNL1        0.0192
     39 C           3.4211   -2.1872   19.9710 C.ar    1  UNL1        0.0821
     40 N           2.1716   -1.4114   19.6760 N.ar    1  UNL1       -0.2496
@<TRIPOS>BOND
     1    30    31    1
     2    31    32   ar
     3    32    33   ar
     4    33    34   ar
     5    34    35   ar
     6    35    24    1
     7    24    25    1
     8    25    26    1
     9    26    27    1
    10    27    23    1
    11    23    22    1
    12    22     1    1
    13     1     2   ar
    14     2     3   ar
    15     3     4   ar
    16     4     5   ar
    17     5     6   ar
    18     6     7    1
    19     7     8    1
    20     8     9    1
    21     9    10   ar
    22    10    14    1
    23    14    15    2
    24    14    16   am
    25    16    17    1
    26    17    18    1
    27    18    19    1
    28    19    20    1
    29    20    21    1
    30    10    11   ar
    31    11    12   ar
    32    12    13   ar
    33    27    28    1
    34    28    29    1
    35    35    36   ar
    36    36    37   ar
    37    37    38   ar
    38    38    39   ar
    39    39    40   ar
    40    40    31   ar
    41    39    34   ar
    42    29    24    1
    43     6     1   ar
    44    13     9   ar
    45    13     5    1
    46    21    16    1
@<TRIPOS>MOLECULE
*****
 40 46 0 0 0
SMALL
GASTEIGER

@<TRIPOS>ATOM
      1 C           5.5033   -1.2178   33.3119 C.ar    1  UNL1        0.0146
      2 C           6.0513   -0.5562   34.5415 C.ar    1  UNL1       -0.0011
      3 C           5.4360    0.7151   35.0465 C.ar    1  UNL1        0.0014
      4 C           4.2727    1.3249   34.3220 C.ar    1  UNL1        0.0206
      5 C           3.7247    0.6633   33.0924 C.ar    1  UNL1        0.0989
      6 C           4.3400   -0.6080   32.5873 C.ar    1  UNL1        0.1511
      7 O           3.7920   -1.2696   31.3576 O.3     1  UNL1       -0.4678
      8 C           2.6287   -0.6598   30.6331 C.3     1  UNL1        0.2510
      9 C           2.0135    0.6116   31.1382 C.ar    1  UNL1        0.1087
     10 C           0.8676    1.4400   30.6377 C.ar    1  UNL1        0.1518
     11 N           0.7073    2.6136   31.5580 N.ar    1  UNL1       -0.2192
     12 C           1.7542    2.5105   32.6273 C.ar    1  UNL1        0.1828
     13 N           2.5615    1.2731   32.3678 N.ar    1  UNL1       -0.2851
     14 C           0.0291    1.1464   29.4290 C.2     1  UNL1        0.2682
     15 O          -1.1685    0.2510   29.5465 O.2     1  UNL1       -0.2682
     16 N           0.3883    1.7483   28.1029 N.am    1  UNL1       -0.2697
     17 C           1.5860    2.6438   27.9853 C.3     1  UNL1        0.1258
     18 C           1.9451    3.2456   26.6591 C.3     1  UNL1        0.1637
     19 O           1.1066    2.9521   25.4505 O.3     1  UNL1       -0.3501
     20 C          -0.0910    2.0566   25.5681 C.3     1  UNL1        0.1637
     21 C          -0.4501    1.4547   26.8942 C.3     1  UNL1        0.1258
     22 C           6.1185   -2.4892   32.8067 C.3     1  UNL1        0.0468
     23 C           7.4231   -2.4490   32.0675 C.3     1  UNL1        0.0770
     24 N           8.0038   -4.9755   28.3893 N.pl3   1  UNL1       -0.3046
     25 C           6.7309   -5.0779   29.1762 C.3     1  UNL1        0.1081
     26 C           6.5373   -4.2357   30.4023 C.3     1  UNL1        0.0938
     27 N           7.6167   -3.2911   30.8415 N.3     1  UNL1       -0.2695
     28 C           8.8896   -3.1888   30.0545 C.3     1  UNL1        0.0938
     29 C           9.0832   -4.0310   28.8285 C.3     1  UNL1        0.1081
     30 C           6.4490   -3.7616   21.8046 C.3     1  UNL1        0.0521
     31 C           6.8861   -4.2756   23.1442 C.ar    1  UNL1        0.0593
     32 C           6.6925   -3.4334   24.3703 C.ar    1  UNL1        0.0148
     33 C           7.1296   -3.9475   25.7099 C.ar    1  UNL1        0.0039
     34 C           7.7603   -5.3036   25.8236 C.ar    1  UNL1        0.0310
     35 C           8.1974   -5.8177   27.1632 C.ar    1  UNL1        0.0493
     36 C           8.8281   -7.1740   27.2768 C.ar    1  UNL1        0.0146
     37 C           9.0216   -8.0161   26.0508 C.ar    1  UNL1        0.0028
     38 C           8.5845   -7.5021   24.7111 C.ar    1  UNL1        0.0192
     39 C           7.9539   -6.1459   24.5975 C.ar    1  UNL1        0.0821
     40 N           7.5168   -5.6319   23.2578 N.ar    1  UNL1       -0.2496
@<TRIPOS>BOND
     1    30    31    1
     2    31    32   ar
     3    32    33   ar
     4    33    34   ar
     5    34    35   ar
     6    35    24    1
     7    24    25    1
     8    25    26    1
     9    26    27    1
    10    27    23    1
    11    23    22    1
    12    22     1    1
    13     1     2   ar
    14     2     3   ar
    15     3     4   ar
    16     4     5   ar
    17     5     6   ar
    18     6     7    1
    19     7     8    1
    20     8     9    1
    21     9    10   ar
    22    10    14    1
    23    14    15    2
    24    14    16   am
    25    16    17    1
    26    17    18    1
    27    18    19    1
    28    19    20    1
    29    20    21    1
    30    10    11   ar
    31    11    12   ar
    32    12    13   ar
    33    27    28    1
    34    28    29    1
    35    35    36   ar
    36    36    37   ar
    37    37    38   ar
    38    38    39   ar
    39    39    40   ar
    40    40    31   ar
    41    39    34   ar
    42    29    24    1
    43     6     1   ar
    44    13     9   ar
    45    13     5    1
    46    21    16    1
@<TRIPOS>MOLECULE
*****
 40 46 0 0 0
SMALL
GASTEIGER

@<TRIPOS>ATOM
      1 C           3.9756   -1.7612   18.6761 C.ar    1  UNL1        0.0146
      2 C           5.2760   -1.4887   17.9799 C.ar    1  UNL1       -0.0011
      3 C           5.6385   -0.0864   17.5901 C.ar    1  UNL1        0.0014
      4 C           4.7007    1.0435   17.8966 C.ar    1  UNL1        0.0206
      5 C           3.4003    0.7710   18.5928 C.ar    1  UNL1        0.0989
      6 C           3.0378   -0.6314   18.9826 C.ar    1  UNL1        0.1511
      7 O           1.7374   -0.9039   19.6788 O.3     1  UNL1       -0.4678
      8 C           0.7995    0.2259   19.9852 C.3     1  UNL1        0.2510
      9 C           1.1621    1.6283   19.5954 C.ar    1  UNL1        0.1087
     10 C           0.4443    2.9345   19.7647 C.ar    1  UNL1        0.1518
     11 N           1.3012    4.0143   19.1732 N.ar    1  UNL1       -0.2192
     12 C           2.5484    3.3754   18.6382 C.ar    1  UNL1        0.1828
     13 N           2.4625    1.9008   18.8992 N.ar    1  UNL1       -0.2851
     14 C          -0.8950    3.1271   20.4120 C.2     1  UNL1        0.2682
     15 O          -1.0498    2.9248   21.8902 O.2     1  UNL1       -0.2682
     16 N          -2.0797    3.5220   19.5810 N.am    1  UNL1       -0.2697
     17 C          -1.9251    3.7243   18.1027 C.3     1  UNL1        0.1258
     18 C          -3.1098    4.1192   17.2718 C.3     1  UNL1        0.1637
     19 O          -4.4492    4.3117   17.9191 O.3     1  UNL1       -0.3501
     20 C          -4.6039    4.1094   19.3973 C.3     1  UNL1        0.1637
     21 C          -3.4191    3.7146   20.2282 C.3     1  UNL1        0.1258
     22 C           3.6131   -3.1636   19.0660 C.3     1  UNL1        0.0468
     23 C           4.6923   -4.1645   19.3551 C.3     1  UNL1        0.0770
     24 N           7.0172   -3.9192   23.2001 N.pl3   1  UNL1       -0.3046
     25 C           5.5210   -3.8160   23.2205 C.3     1  UNL1        0.1081
     26 C           4.7459   -3.8977   21.9388 C.3     1  UNL1        0.0938
     27 N           5.4672   -4.0827   20.6367 N.3     1  UNL1       -0.2695
     28 C           6.9636   -4.1859   20.6163 C.3     1  UNL1        0.0938
     29 C           7.7386   -4.1041   21.8980 C.3     1  UNL1        0.1081
     30 C           9.3456   -8.8596   27.3739 C.3     1  UNL1        0.0521
     31 C           8.9573   -7.6040   26.6509 C.ar    1  UNL1        0.0593
     32 C           8.1823   -7.6858   25.3692 C.ar    1  UNL1        0.0148
     33 C           7.7940   -6.4303   24.6462 C.ar    1  UNL1        0.0039
     34 C           8.1806   -5.0930   25.2048 C.ar    1  UNL1        0.0310
     35 C           7.7922   -3.8374   24.4817 C.ar    1  UNL1        0.0493
     36 C           8.1789   -2.5000   25.0404 C.ar    1  UNL1        0.0146
     37 C           8.9538   -2.4183   26.3221 C.ar    1  UNL1        0.0028
     38 C           9.3422   -3.6738   27.0451 C.ar    1  UNL1        0.0192
     39 C           8.9556   -5.0111   26.4865 C.ar    1  UNL1        0.0821
     40 N           9.3439   -6.2667   27.2096 N.ar    1  UNL1       -0.2496
@<TRIPOS>BOND
     1    30    31    1
     2    31    32   ar
     3    32    33   ar
     4    33    34   ar
     5    34    35   ar
     6    35    24    1
     7    24    25    1
     8    25    26    1
     9    26    27    1
    10    27    23    1
    11    23    22    1
    12    22     1    1
    13     1     2   ar
    14     2     3   ar
    15     3     4   ar
    16     4     5   ar
    17     5     6   ar
    18     6     7    1
    19     7     8    1
    20     8     9    1
    21     9    10   ar
    22    10    14    1
    23    14    15    2
    24    14    16   am
    25    16    17    1
    26    17    18    1
    27    18    19    1
    28    19    20    1
    29    20    21    1
    30    10    11   ar
    31    11    12   ar
    32    12    13   ar
    33    27    28    1
    34    28    29    1
    35    35    36   ar
    36    36    37   ar
    37    37    38   ar
    38    38    39   ar
    39    39    40   ar
    40    40    31   ar
    41    39    34   ar
    42    29    24    1
    43     6     1   ar
    44    13     9   ar
    45    13     5    1
    46    21    16    1
@<TRIPOS>MOLECULE
*****
 40 46 0 0 0
SMALL
GASTEIGER

@<TRIPOS>ATOM
      1 C          -0.8314    3.2010   23.2510 C.ar    1  UNL1        0.0146
      2 C          -2.0911    3.7032   22.6101 C.ar    1  UNL1       -0.0011
      3 C          -2.3206    3.4946   21.1425 C.ar    1  UNL1        0.0014
      4 C          -1.2904    2.7838   20.3159 C.ar    1  UNL1        0.0206
      5 C          -0.0306    2.2816   20.9567 C.ar    1  UNL1        0.0989
      6 C           0.1989    2.4902   22.4243 C.ar    1  UNL1        0.1511
      7 O           1.4587    1.9880   23.0653 O.3     1  UNL1       -0.4678
      8 C           2.4890    1.2772   22.2386 C.3     1  UNL1        0.2510
      9 C           2.2594    1.0686   20.7710 C.ar    1  UNL1        0.1087
     10 C           3.0884    0.4086   19.7093 C.ar    1  UNL1        0.1518
     11 N           2.3409    0.5029   18.4122 N.ar    1  UNL1       -0.2192
     12 C           1.0500    1.2212   18.6723 C.ar    1  UNL1        0.1828
     13 N           0.9997    1.5708   20.1301 N.ar    1  UNL1       -0.2851
     14 C           4.4294   -0.2330   19.9096 C.2     1  UNL1        0.2682
     15 O           5.6356    0.6178   20.1763 O.2     1  UNL1       -0.2682
     16 N           4.5640   -1.7255   19.8431 N.am    1  UNL1       -0.2697
     17 C           3.3578   -2.5763   19.5764 C.3     1  UNL1        0.1258
     18 C           3.4926   -4.0688   19.5099 C.3     1  UNL1        0.1637
     19 O           4.8336   -4.7104   19.7101 O.3     1  UNL1       -0.3501
     20 C           6.0398   -3.8596   19.9769 C.3     1  UNL1        0.1637
     21 C           5.9050   -2.3671   20.0433 C.3     1  UNL1        0.1258
     22 C          -0.6018    3.4096   24.7186 C.3     1  UNL1        0.0468
     23 C          -1.1930    2.4550   25.7133 C.3     1  UNL1        0.0770
     24 N           1.2004    1.1781   29.3037 N.pl3   1  UNL1       -0.3046
     25 C           1.8089    2.0946   28.2841 C.3     1  UNL1        0.1081
     26 C           1.0111    2.5203   27.0872 C.3     1  UNL1        0.0938
     27 N          -0.3952    2.0294   26.9101 N.3     1  UNL1       -0.2695
     28 C          -1.0037    1.1128   27.9297 C.3     1  UNL1        0.0938
     29 C          -0.2059    0.6872   29.1265 C.3     1  UNL1        0.1081
     30 C           1.9103    4.0701   35.4990 C.3     1  UNL1        0.0521
     31 C           1.9323    3.2407   34.2494 C.ar    1  UNL1        0.0593
     32 C           1.1345    3.6663   33.0526 C.ar    1  UNL1        0.0148
     33 C           1.1565    2.8369   31.8030 C.ar    1  UNL1        0.0039
     34 C           1.9762    1.5819   31.7501 C.ar    1  UNL1        0.0310
     35 C           1.9982    0.7525   30.5005 C.ar    1  UNL1        0.0493
     36 C           2.8180   -0.5026   30.4476 C.ar    1  UNL1        0.0146
     37 C           3.6158   -0.9283   31.6444 C.ar    1  UNL1        0.0028
     38 C           3.5938   -0.0989   32.8941 C.ar    1  UNL1        0.0192
     39 C           2.7741    1.1562   32.9469 C.ar    1  UNL1        0.0821
     40 N           2.7521    1.9856   34.1966 N.ar    1  UNL1       -0.2496
@<TRIPOS>BOND
     1    30    31    1
     2    31    32   ar
     3    32    33   ar
     4    33    34   ar
     5    34    35   ar
     6    35    24    1
     7    24    25    1
     8    25    26    1
     9    26    27    1
    10    27    23    1
    11    23    22    1
    12    22     1    1
    13     1     2   ar
    14     2     3   ar
    15     3     4   ar
    16     4     5   ar
    17     5     6   ar
    18     6     7    1
    19     7     8    1
    20     8     9    1
    21     9    10   ar
    22    10    14    1
    23    14    15    2
    24    14    16   am
    25    16    17    1
    26    17    18    1
    27    18    19    1
    28    19    20    1
    29    20    21    1
    30    10    11   ar
    31    11    12   ar
    32    12    13   ar
    33    27    28    1
    34    28    29    1
    35    35    36   ar
    36    36    37   ar
    37    37    38   ar
    38    38    39   ar
    39    39    40   ar
    40    40    31   ar
    41    39    34   ar
    42    29    24    1
    43     6     1   ar
    44    13     9   ar
    45    13     5    1
    46    21    16    1
@<TRIPOS>MOLECULE
*****
 40 46 0 0 0
SMALL
GASTEIGER

@<TRIPOS>ATOM
      1 C           8.2126   -3.0783   28.6860 C.ar    1  UNL1        0.0146
      2 C           8.8092   -4.3913   29.0984 C.ar    1  UNL1       -0.0011
      3 C           8.3500   -5.0605   30.3599 C.ar    1  UNL1        0.0014
      4 C           7.2942   -4.4167   31.2089 C.ar    1  UNL1        0.0206
      5 C           6.6976   -3.1037   30.7964 C.ar    1  UNL1        0.0989
      6 C           7.1568   -2.4345   29.5350 C.ar    1  UNL1        0.1511
      7 O           6.5603   -1.1215   29.1225 O.3     1  UNL1       -0.4678
      8 C           5.5044   -0.4777   29.9715 C.3     1  UNL1        0.2510
      9 C           5.0452   -1.1469   31.2330 C.ar    1  UNL1        0.1087
     10 C           4.0290   -0.7551   32.2643 C.ar    1  UNL1        0.1518
     11 N           3.9974   -1.8259   33.3142 N.ar    1  UNL1       -0.2192
     12 C           4.9942   -2.8796   32.9317 C.ar    1  UNL1        0.1828
     13 N           5.6418   -2.4599   31.6454 N.ar    1  UNL1       -0.2851
     14 C           3.1913    0.4891   32.2485 C.2     1  UNL1        0.2682
     15 O           3.3801    1.5339   33.3081 O.2     1  UNL1       -0.2682
     16 N           2.1648    0.6885   31.1730 N.am    1  UNL1       -0.2697
     17 C           1.9759   -0.3562   30.1134 C.3     1  UNL1        0.1258
     18 C           0.9494   -0.1567   29.0380 C.3     1  UNL1        0.1637
     19 O           0.1118    1.0875   29.0222 O.3     1  UNL1       -0.3501
     20 C           0.3006    2.1322   30.0819 C.3     1  UNL1        0.1637
     21 C           1.3271    1.9327   31.1573 C.3     1  UNL1        0.1258
     22 C           8.6719   -2.4091   27.4245 C.3     1  UNL1        0.0468
     23 C           9.0314   -3.2353   26.2253 C.3     1  UNL1        0.0770
     24 N           6.4212   -3.1371   22.5609 N.pl3   1  UNL1       -0.3046
     25 C           7.5826   -2.1954   22.6798 C.3     1  UNL1        0.1081
     26 C           8.4527   -2.2281   23.9013 C.3     1  UNL1        0.0938
     27 N           8.1613   -3.2025   25.0038 N.3     1  UNL1       -0.2695
     28 C           6.9998   -4.1443   24.8849 C.3     1  UNL1        0.0938
     29 C           6.1298   -4.1116   23.6634 C.3     1  UNL1        0.1081
     30 C           0.7551    0.4968   21.1680 C.3     1  UNL1        0.0521
     31 C           1.9541   -0.4035   21.2109 C.ar    1  UNL1        0.0593
     32 C           2.8242   -0.4362   22.4323 C.ar    1  UNL1        0.0148
     33 C           4.0232   -1.3365   22.4752 C.ar    1  UNL1        0.0039
     34 C           4.3522   -2.2041   21.2966 C.ar    1  UNL1        0.0310
     35 C           5.5512   -3.1044   21.3395 C.ar    1  UNL1        0.0493
     36 C           5.8801   -3.9720   20.1609 C.ar    1  UNL1        0.0146
     37 C           5.0101   -3.9393   18.9394 C.ar    1  UNL1        0.0028
     38 C           3.8111   -3.0390   18.8965 C.ar    1  UNL1        0.0192
     39 C           3.4821   -2.1714   20.0751 C.ar    1  UNL1        0.0821
     40 N           2.2831   -1.2711   20.0322 N.ar    1  UNL1       -0.2496
@<TRIPOS>BOND
     1    30    31    1
     2    31    32   ar
     3    32    33   ar
     4    33    34   ar
     5    34    35   ar
     6    35    24    1
     7    24    25    1
     8    25    26    1
     9    26    27    1
    10    27    23    1
    11    23    22    1
    12    22     1    1
    13     1     2   ar
    14     2     3   ar
    15     3     4   ar
    16     4     5   ar
    17     5     6   ar
    18     6     7    1
    19     7     8    1
    20     8     9    1
    21     9    10   ar
    22    10    14    1
    23    14    15    2
    24    14    16   am
    25    16    17    1
    26    17    18    1
    27    18    19    1
    28    19    20    1
    29    20    21    1
    30    10    11   ar
    31    11    12   ar
    32    12    13   ar
    33    27    28    1
    34    28    29    1
    35    35    36   ar
    36    36    37   ar
    37    37    38   ar
    38    38    39   ar
    39    39    40   ar
    40    40    31   ar
    41    39    34   ar
    42    29    24    1
    43     6     1   ar
    44    13     9   ar
    45    13     5    1
    46    21    16    1
@<TRIPOS>MOLECULE
*****
 40 46 0 0 0
SMALL
GASTEIGER

@<TRIPOS>ATOM
      1 C           0.8738    2.9894   30.3106 C.ar    1  UNL1        0.0146
      2 C           0.5683    4.3052   30.9629 C.ar    1  UNL1       -0.0011
      3 C           1.0878    4.5985   32.3391 C.ar    1  UNL1        0.0014
      4 C           1.9128    3.5761   33.0630 C.ar    1  UNL1        0.0206
      5 C           2.2183    2.2604   32.4107 C.ar    1  UNL1        0.0989
      6 C           1.6988    1.9671   31.0345 C.ar    1  UNL1        0.1511
      7 O           2.0042    0.6513   30.3822 O.3     1  UNL1       -0.4678
      8 C           2.8293   -0.3711   31.1061 C.3     1  UNL1        0.2510
      9 C           3.3488   -0.0777   32.4824 C.ar    1  UNL1        0.1087
     10 C           4.1814   -0.8847   33.4339 C.ar    1  UNL1        0.1518
     11 N           4.3906   -0.0676   34.6744 N.ar    1  UNL1       -0.2192
     12 C           3.6871    1.2442   34.4894 C.ar    1  UNL1        0.1828
     13 N           3.0433    1.2380   33.1347 N.ar    1  UNL1       -0.2851
     14 C           4.7118   -2.2661   33.1882 C.2     1  UNL1        0.2682
     15 O           3.9348   -3.4616   33.6538 O.2     1  UNL1       -0.2682
     16 N           6.0194   -2.4518   32.4770 N.am    1  UNL1       -0.2697
     17 C           6.7965   -1.2563   32.0114 C.3     1  UNL1        0.1258
     18 C           8.1040   -1.4421   31.3001 C.3     1  UNL1        0.1637
     19 O           8.6344   -2.8235   31.0544 O.3     1  UNL1       -0.3501
     20 C           7.8573   -4.0191   31.5200 C.3     1  UNL1        0.1637
     21 C           6.5498   -3.8332   32.2313 C.3     1  UNL1        0.1258
     22 C           0.3542    2.6961   28.9343 C.3     1  UNL1        0.0468
     23 C           0.8553    3.4833   27.7599 C.3     1  UNL1        0.0770
     24 N           1.2414    1.5154   23.7315 N.pl3   1  UNL1       -0.3046
     25 C           2.1785    2.6205   24.1192 C.3     1  UNL1        0.1081
     26 C           2.0499    3.2765   25.4621 C.3     1  UNL1        0.0938
     27 N           0.9840    2.8274   26.4171 N.3     1  UNL1       -0.2695
     28 C           0.0468    1.7222   26.0294 C.3     1  UNL1        0.0938
     29 C           0.1755    1.0662   24.6866 C.3     1  UNL1        0.1081
     30 C           5.2620   -3.6399   21.6085 C.3     1  UNL1        0.0521
     31 C           4.2891   -2.5150   21.8035 C.ar    1  UNL1        0.0593
     32 C           4.1603   -1.8591   23.1463 C.ar    1  UNL1        0.0148
     33 C           3.1874   -0.7342   23.3414 C.ar    1  UNL1        0.0039
     34 C           2.3431   -0.2654   22.1937 C.ar    1  UNL1        0.0310
     35 C           1.3701    0.8594   22.3887 C.ar    1  UNL1        0.0493
     36 C           0.5258    1.3283   21.2409 C.ar    1  UNL1        0.0146
     37 C           0.6545    0.6724   19.8982 C.ar    1  UNL1        0.0028
     38 C           1.6275   -0.4525   19.7031 C.ar    1  UNL1        0.0192
     39 C           2.4717   -0.9213   20.8508 C.ar    1  UNL1        0.0821
     40 N           3.4447   -2.0462   20.6557 N.ar    1  UNL1       -0.2496
@<TRIPOS>BOND
     1    30    31    1
     2    31    32   ar
     3    32    33   ar
     4    33    34   ar
     5    34    35   ar
     6    35    24    1
     7    24    25    1
     8    25    26    1
     9    26    27    1
    10    27    23    1
    11    23    22    1
    12    22     1    1
    13     1     2   ar
    14     2     3   ar
    15     3     4   ar
    16     4     5   ar
    17     5     6   ar
    18     6     7    1
    19     7     8    1
    20     8     9    1
    21     9    10   ar
    22    10    14    1
    23    14    15    2
    24    14    16   am
    25    16    17    1
    26    17    18    1
    27    18    19    1
    28    19    20    1
    29    20    21    1
    30    10    11   ar
    31    11    12   ar
    32    12    13   ar
    33    27    28    1
    34    28    29    1
    35    35    36   ar
    36    36    37   ar
    37    37    38   ar
    38    38    39   ar
    39    39    40   ar
    40    40    31   ar
    41    39    34   ar
    42    29    24    1
    43     6     1   ar
    44    13     9   ar
    45    13     5    1
    46    21    16    1
@<TRIPOS>MOLECULE
*****
 40 46 0 0 0
SMALL
GASTEIGER

@<TRIPOS>ATOM
      1 C           0.7402    1.9417   27.4903 C.ar    1  UNL1        0.0146
      2 C           0.1940    3.3284   27.6604 C.ar    1  UNL1       -0.0011
      3 C           0.3864    4.0562   28.9577 C.ar    1  UNL1        0.0014
      4 C           1.1249    3.3975   30.0850 C.ar    1  UNL1        0.0206
      5 C           1.6711    2.0109   29.9148 C.ar    1  UNL1        0.0989
      6 C           1.4787    1.2830   28.6175 C.ar    1  UNL1        0.1511
      7 O           2.0248   -0.1037   28.4473 O.3     1  UNL1       -0.4678
      8 C           2.7633   -0.7625   29.5746 C.3     1  UNL1        0.2510
      9 C           2.9557   -0.0345   30.8720 C.ar    1  UNL1        0.1087
     10 C           3.6356   -0.4251   32.1507 C.ar    1  UNL1        0.1518
     11 N           3.5097    0.7202   33.1111 N.ar    1  UNL1       -0.2192
     12 C           2.7520    1.8186   32.4260 C.ar    1  UNL1        0.1828
     13 N           2.4096    1.3521   31.0421 N.ar    1  UNL1       -0.2851
     14 C           4.3211   -1.7315   32.4214 C.2     1  UNL1        0.2682
     15 O           3.6856   -2.7367   33.3356 O.2     1  UNL1       -0.2682
     16 N           5.6422   -2.0328   31.7779 N.am    1  UNL1       -0.2697
     17 C           6.2778   -1.0277   30.8638 C.3     1  UNL1        0.1258
     18 C           7.5988   -1.3290   30.2203 C.3     1  UNL1        0.1637
     19 O           8.2843   -2.6354   30.4911 O.3     1  UNL1       -0.3501
     20 C           7.6487   -3.6406   31.4053 C.3     1  UNL1        0.1637
     21 C           6.3276   -3.3392   32.0487 C.3     1  UNL1        0.1258
     22 C           0.5478    1.2138   26.1929 C.3     1  UNL1        0.0468
     23 C           0.3258    1.9853   24.9258 C.3     1  UNL1        0.0770
     24 N           2.7524    1.0334   21.2576 N.pl3   1  UNL1       -0.3046
     25 C           1.2699    1.2327   21.1453 C.3     1  UNL1        0.1081
     26 C           0.4610    1.5500   22.3680 C.3     1  UNL1        0.0938
     27 N           1.1347    1.6680   23.7031 N.3     1  UNL1       -0.2695
     28 C           2.6172    1.4687   23.8153 C.3     1  UNL1        0.0938
     29 C           3.4260    1.1514   22.5926 C.3     1  UNL1        0.1081
     30 C           4.7543   -4.9926   18.6251 C.3     1  UNL1        0.0521
     31 C           4.4560   -3.5654   18.9776 C.ar    1  UNL1        0.0593
     32 C           3.6472   -3.2481   20.2003 C.ar    1  UNL1        0.0148
     33 C           3.3489   -1.8209   20.5527 C.ar    1  UNL1        0.0039
     34 C           3.8594   -0.7111   19.6824 C.ar    1  UNL1        0.0310
     35 C           3.5612    0.7161   20.0349 C.ar    1  UNL1        0.0493
     36 C           4.0718    1.8260   19.1645 C.ar    1  UNL1        0.0146
     37 C           4.8806    1.5087   17.9418 C.ar    1  UNL1        0.0028
     38 C           5.1788    0.0816   17.5893 C.ar    1  UNL1        0.0192
     39 C           4.6683   -1.0283   18.4596 C.ar    1  UNL1        0.0821
     40 N           4.9666   -2.4555   18.1072 N.ar    1  UNL1       -0.2496
@<TRIPOS>BOND
     1    30    31    1
     2    31    32   ar
     3    32    33   ar
     4    33    34   ar
     5    34    35   ar
     6    35    24    1
     7    24    25    1
     8    25    26    1
     9    26    27    1
    10    27    23    1
    11    23    22    1
    12    22     1    1
    13     1     2   ar
    14     2     3   ar
    15     3     4   ar
    16     4     5   ar
    17     5     6   ar
    18     6     7    1
    19     7     8    1
    20     8     9    1
    21     9    10   ar
    22    10    14    1
    23    14    15    2
    24    14    16   am
    25    16    17    1
    26    17    18    1
    27    18    19    1
    28    19    20    1
    29    20    21    1
    30    10    11   ar
    31    11    12   ar
    32    12    13   ar
    33    27    28    1
    34    28    29    1
    35    35    36   ar
    36    36    37   ar
    37    37    38   ar
    38    38    39   ar
    39    39    40   ar
    40    40    31   ar
    41    39    34   ar
    42    29    24    1
    43     6     1   ar
    44    13     9   ar
    45    13     5    1
    46    21    16    1
