@<TRIPOS>MOLECULE
*****
 28 31 0 0 0
SMALL
GASTEIGER

@<TRIPOS>ATOM
      1 C          -5.1589  -18.6264   21.4668 C.3     1  UNL1        0.1747
      2 C          -6.3022  -19.0908   20.6141 C.3     1  UNL1        0.0406
      3 C          -7.7120  -18.7597   21.0049 C.3     1  UNL1        0.0403
      4 C          -8.8554  -19.2241   20.1522 C.3     1  UNL1        0.0569
      5 C          -8.5890  -20.0196   18.9088 C.3     1  UNL1        0.0122
      6 S         -10.2652  -18.8930   20.5430 S.3     1  UNL1       -0.0816
      7 C         -10.5317  -18.0976   21.7865 C.2     1  UNL1        0.1482
      8 N         -11.9416  -17.7665   22.1773 N.pl3   1  UNL1       -0.3380
      9 N          -9.3884  -17.6332   22.6392 N.2     1  UNL1       -0.2484
     10 C          -7.9785  -17.9643   22.2484 C.3     1  UNL1        0.1352
     11 C          -6.8352  -17.4999   23.1011 C.3     1  UNL1        0.1691
     12 O          -5.4253  -17.8310   22.7103 O.3     1  UNL1       -0.3462
     13 H         -12.6920  -18.0713   21.6177 H       1  UNL1        0.1442
     14 H         -12.1165  -17.2444   22.9935 H       1  UNL1        0.1442
     15 C          -8.2450  -17.1688   23.4919 C.ar    1  UNL1        0.0278
     16 C          -8.6857  -17.8632   24.7464 C.ar    1  UNL1        0.0021
     17 C          -8.9522  -17.0678   25.9898 C.ar    1  UNL1        0.0295
     18 C          -8.7779  -15.5779   25.9788 C.ar    1  UNL1        0.1424
     19 F          -9.0444  -14.7825   27.2223 F       1  UNL1       -0.2041
     20 C          -8.3372  -14.8836   24.7244 C.ar    1  UNL1        0.0590
     21 C          -8.0707  -15.6791   23.4809 C.ar    1  UNL1        0.1402
     22 F          -7.6299  -14.9847   22.2265 F       1  UNL1       -0.2044
     23 C          -0.2213  -18.2014   19.6445 C.3     1  UNL1        0.0557
     24 C          -1.4794  -18.7621   20.2384 C.ar    1  UNL1        0.1008
     25 C          -2.7585  -18.0117   20.4640 C.ar    1  UNL1        0.0561
     26 C          -3.7490  -18.9575   21.0760 C.ar    1  UNL1        0.1809
     27 O          -3.0821  -20.2924   21.2286 O.2     1  UNL1       -0.3556
     28 N          -1.6794  -20.1717   20.7109 N.ar    1  UNL1       -0.0817
@<TRIPOS>BOND
     1    23    24    1
     2    24    25   ar
     3    25    26   ar
     4     1    26    1
     5     1     2    1
     6     3     2    1
     7     3     4    1
     8     4     5    1
     9     4     6    1
    10     6     7    1
    11     7     8    1
    12     7     9    2
    13     9    10    1
    14    10    15    1
    15    15    16   ar
    16    16    17   ar
    17    17    18   ar
    18    18    19    1
    19    18    20   ar
    20    20    21   ar
    21    21    22    1
    22    10    11    1
    23    11    12    1
    24    26    27   ar
    25    27    28   ar
    26    28    24   ar
    27    12     1    1
    28    10     3    1
    29    21    15   ar
    30     8    13    1
    31     8    14    1
@<TRIPOS>MOLECULE
*****
 28 31 0 0 0
SMALL
GASTEIGER

@<TRIPOS>ATOM
      1 C         -14.9441   -7.2020   18.5645 C.3     1  UNL1        0.1747
      2 C         -13.4451   -7.2084   18.6190 C.3     1  UNL1        0.0406
      3 C         -12.6917   -5.9134   18.6910 C.3     1  UNL1        0.0403
      4 C         -11.1926   -5.9198   18.7455 C.3     1  UNL1        0.0569
      5 C         -10.4471   -7.2213   18.7281 C.3     1  UNL1        0.0122
      6 S         -10.4392   -4.6248   18.8175 S.3     1  UNL1       -0.0816
      7 C         -11.1848   -3.3233   18.8349 C.2     1  UNL1        0.1482
      8 N         -10.4313   -2.0282   18.9069 N.pl3   1  UNL1       -0.3380
      9 N         -12.6838   -3.3169   18.7804 N.2     1  UNL1       -0.2484
     10 C         -13.4373   -4.6119   18.7084 C.3     1  UNL1        0.1352
     11 C         -14.9362   -4.6055   18.6539 C.3     1  UNL1        0.1691
     12 O         -15.6896   -5.9005   18.5819 O.3     1  UNL1       -0.3462
     13 H          -9.4475   -2.0325   18.9427 H       1  UNL1        0.1442
     14 H         -10.9206   -1.1740   18.9184 H       1  UNL1        0.1442
     15 C         -14.1828   -3.3105   18.7259 C.ar    1  UNL1        0.0278
     16 C         -14.5621   -2.6460   17.4356 C.ar    1  UNL1        0.0021
     17 C         -15.3076   -1.3446   17.4530 C.ar    1  UNL1        0.0295
     18 C         -15.6739   -0.7075   18.7607 C.ar    1  UNL1        0.1424
     19 F         -16.4195    0.5940   18.7782 F       1  UNL1       -0.2041
     20 C         -15.2946   -1.3719   20.0509 C.ar    1  UNL1        0.0590
     21 C         -14.5491   -2.6734   20.0335 C.ar    1  UNL1        0.1402
     22 F         -14.1698   -3.3378   21.3237 F       1  UNL1       -0.2044
     23 C         -18.8110  -10.7303   17.8724 C.3     1  UNL1        0.0557
     24 C         -17.4750  -10.1188   18.1744 C.ar    1  UNL1        0.1008
     25 C         -17.1403   -8.6579   18.1147 C.ar    1  UNL1        0.0561
     26 C         -15.6975   -8.4971   18.4925 C.ar    1  UNL1        0.1809
     27 O         -15.1406   -9.8586   18.7857 O.2     1  UNL1       -0.3556
     28 N         -16.2391  -10.8609   18.5891 N.ar    1  UNL1       -0.0817
@<TRIPOS>BOND
     1    23    24    1
     2    24    25   ar
     3    25    26   ar
     4     1    26    1
     5     1     2    1
     6     3     2    1
     7     3     4    1
     8     4     5    1
     9     4     6    1
    10     6     7    1
    11     7     8    1
    12     7     9    2
    13     9    10    1
    14    10    15    1
    15    15    16   ar
    16    16    17   ar
    17    17    18   ar
    18    18    19    1
    19    18    20   ar
    20    20    21   ar
    21    21    22    1
    22    10    11    1
    23    11    12    1
    24    26    27   ar
    25    27    28   ar
    26    28    24   ar
    27    12     1    1
    28    10     3    1
    29    21    15   ar
    30     8    13    1
    31     8    14    1
@<TRIPOS>MOLECULE
*****
 28 31 0 0 0
SMALL
GASTEIGER

@<TRIPOS>ATOM
      1 C         -16.3466   -3.0518   19.6894 C.3     1  UNL1        0.1747
      2 C         -17.1103   -4.3400   19.7751 C.3     1  UNL1        0.0406
      3 C         -16.4443   -5.6326   19.4071 C.3     1  UNL1        0.0403
      4 C         -17.2079   -6.9209   19.4928 C.3     1  UNL1        0.0569
      5 C         -18.6376   -6.9164   19.9467 C.3     1  UNL1        0.0122
      6 S         -16.5419   -8.2135   19.1247 S.3     1  UNL1       -0.0816
      7 C         -15.1122   -8.2179   18.6709 C.2     1  UNL1        0.1482
      8 N         -14.4462   -9.5106   18.3028 N.pl3   1  UNL1       -0.3380
      9 N         -14.3486   -6.9297   18.5851 N.2     1  UNL1       -0.2484
     10 C         -15.0146   -5.6370   18.9532 C.3     1  UNL1        0.1352
     11 C         -14.2509   -4.3489   18.8674 C.3     1  UNL1        0.1691
     12 O         -14.9170   -3.0563   19.2355 O.3     1  UNL1       -0.3462
     13 H         -14.9474  -10.3561   18.3591 H       1  UNL1        0.1442
     14 H         -13.5079   -9.5135   18.0049 H       1  UNL1        0.1442
     15 C         -13.5849   -5.6415   18.4993 C.ar    1  UNL1        0.0278
     16 C         -12.4787   -5.7523   19.5063 C.ar    1  UNL1        0.0021
     17 C         -11.0490   -5.7567   19.0525 C.ar    1  UNL1        0.0295
     18 C         -10.7256   -5.6503   17.5916 C.ar    1  UNL1        0.1424
     19 F          -9.2959   -5.6548   17.1377 F       1  UNL1       -0.2041
     20 C         -11.8318   -5.5395   16.5846 C.ar    1  UNL1        0.0590
     21 C         -13.2614   -5.5351   17.0385 C.ar    1  UNL1        0.1402
     22 F         -14.3677   -5.4243   16.0316 F       1  UNL1       -0.2044
     23 C         -17.1797    2.0737   20.6466 C.3     1  UNL1        0.0557
     24 C         -17.3956    0.5968   20.4974 C.ar    1  UNL1        0.1008
     25 C         -16.3655   -0.4060   20.0692 C.ar    1  UNL1        0.0561
     26 C         -17.0127   -1.7591   20.0575 C.ar    1  UNL1        0.1809
     27 O         -18.4427   -1.5927   20.4784 O.2     1  UNL1       -0.3556
     28 N         -18.6794   -0.1366   20.7503 N.ar    1  UNL1       -0.0817
@<TRIPOS>BOND
     1    23    24    1
     2    24    25   ar
     3    25    26   ar
     4     1    26    1
     5     1     2    1
     6     3     2    1
     7     3     4    1
     8     4     5    1
     9     4     6    1
    10     6     7    1
    11     7     8    1
    12     7     9    2
    13     9    10    1
    14    10    15    1
    15    15    16   ar
    16    16    17   ar
    17    17    18   ar
    18    18    19    1
    19    18    20   ar
    20    20    21   ar
    21    21    22    1
    22    10    11    1
    23    11    12    1
    24    26    27   ar
    25    27    28   ar
    26    28    24   ar
    27    12     1    1
    28    10     3    1
    29    21    15   ar
    30     8    13    1
    31     8    14    1
@<TRIPOS>MOLECULE
*****
 28 31 0 0 0
SMALL
GASTEIGER

@<TRIPOS>ATOM
      1 C           2.2671    0.2441   30.5024 C.3     1  UNL1        0.1747
      2 C           2.2741    1.0144   31.7895 C.3     1  UNL1        0.0406
      3 C           3.3472    0.7644   32.8072 C.3     1  UNL1        0.0403
      4 C           3.3542    1.5347   34.0944 C.3     1  UNL1        0.0569
      5 C           2.2880    2.5549   34.3637 C.3     1  UNL1        0.0122
      6 S           4.4273    1.2848   35.1121 S.3     1  UNL1       -0.0816
      7 C           5.4934    0.2646   34.8428 C.2     1  UNL1        0.1482
      8 N           6.5666    0.0146   35.8607 N.pl3   1  UNL1       -0.3380
      9 N           5.4865   -0.5057   33.5558 N.2     1  UNL1       -0.2484
     10 C           4.4133   -0.2558   32.5379 C.3     1  UNL1        0.1352
     11 C           4.4063   -1.0260   31.2508 C.3     1  UNL1        0.1691
     12 O           3.3332   -0.7761   30.2331 O.3     1  UNL1       -0.3462
     13 H           6.5712    0.5202   36.7055 H       1  UNL1        0.1442
     14 H           7.2664   -0.6550   35.6840 H       1  UNL1        0.1442
     15 C           5.4795   -1.2760   32.2686 C.ar    1  UNL1        0.0278
     16 C           6.7333   -0.8781   31.5476 C.ar    1  UNL1        0.0021
     17 C           7.7994   -1.8983   31.2783 C.ar    1  UNL1        0.0295
     18 C           7.6118   -3.3164   31.7300 C.ar    1  UNL1        0.1424
     19 F           8.6779   -4.3366   31.4607 F       1  UNL1       -0.2041
     20 C           6.3580   -3.7142   32.4509 C.ar    1  UNL1        0.0590
     21 C           5.2919   -2.6940   32.7203 C.ar    1  UNL1        0.1402
     22 F           4.0381   -3.0918   33.4412 F       1  UNL1       -0.2044
     23 C          -0.1857    1.3914   25.9693 C.3     1  UNL1        0.0557
     24 C           0.0665    1.0214   27.4009 C.ar    1  UNL1        0.1008
     25 C           1.4109    0.8719   28.0492 C.ar    1  UNL1        0.0561
     26 C           1.1939    0.4940   29.4845 C.ar    1  UNL1        0.1809
     27 O          -0.2845    0.4100   29.7233 O.2     1  UNL1       -0.3556
     28 N          -0.9813    0.7359   28.4356 N.ar    1  UNL1       -0.0817
@<TRIPOS>BOND
     1    23    24    1
     2    24    25   ar
     3    25    26   ar
     4     1    26    1
     5     1     2    1
     6     3     2    1
     7     3     4    1
     8     4     5    1
     9     4     6    1
    10     6     7    1
    11     7     8    1
    12     7     9    2
    13     9    10    1
    14    10    15    1
    15    15    16   ar
    16    16    17   ar
    17    17    18   ar
    18    18    19    1
    19    18    20   ar
    20    20    21   ar
    21    21    22    1
    22    10    11    1
    23    11    12    1
    24    26    27   ar
    25    27    28   ar
    26    28    24   ar
    27    12     1    1
    28    10     3    1
    29    21    15   ar
    30     8    13    1
    31     8    14    1
@<TRIPOS>MOLECULE
*****
 28 31 0 0 0
SMALL
GASTEIGER

@<TRIPOS>ATOM
      1 C           2.2389    0.0676   30.2531 C.3     1  UNL1        0.1747
      2 C           3.3798   -0.6559   29.6015 C.3     1  UNL1        0.0406
      3 C           4.6294   -0.9417   30.3805 C.3     1  UNL1        0.0403
      4 C           5.7705   -1.6652   29.7289 C.3     1  UNL1        0.0569
      5 C           5.6619   -2.1029   28.2983 C.3     1  UNL1        0.0122
      6 S           7.0200   -1.9510   30.5079 S.3     1  UNL1       -0.0816
      7 C           7.1286   -1.5133   31.9385 C.2     1  UNL1        0.1482
      8 N           8.3782   -1.7992   32.7175 N.pl3   1  UNL1       -0.3380
      9 N           5.9876   -0.7898   32.5901 N.2     1  UNL1       -0.2484
     10 C           4.7380   -0.5040   31.8111 C.3     1  UNL1        0.1352
     11 C           3.5970    0.2195   32.4627 C.3     1  UNL1        0.1691
     12 O           2.3474    0.5053   31.6837 O.3     1  UNL1       -0.3462
     13 H           9.1271   -2.2741   32.2898 H       1  UNL1        0.1442
     14 H           8.4495   -1.5119   33.6565 H       1  UNL1        0.1442
     15 C           4.8465   -0.0663   33.2417 C.ar    1  UNL1        0.0278
     16 C           5.2987    1.3263   33.5677 C.ar    1  UNL1        0.0021
     17 C           5.4073    1.7640   34.9984 C.ar    1  UNL1        0.0295
     18 C           5.0636    0.8091   36.1030 C.ar    1  UNL1        0.1424
     19 F           5.1722    1.2468   37.5336 F       1  UNL1       -0.2041
     20 C           4.6115   -0.5835   35.7769 C.ar    1  UNL1        0.0590
     21 C           4.5029   -1.0211   34.3463 C.ar    1  UNL1        0.1402
     22 F           4.0507   -2.4137   34.0203 F       1  UNL1       -0.2044
     23 C          -1.2562    2.3727   27.0356 C.3     1  UNL1        0.0557
     24 C          -0.6173    1.4130   27.9952 C.ar    1  UNL1        0.1008
     25 C           0.7667    1.5241   28.5629 C.ar    1  UNL1        0.0561
     26 C           0.9892    0.3535   29.4741 C.ar    1  UNL1        0.1809
     27 O          -0.2572   -0.4810   29.4696 O.2     1  UNL1       -0.3556
     28 N          -1.2501    0.1738   28.5556 N.ar    1  UNL1       -0.0817
@<TRIPOS>BOND
     1    23    24    1
     2    24    25   ar
     3    25    26   ar
     4     1    26    1
     5     1     2    1
     6     3     2    1
     7     3     4    1
     8     4     5    1
     9     4     6    1
    10     6     7    1
    11     7     8    1
    12     7     9    2
    13     9    10    1
    14    10    15    1
    15    15    16   ar
    16    16    17   ar
    17    17    18   ar
    18    18    19    1
    19    18    20   ar
    20    20    21   ar
    21    21    22    1
    22    10    11    1
    23    11    12    1
    24    26    27   ar
    25    27    28   ar
    26    28    24   ar
    27    12     1    1
    28    10     3    1
    29    21    15   ar
    30     8    13    1
    31     8    14    1
@<TRIPOS>MOLECULE
*****
 28 31 0 0 0
SMALL
GASTEIGER

@<TRIPOS>ATOM
      1 C           3.1989   -0.3743   23.4223 C.3     1  UNL1        0.1747
      2 C           3.7238   -1.5213   22.6107 C.3     1  UNL1        0.0406
      3 C           3.7193   -1.4440   21.1127 C.3     1  UNL1        0.0403
      4 C           4.2441   -2.5911   20.3009 C.3     1  UNL1        0.0569
      5 C           4.7735   -3.8153   20.9872 C.3     1  UNL1        0.0122
      6 S           4.2396   -2.5138   18.8030 S.3     1  UNL1       -0.0816
      7 C           3.7103   -1.2896   18.1167 C.2     1  UNL1        0.1482
      8 N           3.7058   -1.2124   16.6186 N.pl3   1  UNL1       -0.3380
      9 N           3.1854   -0.1426   18.9283 N.2     1  UNL1       -0.2484
     10 C           3.1899   -0.2198   20.4264 C.3     1  UNL1        0.1352
     11 C           2.6650    0.9272   21.2381 C.3     1  UNL1        0.1691
     12 O           2.6696    0.8500   22.7360 O.3     1  UNL1       -0.3462
     13 H           4.0503   -1.9652   16.0859 H       1  UNL1        0.1442
     14 H           3.3583   -0.4089   16.1681 H       1  UNL1        0.1442
     15 C           2.6605    1.0045   19.7401 C.ar    1  UNL1        0.0278
     16 C           3.5812    2.1473   19.4294 C.ar    1  UNL1        0.0021
     17 C           3.0518    3.3715   18.7431 C.ar    1  UNL1        0.0295
     18 C           1.6018    3.4530   18.3675 C.ar    1  UNL1        0.1424
     19 F           1.0724    4.6772   17.6812 F       1  UNL1       -0.2041
     20 C           0.6813    2.3102   18.6783 C.ar    1  UNL1        0.0590
     21 C           1.2106    1.0859   19.3646 C.ar    1  UNL1        0.1402
     22 F           0.2901   -0.0569   19.6753 F       1  UNL1       -0.2044
     23 C           2.4818    0.8236   28.5147 C.3     1  UNL1        0.0557
     24 C           2.8738    0.0992   27.2611 C.ar    1  UNL1        0.1008
     25 C           2.6616    0.5862   25.8583 C.ar    1  UNL1        0.0561
     26 C           3.2034   -0.4515   24.9204 C.ar    1  UNL1        0.1809
     27 O           3.7505   -1.5798   25.7435 O.2     1  UNL1       -0.3556
     28 N           3.5468   -1.2396   27.1901 N.ar    1  UNL1       -0.0817
@<TRIPOS>BOND
     1    23    24    1
     2    24    25   ar
     3    25    26   ar
     4     1    26    1
     5     1     2    1
     6     3     2    1
     7     3     4    1
     8     4     5    1
     9     4     6    1
    10     6     7    1
    11     7     8    1
    12     7     9    2
    13     9    10    1
    14    10    15    1
    15    15    16   ar
    16    16    17   ar
    17    17    18   ar
    18    18    19    1
    19    18    20   ar
    20    20    21   ar
    21    21    22    1
    22    10    11    1
    23    11    12    1
    24    26    27   ar
    25    27    28   ar
    26    28    24   ar
    27    12     1    1
    28    10     3    1
    29    21    15   ar
    30     8    13    1
    31     8    14    1
@<TRIPOS>MOLECULE
*****
 28 31 0 0 0
SMALL
GASTEIGER

@<TRIPOS>ATOM
      1 C           2.6739    0.2971   23.1013 C.3     1  UNL1        0.1747
      2 C           3.0269    1.4131   22.1633 C.3     1  UNL1        0.0406
      3 C           3.6401    1.1059   20.8293 C.3     1  UNL1        0.0403
      4 C           3.9932    2.2219   19.8912 C.3     1  UNL1        0.0569
      5 C           3.7330    3.6451   20.2873 C.3     1  UNL1        0.0122
      6 S           4.6064    1.9148   18.5573 S.3     1  UNL1       -0.0816
      7 C           4.8666    0.4916   18.1613 C.2     1  UNL1        0.1482
      8 N           5.4798    0.1844   16.8272 N.pl3   1  UNL1       -0.3380
      9 N           4.5135   -0.6244   19.0992 N.2     1  UNL1       -0.2484
     10 C           3.9003   -0.3173   20.4333 C.3     1  UNL1        0.1352
     11 C           3.5473   -1.4333   21.3713 C.3     1  UNL1        0.1691
     12 O           2.9341   -1.1261   22.7053 O.3     1  UNL1       -0.3462
     13 H           5.7115    0.9169   16.2115 H       1  UNL1        0.1442
     14 H           5.6506   -0.7497   16.5672 H       1  UNL1        0.1442
     15 C           4.1605   -1.7405   20.0373 C.ar    1  UNL1        0.0278
     16 C           3.0621   -2.5632   19.4315 C.ar    1  UNL1        0.0021
     17 C           3.3223   -3.9864   19.0355 C.ar    1  UNL1        0.0295
     18 C           4.6808   -4.5869   19.2453 C.ar    1  UNL1        0.1424
     19 F           4.9410   -6.0101   18.8493 F       1  UNL1       -0.2041
     20 C           5.7791   -3.7642   19.8510 C.ar    1  UNL1        0.0590
     21 C           5.5189   -2.3410   20.2470 C.ar    1  UNL1        0.1402
     22 F           6.6171   -1.5183   20.8528 F       1  UNL1       -0.2044
     23 C          -0.7554    1.7945   26.8268 C.3     1  UNL1        0.0557
     24 C           0.4844    1.2925   26.1477 C.ar    1  UNL1        0.1008
     25 C           0.6767    1.1336   24.6687 C.ar    1  UNL1        0.0561
     26 C           2.0606    0.6042   24.4354 C.ar    1  UNL1        0.1809
     27 O           2.7237    0.4359   25.7703 O.2     1  UNL1       -0.3556
     28 N           1.7495    0.8613   26.8286 N.ar    1  UNL1       -0.0817
@<TRIPOS>BOND
     1    23    24    1
     2    24    25   ar
     3    25    26   ar
     4     1    26    1
     5     1     2    1
     6     3     2    1
     7     3     4    1
     8     4     5    1
     9     4     6    1
    10     6     7    1
    11     7     8    1
    12     7     9    2
    13     9    10    1
    14    10    15    1
    15    15    16   ar
    16    16    17   ar
    17    17    18   ar
    18    18    19    1
    19    18    20   ar
    20    20    21   ar
    21    21    22    1
    22    10    11    1
    23    11    12    1
    24    26    27   ar
    25    27    28   ar
    26    28    24   ar
    27    12     1    1
    28    10     3    1
    29    21    15   ar
    30     8    13    1
    31     8    14    1
@<TRIPOS>MOLECULE
*****
 28 31 0 0 0
SMALL
GASTEIGER

@<TRIPOS>ATOM
      1 C           3.5404   -0.8897   24.6767 C.3     1  UNL1        0.1747
      2 C           4.4109   -1.9819   24.1297 C.3     1  UNL1        0.0406
      3 C           4.5016   -2.1976   22.6481 C.3     1  UNL1        0.0403
      4 C           5.3721   -3.2899   22.1010 C.3     1  UNL1        0.0569
      5 C           6.1519   -4.1664   23.0357 C.3     1  UNL1        0.0122
      6 S           5.4628   -3.5055   20.6194 S.3     1  UNL1       -0.0816
      7 C           4.6830   -2.6290   19.6848 C.2     1  UNL1        0.1482
      8 N           4.7737   -2.8447   18.2031 N.pl3   1  UNL1       -0.3380
      9 N           3.8125   -1.5368   20.2318 N.2     1  UNL1       -0.2484
     10 C           3.7218   -1.3210   21.7135 C.3     1  UNL1        0.1352
     11 C           2.8513   -0.2288   22.2604 C.3     1  UNL1        0.1691
     12 O           2.7606   -0.0131   23.7420 O.3     1  UNL1       -0.3462
     13 H           5.3450   -3.5616   17.8441 H       1  UNL1        0.1442
     14 H           4.2619   -2.2694   17.5897 H       1  UNL1        0.1442
     15 C           2.9420   -0.4445   20.7788 C.ar    1  UNL1        0.0278
     16 C           1.5208   -0.7855   20.4410 C.ar    1  UNL1        0.0021
     17 C           0.7410    0.0910   19.5064 C.ar    1  UNL1        0.0295
     18 C           1.3823    1.3086   18.9096 C.ar    1  UNL1        0.1424
     19 F           0.6025    2.1852   17.9749 F       1  UNL1       -0.2041
     20 C           2.8034    1.6496   19.2474 C.ar    1  UNL1        0.0590
     21 C           3.5832    0.7731   20.1820 C.ar    1  UNL1        0.1402
     22 F           5.0043    1.1141   20.5198 F       1  UNL1       -0.2044
     23 C           3.2020    1.4466   29.3999 C.3     1  UNL1        0.0557
     24 C           3.2942    0.4000   28.3294 C.ar    1  UNL1        0.1008
     25 C           3.3706    0.6533   26.8529 C.ar    1  UNL1        0.0561
     26 C           3.4497   -0.6739   26.1584 C.ar    1  UNL1        0.1809
     27 O           3.4222   -1.7475   27.2056 O.2     1  UNL1       -0.3556
     28 N           3.3261   -1.0838   28.5473 N.ar    1  UNL1       -0.0817
@<TRIPOS>BOND
     1    23    24    1
     2    24    25   ar
     3    25    26   ar
     4     1    26    1
     5     1     2    1
     6     3     2    1
     7     3     4    1
     8     4     5    1
     9     4     6    1
    10     6     7    1
    11     7     8    1
    12     7     9    2
    13     9    10    1
    14    10    15    1
    15    15    16   ar
    16    16    17   ar
    17    17    18   ar
    18    18    19    1
    19    18    20   ar
    20    20    21   ar
    21    21    22    1
    22    10    11    1
    23    11    12    1
    24    26    27   ar
    25    27    28   ar
    26    28    24   ar
    27    12     1    1
    28    10     3    1
    29    21    15   ar
    30     8    13    1
    31     8    14    1
@<TRIPOS>MOLECULE
*****
 28 31 0 0 0
SMALL
GASTEIGER

@<TRIPOS>ATOM
      1 C           3.7405   -0.5733   24.2271 C.3     1  UNL1        0.1747
      2 C           3.9845    0.7191   23.5059 C.3     1  UNL1        0.0406
      3 C           4.3317    0.7096   22.0467 C.3     1  UNL1        0.0403
      4 C           4.5757    2.0020   21.3254 C.3     1  UNL1        0.0569
      5 C           4.4726    3.3039   22.0634 C.3     1  UNL1        0.0122
      6 S           4.9228    1.9926   19.8662 S.3     1  UNL1       -0.0816
      7 C           5.0260    0.6908   19.1282 C.2     1  UNL1        0.1482
      8 N           5.3731    0.6814   17.6689 N.pl3   1  UNL1       -0.3380
      9 N           4.7819   -0.6016   19.8494 N.2     1  UNL1       -0.2484
     10 C           4.4348   -0.5922   21.3087 C.3     1  UNL1        0.1352
     11 C           4.1908   -1.8846   22.0299 C.3     1  UNL1        0.1691
     12 O           3.8436   -1.8751   23.4891 O.3     1  UNL1       -0.3462
     13 H           5.5333    1.5296   17.1955 H       1  UNL1        0.1442
     14 H           5.4408   -0.1730   17.1845 H       1  UNL1        0.1442
     15 C           4.5379   -1.8940   20.5707 C.ar    1  UNL1        0.0278
     16 C           5.8429   -2.6326   20.5315 C.ar    1  UNL1        0.0021
     17 C           5.9460   -3.9344   19.7935 C.ar    1  UNL1        0.0295
     18 C           4.7441   -4.4976   19.0947 C.ar    1  UNL1        0.1424
     19 F           4.8472   -5.7994   18.3566 F       1  UNL1       -0.2041
     20 C           3.4392   -3.7590   19.1338 C.ar    1  UNL1        0.0590
     21 C           3.3361   -2.4572   19.8718 C.ar    1  UNL1        0.1402
     22 F           2.0312   -1.7186   19.9110 F       1  UNL1       -0.2044
     23 C           1.9091    0.9368   28.9438 C.3     1  UNL1        0.0557
     24 C           2.5515    0.1302   27.8544 C.ar    1  UNL1        0.1008
     25 C           2.6916    0.5413   26.4187 C.ar    1  UNL1        0.0561
     26 C           3.3933   -0.5639   25.6864 C.ar    1  UNL1        0.1809
     27 O           3.6870   -1.6580   26.6696 O.2     1  UNL1       -0.3556
     28 N           3.1667   -1.2290   28.0095 N.ar    1  UNL1       -0.0817
@<TRIPOS>BOND
     1    23    24    1
     2    24    25   ar
     3    25    26   ar
     4     1    26    1
     5     1     2    1
     6     3     2    1
     7     3     4    1
     8     4     5    1
     9     4     6    1
    10     6     7    1
    11     7     8    1
    12     7     9    2
    13     9    10    1
    14    10    15    1
    15    15    16   ar
    16    16    17   ar
    17    17    18   ar
    18    18    19    1
    19    18    20   ar
    20    20    21   ar
    21    21    22    1
    22    10    11    1
    23    11    12    1
    24    26    27   ar
    25    27    28   ar
    26    28    24   ar
    27    12     1    1
    28    10     3    1
    29    21    15   ar
    30     8    13    1
    31     8    14    1
