@<TRIPOS>MOLECULE
*****
 24 26 0 0 0
SMALL
GASTEIGER

@<TRIPOS>ATOM
      1 C          -3.9938  -17.3663   23.1496 C.3     1  UNL1        0.0838
      2 C          -4.4819  -16.1540   23.8859 C.3     1  UNL1        0.0437
      3 C          -5.9810  -16.2004   23.9129 C.ar    1  UNL1       -0.0247
      4 C          -7.0034  -15.2730   24.4997 C.ar    1  UNL1       -0.0045
      5 C          -8.4642  -15.5865   24.3670 C.ar    1  UNL1       -0.0002
      6 C          -8.9026  -16.8275   23.6474 C.ar    1  UNL1        0.0034
      7 C          -7.8802  -17.7549   23.0605 C.ar    1  UNL1       -0.0044
      8 C          -6.4194  -17.4414   23.1933 C.ar    1  UNL1       -0.0247
      9 C          -5.1912  -18.1619   22.7216 C.3     1  UNL1        0.0437
     10 C         -10.3635  -17.1410   23.5146 C.ar    1  UNL1        0.0460
     11 C         -11.2150  -16.3577   22.5600 C.ar    1  UNL1        0.0054
     12 C         -12.6759  -16.6713   22.4272 C.ar    1  UNL1        0.0208
     13 C         -13.2852  -17.7681   23.2492 C.ar    1  UNL1        0.1013
     14 N         -12.4337  -18.5514   24.2039 N.ar    1  UNL1       -0.2165
     15 C         -10.9729  -18.2379   24.3366 C.ar    1  UNL1        0.2222
     16 F         -10.1213  -19.0212   25.2913 F       1  UNL1       -0.1832
     17 N          -2.5601  -17.7208   22.8875 N.3     1  UNL1       -0.1841
     18 H          -1.9944  -16.9661   23.2759 H       1  UNL1        0.1484
     19 S          -2.0861  -17.9373   21.4809 S.O2    1  UNL1        0.0390
     20 O          -1.7286  -19.3541   21.8195 O.2     1  UNL1       -0.1576
     21 O          -2.4437  -16.5204   21.1423 O.2     1  UNL1       -0.1576
     22 C          -2.5787  -18.5998   19.0175 C.3     1  UNL1        0.0270
     23 C          -1.6122  -18.1538   20.0743 C.3     1  UNL1        0.1457
     24 C          -0.1717  -17.9243   19.7245 C.3     1  UNL1        0.0270
@<TRIPOS>BOND
     1    22    23    1
     2    23    24    1
     3    23    19    1
     4    19    20    2
     5    19    21    2
     6    19    17    1
     7    17     1    1
     8     1     2    1
     9     2     3    1
    10     3     4   ar
    11     4     5   ar
    12     5     6   ar
    13     6    10    1
    14    10    11   ar
    15    11    12   ar
    16    12    13   ar
    17    13    14   ar
    18    14    15   ar
    19    15    16    1
    20     6     7   ar
    21     7     8   ar
    22     8     9    1
    23     9     1    1
    24     8     3   ar
    25    15    10   ar
    26    17    18    1
@<TRIPOS>MOLECULE
*****
 24 26 0 0 0
SMALL
GASTEIGER

@<TRIPOS>ATOM
      1 C          -4.0012  -17.4459   23.1357 C.3     1  UNL1        0.0838
      2 C          -4.5154  -16.3100   23.9696 C.3     1  UNL1        0.0437
      3 C          -6.0138  -16.3264   23.9019 C.ar    1  UNL1       -0.0247
      4 C          -7.0563  -15.4458   24.5246 C.ar    1  UNL1       -0.0045
      5 C          -8.5107  -15.7113   24.2715 C.ar    1  UNL1       -0.0002
      6 C          -8.9226  -16.8573   23.3957 C.ar    1  UNL1        0.0034
      7 C          -7.8801  -17.7379   22.7731 C.ar    1  UNL1       -0.0044
      8 C          -6.4257  -17.4724   23.0262 C.ar    1  UNL1       -0.0247
      9 C          -5.1818  -18.1643   22.5527 C.3     1  UNL1        0.0437
     10 C         -10.3771  -17.1228   23.1426 C.ar    1  UNL1        0.0460
     11 C         -11.1339  -18.0634   24.0329 C.ar    1  UNL1        0.0054
     12 C         -12.5884  -18.3288   23.7798 C.ar    1  UNL1        0.0208
     13 C         -13.2861  -17.6537   22.6364 C.ar    1  UNL1        0.1013
     14 N         -12.5293  -16.7130   21.7461 N.ar    1  UNL1       -0.2165
     15 C         -11.0749  -16.4476   21.9992 C.ar    1  UNL1        0.2222
     16 F         -10.3181  -15.5070   21.1089 F       1  UNL1       -0.1832
     17 N          -2.5595  -17.8010   22.9224 N.3     1  UNL1       -0.1841
     18 H          -2.0069  -17.0761   23.3800 H       1  UNL1        0.1484
     19 S          -2.0201  -17.9424   21.5299 S.O2    1  UNL1        0.0390
     20 O          -2.3502  -16.5051   21.2560 O.2     1  UNL1       -0.1576
     21 O          -1.6900  -19.3798   21.8038 O.2     1  UNL1       -0.1576
     22 C          -0.0224  -17.8544   19.8711 C.3     1  UNL1        0.0270
     23 C          -1.4806  -18.0838   20.1374 C.3     1  UNL1        0.1457
     24 C          -2.3995  -18.4546   19.0112 C.3     1  UNL1        0.0270
@<TRIPOS>BOND
     1    22    23    1
     2    23    24    1
     3    23    19    1
     4    19    20    2
     5    19    21    2
     6    19    17    1
     7    17     1    1
     8     1     2    1
     9     2     3    1
    10     3     4   ar
    11     4     5   ar
    12     5     6   ar
    13     6    10    1
    14    10    11   ar
    15    11    12   ar
    16    12    13   ar
    17    13    14   ar
    18    14    15   ar
    19    15    16    1
    20     6     7   ar
    21     7     8   ar
    22     8     9    1
    23     9     1    1
    24     8     3   ar
    25    15    10   ar
    26    17    18    1
@<TRIPOS>MOLECULE
*****
 24 26 0 0 0
SMALL
GASTEIGER

@<TRIPOS>ATOM
      1 C         -11.2497   -2.7221   18.8361 C.3     1  UNL1        0.0838
      2 C         -11.4626   -1.3472   18.2753 C.3     1  UNL1        0.0437
      3 C         -12.8627   -0.9231   18.6066 C.ar    1  UNL1       -0.0247
      4 C         -13.6278    0.3325   18.3101 C.ar    1  UNL1       -0.0045
      5 C         -15.0454    0.4754   18.7791 C.ar    1  UNL1       -0.0002
      6 C         -15.6979   -0.6374   19.5446 C.ar    1  UNL1        0.0034
      7 C         -14.9328   -1.8930   19.8411 C.ar    1  UNL1       -0.0044
      8 C         -13.5152   -2.0359   19.3721 C.ar    1  UNL1       -0.0247
      9 C         -12.5183   -3.1477   19.5139 C.3     1  UNL1        0.0437
     10 C         -17.1155   -0.4945   20.0136 C.ar    1  UNL1        0.0460
     11 C         -18.1286   -1.5461   19.6705 C.ar    1  UNL1        0.0054
     12 C         -19.5463   -1.4032   20.1395 C.ar    1  UNL1        0.0208
     13 C         -19.9508   -0.2086   20.9516 C.ar    1  UNL1        0.1013
     14 N         -18.9376    0.8430   21.2947 N.ar    1  UNL1       -0.2165
     15 C         -17.5200    0.7000   20.8257 C.ar    1  UNL1        0.2222
     16 F         -16.5068    1.7517   21.1687 F       1  UNL1       -0.1832
     17 N          -9.9895   -3.5295   18.7365 N.3     1  UNL1       -0.1841
     18 H          -9.4263   -3.1065   17.9987 H       1  UNL1        0.1484
     19 S         -10.0611   -4.9978   18.4387 S.O2    1  UNL1        0.0390
     20 O          -9.2917   -5.2898   19.6928 O.2     1  UNL1       -0.1576
     21 O         -10.8305   -4.7059   17.1846 O.2     1  UNL1       -0.1576
     22 C          -9.3199   -7.4356   18.9470 C.3     1  UNL1        0.0270
     23 C         -10.1327   -6.4663   18.1409 C.3     1  UNL1        0.1457
     24 C         -11.0171   -6.9654   17.0369 C.3     1  UNL1        0.0270
@<TRIPOS>BOND
     1    22    23    1
     2    23    24    1
     3    23    19    1
     4    19    20    2
     5    19    21    2
     6    19    17    1
     7    17     1    1
     8     1     2    1
     9     2     3    1
    10     3     4   ar
    11     4     5   ar
    12     5     6   ar
    13     6    10    1
    14    10    11   ar
    15    11    12   ar
    16    12    13   ar
    17    13    14   ar
    18    14    15   ar
    19    15    16    1
    20     6     7   ar
    21     7     8   ar
    22     8     9    1
    23     9     1    1
    24     8     3   ar
    25    15    10   ar
    26    17    18    1
@<TRIPOS>MOLECULE
*****
 24 26 0 0 0
SMALL
GASTEIGER

@<TRIPOS>ATOM
      1 C           3.9505    1.2130   36.1434 C.3     1  UNL1        0.0838
      2 C           4.5624   -0.1523   36.0366 C.3     1  UNL1        0.0437
      3 C           4.5716   -0.5442   34.5887 C.ar    1  UNL1       -0.0247
      4 C           5.0536   -1.7787   33.8861 C.ar    1  UNL1       -0.0045
      5 C           4.9294   -1.8900   32.3954 C.ar    1  UNL1       -0.0002
      6 C           4.3232   -0.7669   31.6074 C.ar    1  UNL1        0.0034
      7 C           3.8411    0.4676   32.3100 C.ar    1  UNL1       -0.0044
      8 C           3.9653    0.5789   33.8006 C.ar    1  UNL1       -0.0247
      9 C           3.5815    1.6649   34.7615 C.3     1  UNL1        0.0437
     10 C           4.1990   -0.8782   30.1166 C.ar    1  UNL1        0.0460
     11 C           5.4240   -1.0805   29.2750 C.ar    1  UNL1        0.0054
     12 C           5.2998   -1.1918   27.7842 C.ar    1  UNL1        0.0208
     13 C           3.9506   -1.1009   27.1352 C.ar    1  UNL1        0.1013
     14 N           2.7255   -0.8987   27.9769 N.ar    1  UNL1       -0.2165
     15 C           2.8497   -0.7873   29.4676 C.ar    1  UNL1        0.2222
     16 F           1.6247   -0.5851   30.3093 F       1  UNL1       -0.1832
     17 N           3.7439    1.9900   37.4097 N.3     1  UNL1       -0.1841
     18 H           4.5943    1.8832   37.9628 H       1  UNL1        0.1484
     19 S           2.5944    1.6579   38.3143 S.O2    1  UNL1        0.0390
     20 O           1.6600    2.3862   37.3943 O.2     1  UNL1       -0.1576
     21 O           3.5289    0.9297   39.2343 O.2     1  UNL1       -0.1576
     22 C           0.5177    2.4100   39.6824 C.3     1  UNL1        0.0270
     23 C           1.4449    1.3258   39.2190 C.3     1  UNL1        0.1457
     24 C           1.2226   -0.0905   39.6602 C.3     1  UNL1        0.0270
@<TRIPOS>BOND
     1    22    23    1
     2    23    24    1
     3    23    19    1
     4    19    20    2
     5    19    21    2
     6    19    17    1
     7    17     1    1
     8     1     2    1
     9     2     3    1
    10     3     4   ar
    11     4     5   ar
    12     5     6   ar
    13     6    10    1
    14    10    11   ar
    15    11    12   ar
    16    12    13   ar
    17    13    14   ar
    18    14    15   ar
    19    15    16    1
    20     6     7   ar
    21     7     8   ar
    22     8     9    1
    23     9     1    1
    24     8     3   ar
    25    15    10   ar
    26    17    18    1
@<TRIPOS>MOLECULE
*****
 24 26 0 0 0
SMALL
GASTEIGER

@<TRIPOS>ATOM
      1 C           1.3295    1.3802   25.0219 C.3     1  UNL1        0.0838
      2 C           0.4736    1.5813   23.8066 C.3     1  UNL1        0.0437
      3 C           1.0882    0.8127   22.6745 C.ar    1  UNL1       -0.0247
      4 C           0.6823    0.6412   21.2407 C.ar    1  UNL1       -0.0045
      5 C           1.5121   -0.2064   20.3226 C.ar    1  UNL1       -0.0002
      6 C           2.7479   -0.8824   20.8383 C.ar    1  UNL1        0.0034
      7 C           3.1538   -0.7109   22.2720 C.ar    1  UNL1       -0.0044
      8 C           2.3240    0.1367   23.1902 C.ar    1  UNL1       -0.0247
      9 C           2.4730    0.4874   24.6409 C.3     1  UNL1        0.0437
     10 C           3.5777   -1.7300   19.9201 C.ar    1  UNL1        0.0460
     11 C           3.8453   -3.1658   20.2621 C.ar    1  UNL1        0.0054
     12 C           4.6751   -4.0134   19.3439 C.ar    1  UNL1        0.0208
     13 C           5.2373   -3.4252   18.0837 C.ar    1  UNL1        0.1013
     14 N           4.9696   -1.9894   17.7418 N.ar    1  UNL1       -0.2165
     15 C           4.1399   -1.1418   18.6599 C.ar    1  UNL1        0.2222
     16 F           3.8722    0.2940   18.3180 F       1  UNL1       -0.1832
     17 N           1.0847    1.9686   26.3798 N.3     1  UNL1       -0.1841
     18 H           1.9222    2.4954   26.6278 H       1  UNL1        0.1484
     19 S           0.7778    1.0711   27.5419 S.O2    1  UNL1        0.0390
     20 O           2.1788    1.2474   28.0480 O.2     1  UNL1       -0.1576
     21 O          -0.6231    0.8949   27.0358 O.2     1  UNL1       -0.1576
     22 C           1.5676   -0.2468   29.6370 C.3     1  UNL1        0.0270
     23 C           0.4709    0.1737   28.7040 C.3     1  UNL1        0.1457
     24 C          -0.9326   -0.3033   28.9331 C.3     1  UNL1        0.0270
@<TRIPOS>BOND
     1    22    23    1
     2    23    24    1
     3    23    19    1
     4    19    20    2
     5    19    21    2
     6    19    17    1
     7    17     1    1
     8     1     2    1
     9     2     3    1
    10     3     4   ar
    11     4     5   ar
    12     5     6   ar
    13     6    10    1
    14    10    11   ar
    15    11    12   ar
    16    12    13   ar
    17    13    14   ar
    18    14    15   ar
    19    15    16    1
    20     6     7   ar
    21     7     8   ar
    22     8     9    1
    23     9     1    1
    24     8     3   ar
    25    15    10   ar
    26    17    18    1
@<TRIPOS>MOLECULE
*****
 24 26 0 0 0
SMALL
GASTEIGER

@<TRIPOS>ATOM
      1 C           4.0215    1.5815   36.5001 C.3     1  UNL1        0.0838
      2 C           3.5250    1.7252   35.0920 C.3     1  UNL1        0.0437
      3 C           4.2734    0.7482   34.2345 C.ar    1  UNL1       -0.0247
      4 C           4.2055    0.4426   32.7676 C.ar    1  UNL1       -0.0045
      5 C           5.0967   -0.6105   32.1788 C.ar    1  UNL1       -0.0002
      6 C           6.0559   -1.3580   33.0570 C.ar    1  UNL1        0.0034
      7 C           6.1238   -1.0525   34.5240 C.ar    1  UNL1       -0.0044
      8 C           5.2326    0.0006   35.1127 C.ar    1  UNL1       -0.0247
      9 C           5.0768    0.5157   36.5129 C.3     1  UNL1        0.0437
     10 C           6.9471   -2.4112   32.4682 C.ar    1  UNL1        0.0460
     11 C           6.3652   -3.7152   32.0090 C.ar    1  UNL1        0.0054
     12 C           7.2564   -4.7683   31.4202 C.ar    1  UNL1        0.0208
     13 C           8.7296   -4.5174   31.2905 C.ar    1  UNL1        0.1013
     14 N           9.3115   -3.2133   31.7497 N.ar    1  UNL1       -0.2165
     15 C           8.4203   -2.1602   32.3385 C.ar    1  UNL1        0.2222
     16 F           9.0022   -0.8561   32.7977 F       1  UNL1       -0.1832
     17 N           3.5462    2.3660   37.6870 N.3     1  UNL1       -0.1841
     18 H           4.3311    2.4228   38.3359 H       1  UNL1        0.1484
     19 S           2.3645    1.8878   38.4776 S.O2    1  UNL1        0.0390
     20 O           3.2683    1.0234   39.3056 O.2     1  UNL1       -0.1576
     21 O           1.4607    2.7523   37.6495 O.2     1  UNL1       -0.1576
     22 C           0.0307    2.3343   39.5284 C.3     1  UNL1        0.0270
     23 C           1.1829    1.4097   39.2683 C.3     1  UNL1        0.1457
     24 C           1.1534    0.0069   39.7987 C.3     1  UNL1        0.0270
@<TRIPOS>BOND
     1    22    23    1
     2    23    24    1
     3    23    19    1
     4    19    20    2
     5    19    21    2
     6    19    17    1
     7    17     1    1
     8     1     2    1
     9     2     3    1
    10     3     4   ar
    11     4     5   ar
    12     5     6   ar
    13     6    10    1
    14    10    11   ar
    15    11    12   ar
    16    12    13   ar
    17    13    14   ar
    18    14    15   ar
    19    15    16    1
    20     6     7   ar
    21     7     8   ar
    22     8     9    1
    23     9     1    1
    24     8     3   ar
    25    15    10   ar
    26    17    18    1
@<TRIPOS>MOLECULE
*****
 24 26 0 0 0
SMALL
GASTEIGER

@<TRIPOS>ATOM
      1 C         -15.2652   -0.0250   18.9569 C.3     1  UNL1        0.0838
      2 C         -15.6562   -0.9688   20.0551 C.3     1  UNL1        0.0437
      3 C         -14.7840   -2.1850   19.9536 C.ar    1  UNL1       -0.0247
      4 C         -14.7166   -3.4426   20.7683 C.ar    1  UNL1       -0.0045
      5 C         -13.7190   -4.5079   20.4220 C.ar    1  UNL1       -0.0002
      6 C         -12.7890   -4.3157   19.2610 C.ar    1  UNL1        0.0034
      7 C         -12.8564   -3.0581   18.4462 C.ar    1  UNL1       -0.0044
      8 C         -13.8539   -1.9927   18.7925 C.ar    1  UNL1       -0.0247
      9 C         -14.1513   -0.6578   18.1766 C.3     1  UNL1        0.0437
     10 C         -11.7914   -5.3811   18.9147 C.ar    1  UNL1        0.0460
     11 C         -10.3340   -5.1636   19.1952 C.ar    1  UNL1        0.0054
     12 C          -9.3365   -6.2291   18.8489 C.ar    1  UNL1        0.0208
     13 C          -9.7964   -7.5119   18.2221 C.ar    1  UNL1        0.1013
     14 N         -11.2538   -7.7293   17.9416 N.ar    1  UNL1       -0.2165
     15 C         -12.2513   -6.6639   18.2879 C.ar    1  UNL1        0.2222
     16 F         -13.7088   -6.8813   18.0074 F       1  UNL1       -0.1832
     17 N         -15.8801    1.3162   18.6864 N.3     1  UNL1       -0.1841
     18 H         -15.2559    1.8018   18.0422 H       1  UNL1        0.1484
     19 S         -16.1509    2.2596   19.8207 S.O2    1  UNL1        0.0390
     20 O         -17.5567    1.7447   19.9133 O.2     1  UNL1       -0.1576
     21 O         -14.7451    2.7745   19.7281 O.2     1  UNL1       -0.1576
     22 C         -17.6024    2.9776   21.8524 C.3     1  UNL1        0.0270
     23 C         -16.4218    3.2030   20.9550 C.3     1  UNL1        0.1457
     24 C         -15.5120    4.3719   21.1919 C.3     1  UNL1        0.0270
@<TRIPOS>BOND
     1    22    23    1
     2    23    24    1
     3    23    19    1
     4    19    20    2
     5    19    21    2
     6    19    17    1
     7    17     1    1
     8     1     2    1
     9     2     3    1
    10     3     4   ar
    11     4     5   ar
    12     5     6   ar
    13     6    10    1
    14    10    11   ar
    15    11    12   ar
    16    12    13   ar
    17    13    14   ar
    18    14    15   ar
    19    15    16    1
    20     6     7   ar
    21     7     8   ar
    22     8     9    1
    23     9     1    1
    24     8     3   ar
    25    15    10   ar
    26    17    18    1
