@<TRIPOS>MOLECULE
*****
 30 33 0 0 0
SMALL
GASTEIGER

@<TRIPOS>ATOM
      1 N           4.2503   -1.1036   20.9711 N.pl3   1  UNL1       -0.2834
      2 C           4.6504   -0.8585   22.3959 C.3     1  UNL1        0.1221
      3 C           5.3048   -2.1046   22.9146 C.ar    1  UNL1        0.0337
      4 C           5.9565   -2.7231   24.1157 C.ar    1  UNL1        0.0990
      5 N           6.3637   -4.1207   23.7538 N.ar    1  UNL1       -0.2287
      6 N           5.9637   -4.3659   22.3291 N.ar    1  UNL1       -0.1681
      7 C           5.3092   -3.1199   21.8104 C.ar    1  UNL1        0.0960
      8 C           4.6576   -2.5013   20.6093 C.3     1  UNL1        0.1161
      9 C           3.6432    2.0116   18.5886 C.ar    1  UNL1        0.3213
     10 N           2.1904    1.8373   18.2587 N.ar    1  UNL1       -0.1902
     11 C           1.4242    0.6826   18.8330 C.ar    1  UNL1        0.1361
     12 C           2.1108   -0.2977   19.7371 C.ar    1  UNL1        0.1908
     13 F           1.3446   -1.4523   20.3114 F       1  UNL1       -0.1996
     14 C           3.5637   -0.1234   20.0670 C.ar    1  UNL1        0.1661
     15 N           4.3299    1.0312   19.4927 N.ar    1  UNL1       -0.1769
     16 C           5.7480    2.9359   17.3781 C.3     1  UNL1        0.2559
     17 O           4.4094    3.1662   18.0143 O.3     1  UNL1       -0.4426
     18 C           7.0504   -5.1010   24.6580 C.ar    1  UNL1        0.0841
     19 C           7.9269   -6.1706   24.0769 C.ar    1  UNL1        0.0192
     20 C           8.6136   -7.1509   24.9811 C.ar    1  UNL1        0.0029
     21 C           8.4237   -7.0617   26.4663 C.ar    1  UNL1        0.0184
     22 C           7.5471   -5.9922   27.0474 C.ar    1  UNL1        0.1072
     23 C           6.8604   -5.0119   26.1432 C.ar    1  UNL1        0.0375
     24 S           7.3571   -5.9029   28.5326 S.O2    1  UNL1        0.0105
     25 C           7.1671   -5.8136   30.0179 C.3     1  UNL1        0.1816
     26 O           8.5940   -6.7256   28.7404 O.2     1  UNL1       -0.1686
     27 O           6.1201   -5.0801   28.3249 O.2     1  UNL1       -0.1686
     28 C           4.4496   -3.1640   19.2798 C.3     1  UNL1        0.0240
     29 C           5.3262   -2.8039   18.1170 C.3     1  UNL1        0.0021
     30 C           3.3651   -4.1866   19.1130 C.3     1  UNL1        0.0021
@<TRIPOS>BOND
     1    16    17    1
     2    17     9    1
     3     9    10   ar
     4    10    11   ar
     5    11    12   ar
     6    12    13    1
     7    12    14   ar
     8    14     1    1
     9     1     2    1
    10     2     3    1
    11     3     4   ar
    12     4     5   ar
    13     5    18    1
    14    18    19   ar
    15    19    20   ar
    16    20    21   ar
    17    21    22   ar
    18    22    24    1
    19    24    25    1
    20    24    26    2
    21    24    27    2
    22    22    23   ar
    23     5     6   ar
    24     6     7   ar
    25     7     8    1
    26     8    28    1
    27    28    29    1
    28    28    30    1
    29    14    15   ar
    30    15     9   ar
    31     8     1    1
    32     7     3   ar
    33    23    18   ar
@<TRIPOS>MOLECULE
*****
 30 33 0 0 0
SMALL
GASTEIGER

@<TRIPOS>ATOM
      1 N           4.8418   -1.2691   21.0618 N.pl3   1  UNL1       -0.2834
      2 C           5.2766   -1.0038   22.4728 C.3     1  UNL1        0.1221
      3 C           5.7984   -2.2879   23.0462 C.ar    1  UNL1        0.0337
      4 C           6.3896   -2.9175   24.2726 C.ar    1  UNL1        0.0990
      5 N           6.6427   -4.3655   23.9741 N.ar    1  UNL1       -0.2287
      6 N           6.2080   -4.6308   22.5632 N.ar    1  UNL1       -0.1681
      7 C           5.6862   -3.3468   21.9898 C.ar    1  UNL1        0.0960
      8 C           5.0950   -2.7172   20.7634 C.3     1  UNL1        0.1161
      9 C           2.1864    0.9465   19.1151 C.ar    1  UNL1        0.3213
     10 N           3.0864    1.7492   18.2231 N.ar    1  UNL1       -0.1902
     11 C           4.5716    1.5458   18.2774 C.ar    1  UNL1        0.1361
     12 C           5.1567    0.5397   19.2236 C.ar    1  UNL1        0.1908
     13 F           6.6419    0.3363   19.2779 F       1  UNL1       -0.1996
     14 C           4.2567   -0.2630   20.1156 C.ar    1  UNL1        0.1661
     15 N           2.7716   -0.0596   20.0614 N.ar    1  UNL1       -0.1769
     16 C           0.1194    2.5051   19.3341 C.3     1  UNL1        0.2559
     17 O           0.7012    1.1499   19.0608 O.3     1  UNL1       -0.4426
     18 C           7.2279   -5.3716   24.9204 C.ar    1  UNL1        0.0841
     19 C           8.0005   -6.5416   24.3874 C.ar    1  UNL1        0.0192
     20 C           8.5857   -7.5477   25.3338 C.ar    1  UNL1        0.0029
     21 C           8.3982   -7.3838   26.8129 C.ar    1  UNL1        0.0184
     22 C           7.6255   -6.2138   27.3459 C.ar    1  UNL1        0.1072
     23 C           7.0404   -5.2077   26.3995 C.ar    1  UNL1        0.0375
     24 S           7.4379   -6.0498   28.8250 S.O2    1  UNL1        0.0105
     25 C           7.2503   -5.8857   30.3041 C.3     1  UNL1        0.1816
     26 O           8.5493   -7.0259   29.0742 O.2     1  UNL1       -0.1686
     27 O           6.3265   -5.0736   28.5757 O.2     1  UNL1       -0.1686
     28 C           4.8074   -3.4134   19.4662 C.3     1  UNL1        0.0240
     29 C           5.5877   -3.0582   18.2353 C.3     1  UNL1        0.0021
     30 C           3.7395   -4.4646   19.3999 C.3     1  UNL1        0.0021
@<TRIPOS>BOND
     1    16    17    1
     2    17     9    1
     3     9    10   ar
     4    10    11   ar
     5    11    12   ar
     6    12    13    1
     7    12    14   ar
     8    14     1    1
     9     1     2    1
    10     2     3    1
    11     3     4   ar
    12     4     5   ar
    13     5    18    1
    14    18    19   ar
    15    19    20   ar
    16    20    21   ar
    17    21    22   ar
    18    22    24    1
    19    24    25    1
    20    24    26    2
    21    24    27    2
    22    22    23   ar
    23     5     6   ar
    24     6     7   ar
    25     7     8    1
    26     8    28    1
    27    28    29    1
    28    28    30    1
    29    14    15   ar
    30    15     9   ar
    31     8     1    1
    32     7     3   ar
    33    23    18   ar
@<TRIPOS>MOLECULE
*****
 30 33 0 0 0
SMALL
GASTEIGER

@<TRIPOS>ATOM
      1 N           6.2114   -2.6570   31.7787 N.pl3   1  UNL1       -0.2834
      2 C           4.8746   -2.4092   32.4127 C.3     1  UNL1        0.1221
      3 C           5.0807   -1.5024   33.5897 C.ar    1  UNL1        0.0337
      4 C           4.3818   -0.7889   34.7088 C.ar    1  UNL1        0.0990
      5 N           5.4140   -0.0353   35.4940 N.ar    1  UNL1       -0.2287
      6 N           6.7508   -0.2829   34.8602 N.ar    1  UNL1       -0.1681
      7 C           6.5447   -1.1897   33.6832 C.ar    1  UNL1        0.0960
      8 C           7.2436   -1.9032   32.5640 C.3     1  UNL1        0.1161
      9 C           6.6006   -3.7731   27.9902 C.ar    1  UNL1        0.3213
     10 N           6.9885   -5.2124   28.1572 N.ar    1  UNL1       -0.1902
     11 C           7.1174   -5.7999   29.5314 C.ar    1  UNL1        0.1361
     12 C           6.8584   -4.9481   30.7385 C.ar    1  UNL1        0.1908
     13 F           6.9873   -5.5356   32.1127 F       1  UNL1       -0.1996
     14 C           6.4704   -3.5087   30.5716 C.ar    1  UNL1        0.1661
     15 N           6.3415   -2.9213   29.1975 N.ar    1  UNL1       -0.1769
     16 C           6.8341   -4.0050   25.4132 C.3     1  UNL1        0.2559
     17 O           6.4717   -3.1857   26.6161 O.3     1  UNL1       -0.4426
     18 C           5.1550    0.8166   36.7012 C.ar    1  UNL1        0.0841
     19 C           6.2889    1.5382   37.3672 C.ar    1  UNL1        0.0192
     20 C           6.0297    2.3900   38.5744 C.ar    1  UNL1        0.0029
     21 C           4.6368    2.5203   39.1156 C.ar    1  UNL1        0.0184
     22 C           3.5030    1.7986   38.4496 C.ar    1  UNL1        0.1072
     23 C           3.7621    0.9468   37.2424 C.ar    1  UNL1        0.0375
     24 S           2.1101    1.9288   38.9906 S.O2    1  UNL1        0.0105
     25 C           0.7171    2.0590   39.5317 C.3     1  UNL1        0.1816
     26 O           2.2575    0.6089   39.6879 O.2     1  UNL1       -0.1686
     27 O           1.9626    3.2487   38.2933 O.2     1  UNL1       -0.1686
     28 C           8.7160   -1.8690   32.2799 C.3     1  UNL1        0.0240
     29 C           9.5359   -3.1175   32.4191 C.3     1  UNL1        0.0021
     30 C           9.3686   -0.5865   31.8566 C.3     1  UNL1        0.0021
@<TRIPOS>BOND
     1    16    17    1
     2    17     9    1
     3     9    10   ar
     4    10    11   ar
     5    11    12   ar
     6    12    13    1
     7    12    14   ar
     8    14     1    1
     9     1     2    1
    10     2     3    1
    11     3     4   ar
    12     4     5   ar
    13     5    18    1
    14    18    19   ar
    15    19    20   ar
    16    20    21   ar
    17    21    22   ar
    18    22    24    1
    19    24    25    1
    20    24    26    2
    21    24    27    2
    22    22    23   ar
    23     5     6   ar
    24     6     7   ar
    25     7     8    1
    26     8    28    1
    27    28    29    1
    28    28    30    1
    29    14    15   ar
    30    15     9   ar
    31     8     1    1
    32     7     3   ar
    33    23    18   ar
@<TRIPOS>MOLECULE
*****
 30 33 0 0 0
SMALL
GASTEIGER

@<TRIPOS>ATOM
      1 N           4.2065   -0.8681   21.2557 N.pl3   1  UNL1       -0.2834
      2 C           4.6425   -1.1824   22.6561 C.3     1  UNL1        0.1221
      3 C           3.6693   -0.5404   23.5999 C.ar    1  UNL1        0.0337
      4 C           3.3374   -0.3380   25.0486 C.ar    1  UNL1        0.0990
      5 N           2.0946    0.4983   25.1269 N.ar    1  UNL1       -0.2287
      6 N           1.6585    0.8127   23.7265 N.ar    1  UNL1       -0.1681
      7 C           2.6317    0.1707   22.7828 C.ar    1  UNL1        0.0960
      8 C           2.9636   -0.0318   21.3340 C.3     1  UNL1        0.1161
      9 C           6.4326   -0.7917   17.9711 C.ar    1  UNL1        0.3213
     10 N           6.2650   -2.1999   17.4823 N.ar    1  UNL1       -0.1902
     11 C           5.4112   -3.1642   18.2514 C.ar    1  UNL1        0.1361
     12 C           4.7250   -2.7203   19.5091 C.ar    1  UNL1        0.1908
     13 F           3.8713   -3.6845   20.2782 F       1  UNL1       -0.1996
     14 C           4.8926   -1.3120   19.9980 C.ar    1  UNL1        0.1661
     15 N           5.7463   -0.3478   19.2290 N.ar    1  UNL1       -0.1769
     16 C           6.6526    1.1328   16.2398 C.3     1  UNL1        0.2559
     17 O           7.2863    0.1725   17.2021 O.3     1  UNL1       -0.4426
     18 C           1.4084    0.9423   26.3846 C.ar    1  UNL1        0.0841
     19 C           0.0708    1.6171   26.3111 C.ar    1  UNL1        0.0192
     20 C          -0.6153    2.0611   27.5690 C.ar    1  UNL1        0.0029
     21 C           0.0361    1.8302   28.9003 C.ar    1  UNL1        0.0184
     22 C           1.3737    1.1554   28.9738 C.ar    1  UNL1        0.1072
     23 C           2.0598    0.7114   27.7159 C.ar    1  UNL1        0.0375
     24 S           2.0252    0.9245   30.3050 S.O2    1  UNL1        0.0105
     25 C           2.6767    0.6937   31.6363 C.3     1  UNL1        0.1816
     26 O           1.6612   -0.5288   30.2312 O.2     1  UNL1       -0.1686
     27 O           2.3892    2.3779   30.3789 O.2     1  UNL1       -0.1686
     28 C           2.1888    0.5074   20.1683 C.3     1  UNL1        0.0240
     29 C           2.6841    1.7180   19.4340 C.3     1  UNL1        0.0021
     30 C           0.9188   -0.1640   19.7368 C.3     1  UNL1        0.0021
@<TRIPOS>BOND
     1    16    17    1
     2    17     9    1
     3     9    10   ar
     4    10    11   ar
     5    11    12   ar
     6    12    13    1
     7    12    14   ar
     8    14     1    1
     9     1     2    1
    10     2     3    1
    11     3     4   ar
    12     4     5   ar
    13     5    18    1
    14    18    19   ar
    15    19    20   ar
    16    20    21   ar
    17    21    22   ar
    18    22    24    1
    19    24    25    1
    20    24    26    2
    21    24    27    2
    22    22    23   ar
    23     5     6   ar
    24     6     7   ar
    25     7     8    1
    26     8    28    1
    27    28    29    1
    28    28    30    1
    29    14    15   ar
    30    15     9   ar
    31     8     1    1
    32     7     3   ar
    33    23    18   ar
@<TRIPOS>MOLECULE
*****
 30 33 0 0 0
SMALL
GASTEIGER

@<TRIPOS>ATOM
      1 N           3.8072   -0.4197   20.6183 N.pl3   1  UNL1       -0.2834
      2 C           3.8616   -0.7941   22.0698 C.3     1  UNL1        0.1221
      3 C           2.7828   -0.0360   22.7849 C.ar    1  UNL1        0.0337
      4 C           2.1497    0.2010   24.1239 C.ar    1  UNL1        0.0990
      5 N           1.0372    1.1906   23.9419 N.ar    1  UNL1       -0.2287
      6 N           0.9827    1.5651   22.4904 N.ar    1  UNL1       -0.1681
      7 C           2.0616    0.8070   21.7753 C.ar    1  UNL1        0.0960
      8 C           2.6946    0.5699   20.4363 C.3     1  UNL1        0.1161
      9 C           6.5064   -0.5265   17.7108 C.ar    1  UNL1        0.3213
     10 N           6.5073   -1.9892   17.3786 N.ar    1  UNL1       -0.1902
     11 C           5.6082   -2.9288   18.1263 C.ar    1  UNL1        0.1361
     12 C           4.7082   -2.4056   19.2061 C.ar    1  UNL1        0.1908
     13 F           3.8092   -3.3451   19.9538 F       1  UNL1       -0.1996
     14 C           4.7072   -0.9429   19.5384 C.ar    1  UNL1        0.1661
     15 N           5.6063   -0.0034   18.7908 N.ar    1  UNL1       -0.1769
     16 C           8.2987    1.3542   17.7154 C.3     1  UNL1        0.2559
     17 O           7.4054    0.4130   16.9632 O.3     1  UNL1       -0.4426
     18 C           0.1371    1.7138   25.0218 C.ar    1  UNL1        0.0841
     19 C           0.3567    1.3004   26.4469 C.ar    1  UNL1        0.0192
     20 C          -0.5435    1.8237   27.5267 C.ar    1  UNL1        0.0029
     21 C          -1.6631    2.7603   27.1815 C.ar    1  UNL1        0.0184
     22 C          -1.8826    3.1737   25.7564 C.ar    1  UNL1        0.1072
     23 C          -0.9825    2.6504   24.6766 C.ar    1  UNL1        0.0375
     24 S          -3.0022    4.1103   25.4112 S.O2    1  UNL1        0.0105
     25 C          -4.1218    5.0469   25.0659 C.3     1  UNL1        0.1816
     26 O          -2.3151    4.4571   24.1237 O.2     1  UNL1       -0.1686
     27 O          -3.6893    3.7635   26.6987 O.2     1  UNL1       -0.1686
     28 C           2.2868    1.2100   19.1425 C.3     1  UNL1        0.0240
     29 C           1.2168    0.5818   18.2995 C.3     1  UNL1        0.0021
     30 C           2.9490    2.4781   18.6916 C.3     1  UNL1        0.0021
@<TRIPOS>BOND
     1    16    17    1
     2    17     9    1
     3     9    10   ar
     4    10    11   ar
     5    11    12   ar
     6    12    13    1
     7    12    14   ar
     8    14     1    1
     9     1     2    1
    10     2     3    1
    11     3     4   ar
    12     4     5   ar
    13     5    18    1
    14    18    19   ar
    15    19    20   ar
    16    20    21   ar
    17    21    22   ar
    18    22    24    1
    19    24    25    1
    20    24    26    2
    21    24    27    2
    22    22    23   ar
    23     5     6   ar
    24     6     7   ar
    25     7     8    1
    26     8    28    1
    27    28    29    1
    28    28    30    1
    29    14    15   ar
    30    15     9   ar
    31     8     1    1
    32     7     3   ar
    33    23    18   ar
@<TRIPOS>MOLECULE
*****
 30 33 0 0 0
SMALL
GASTEIGER

@<TRIPOS>ATOM
      1 N           2.9591   -0.2600   26.6277 N.pl3   1  UNL1       -0.2834
      2 C           3.8608   -1.4095   26.2871 C.3     1  UNL1        0.1221
      3 C           3.9755   -1.4818   24.7932 C.ar    1  UNL1        0.0337
      4 C           4.6036   -2.2369   23.6595 C.ar    1  UNL1        0.0990
      5 N           4.1610   -1.5988   22.3761 N.ar    1  UNL1       -0.2287
      6 N           3.2594   -0.4494   22.7167 N.ar    1  UNL1       -0.1681
      7 C           3.1447   -0.3771   24.2105 C.ar    1  UNL1        0.0960
      8 C           2.5166    0.3780   25.3442 C.3     1  UNL1        0.1161
      9 C           0.7300    0.6665   29.7777 C.ar    1  UNL1        0.3213
     10 N           1.7876    1.0449   30.7719 N.ar    1  UNL1       -0.1902
     11 C           3.2357    0.9882   30.3846 C.ar    1  UNL1        0.1361
     12 C           3.6262    0.5533   29.0033 C.ar    1  UNL1        0.1908
     13 F           5.0742    0.4966   28.6161 F       1  UNL1       -0.1996
     14 C           2.5687    0.1749   28.0090 C.ar    1  UNL1        0.1661
     15 N           1.1206    0.2315   28.3963 N.ar    1  UNL1       -0.1769
     16 C          -1.7509    0.0577   29.3048 C.3     1  UNL1        0.2559
     17 O          -0.7180    0.7232   30.1649 O.3     1  UNL1       -0.4426
     18 C           4.5515   -2.0338   20.9947 C.ar    1  UNL1        0.0841
     19 C           4.5004   -3.4861   20.6232 C.ar    1  UNL1        0.0192
     20 C           4.8909   -3.9210   19.2417 C.ar    1  UNL1        0.0029
     21 C           5.3326   -2.9036   18.2318 C.ar    1  UNL1        0.0184
     22 C           5.3837   -1.4512   18.6034 C.ar    1  UNL1        0.1072
     23 C           4.9932   -1.0164   19.9848 C.ar    1  UNL1        0.0375
     24 S           5.8253   -0.4338   17.5936 S.O2    1  UNL1        0.0105
     25 C           6.2669    0.5837   16.5838 C.3     1  UNL1        0.1816
     26 O           6.9153   -1.3584   17.1385 O.2     1  UNL1       -0.1686
     27 O           4.7353    0.4909   18.0487 O.2     1  UNL1       -0.1686
     28 C           1.6059    1.5631   25.2170 C.3     1  UNL1        0.0240
     29 C           2.1440    2.9481   25.4229 C.3     1  UNL1        0.0021
     30 C           0.1571    1.3632   24.8838 C.3     1  UNL1        0.0021
@<TRIPOS>BOND
     1    16    17    1
     2    17     9    1
     3     9    10   ar
     4    10    11   ar
     5    11    12   ar
     6    12    13    1
     7    12    14   ar
     8    14     1    1
     9     1     2    1
    10     2     3    1
    11     3     4   ar
    12     4     5   ar
    13     5    18    1
    14    18    19   ar
    15    19    20   ar
    16    20    21   ar
    17    21    22   ar
    18    22    24    1
    19    24    25    1
    20    24    26    2
    21    24    27    2
    22    22    23   ar
    23     5     6   ar
    24     6     7   ar
    25     7     8    1
    26     8    28    1
    27    28    29    1
    28    28    30    1
    29    14    15   ar
    30    15     9   ar
    31     8     1    1
    32     7     3   ar
    33    23    18   ar
@<TRIPOS>MOLECULE
*****
 30 33 0 0 0
SMALL
GASTEIGER

@<TRIPOS>ATOM
      1 N           3.2619   -1.0429   20.1362 N.pl3   1  UNL1       -0.2834
      2 C           2.1648   -0.7929   21.1282 C.3     1  UNL1        0.1221
      3 C           1.3391    0.3546   20.6268 C.ar    1  UNL1        0.0337
      4 C           0.1507    1.2182   20.9301 C.ar    1  UNL1        0.0990
      5 N           0.0030    2.2112   19.8156 N.ar    1  UNL1       -0.2287
      6 N           1.1000    1.9613   18.8236 N.ar    1  UNL1       -0.1681
      7 C           1.9258    0.8138   19.3250 C.ar    1  UNL1        0.0960
      8 C           3.1141   -0.0498   19.0217 C.3     1  UNL1        0.1161
      9 C           6.6719   -2.8583   21.0450 C.ar    1  UNL1        0.3213
     10 N           6.4386   -4.2147   20.4487 N.ar    1  UNL1       -0.1902
     11 C           5.1463   -4.5139   19.7482 C.ar    1  UNL1        0.1361
     12 C           4.0875   -3.4567   19.6441 C.ar    1  UNL1        0.1908
     13 F           2.7952   -3.7558   18.9436 F       1  UNL1       -0.1996
     14 C           4.3208   -2.1001   20.2404 C.ar    1  UNL1        0.1661
     15 N           5.6130   -1.8010   20.9408 N.ar    1  UNL1       -0.1769
     16 C           9.1077   -3.5256   21.6547 C.3     1  UNL1        0.2559
     17 O           7.9642   -2.5592   21.7455 O.3     1  UNL1       -0.4426
     18 C          -1.0559    3.2685   19.7114 C.ar    1  UNL1        0.0841
     19 C          -0.8655    4.4319   18.7838 C.ar    1  UNL1        0.0192
     20 C          -1.9244    5.4891   18.6797 C.ar    1  UNL1        0.0029
     21 C          -3.1737    5.3831   19.5031 C.ar    1  UNL1        0.0184
     22 C          -3.3642    4.2198   20.4306 C.ar    1  UNL1        0.1072
     23 C          -2.3052    3.1625   20.5348 C.ar    1  UNL1        0.0375
     24 S          -4.6135    4.1137   21.2540 S.O2    1  UNL1        0.0105
     25 C          -5.8627    4.0075   22.0774 C.3     1  UNL1        0.1816
     26 O          -4.8423    5.5878   21.0969 O.2     1  UNL1       -0.1686
     27 O          -4.3846    2.6395   21.4111 O.2     1  UNL1       -0.1686
     28 C           3.9993    0.0603   17.8158 C.3     1  UNL1        0.0240
     29 C           3.8289   -0.8936   16.6707 C.3     1  UNL1        0.0021
     30 C           5.0549    1.1243   17.7548 C.3     1  UNL1        0.0021
@<TRIPOS>BOND
     1    16    17    1
     2    17     9    1
     3     9    10   ar
     4    10    11   ar
     5    11    12   ar
     6    12    13    1
     7    12    14   ar
     8    14     1    1
     9     1     2    1
    10     2     3    1
    11     3     4   ar
    12     4     5   ar
    13     5    18    1
    14    18    19   ar
    15    19    20   ar
    16    20    21   ar
    17    21    22   ar
    18    22    24    1
    19    24    25    1
    20    24    26    2
    21    24    27    2
    22    22    23   ar
    23     5     6   ar
    24     6     7   ar
    25     7     8    1
    26     8    28    1
    27    28    29    1
    28    28    30    1
    29    14    15   ar
    30    15     9   ar
    31     8     1    1
    32     7     3   ar
    33    23    18   ar
@<TRIPOS>MOLECULE
*****
 30 33 0 0 0
SMALL
GASTEIGER

@<TRIPOS>ATOM
      1 N           3.7612   -0.5564   20.6840 N.pl3   1  UNL1       -0.2834
      2 C           2.6153    0.3780   20.4313 C.3     1  UNL1        0.1221
      3 C           1.9653    0.6813   21.7487 C.ar    1  UNL1        0.0337
      4 C           0.8554    1.4463   22.4066 C.ar    1  UNL1        0.0990
      5 N           0.9136    1.1721   23.8802 N.ar    1  UNL1       -0.2287
      6 N           2.0595    0.2377   24.1330 N.ar    1  UNL1       -0.1681
      7 C           2.7095   -0.0656   22.8156 C.ar    1  UNL1        0.0960
      8 C           3.8194   -0.8306   22.1576 C.3     1  UNL1        0.1161
      9 C           6.7165   -0.8320   18.0496 C.ar    1  UNL1        0.3213
     10 N           6.5369   -2.2413   17.5684 N.ar    1  UNL1       -0.1902
     11 C           5.4320   -3.0890   18.1259 C.ar    1  UNL1        0.1361
     12 C           4.5068   -2.5274   19.1643 C.ar    1  UNL1        0.1908
     13 F           3.4019   -3.3751   19.7217 F       1  UNL1       -0.1996
     14 C           4.6864   -1.1180   19.6455 C.ar    1  UNL1        0.1661
     15 N           5.7912   -0.2704   19.0881 N.ar    1  UNL1       -0.1769
     16 C           7.6565    1.5043   17.4110 C.3     1  UNL1        0.2559
     17 O           7.8214    0.0157   17.4922 O.3     1  UNL1       -0.4426
     18 C          -0.0116    1.7337   24.9188 C.ar    1  UNL1        0.0841
     19 C           0.0722    1.2524   26.3370 C.ar    1  UNL1        0.0192
     20 C          -0.8531    1.8141   27.3755 C.ar    1  UNL1        0.0029
     21 C          -1.8621    2.8570   26.9958 C.ar    1  UNL1        0.0184
     22 C          -1.9459    3.3383   25.5776 C.ar    1  UNL1        0.1072
     23 C          -1.0206    2.7766   24.5391 C.ar    1  UNL1        0.0375
     24 S          -2.9549    4.3812   25.1979 S.O2    1  UNL1        0.0105
     25 C          -3.9639    5.4241   24.8182 C.3     1  UNL1        0.1816
     26 O          -2.0433    4.8673   24.1104 O.2     1  UNL1       -0.1686
     27 O          -3.8666    3.8951   26.2854 O.2     1  UNL1       -0.1686
     28 C           4.8131   -1.7145   22.8514 C.3     1  UNL1        0.0240
     29 C           4.6453   -3.2047   22.8146 C.3     1  UNL1        0.0021
     30 C           5.9744   -1.1083   23.5819 C.3     1  UNL1        0.0021
@<TRIPOS>BOND
     1    16    17    1
     2    17     9    1
     3     9    10   ar
     4    10    11   ar
     5    11    12   ar
     6    12    13    1
     7    12    14   ar
     8    14     1    1
     9     1     2    1
    10     2     3    1
    11     3     4   ar
    12     4     5   ar
    13     5    18    1
    14    18    19   ar
    15    19    20   ar
    16    20    21   ar
    17    21    22   ar
    18    22    24    1
    19    24    25    1
    20    24    26    2
    21    24    27    2
    22    22    23   ar
    23     5     6   ar
    24     6     7   ar
    25     7     8    1
    26     8    28    1
    27    28    29    1
    28    28    30    1
    29    14    15   ar
    30    15     9   ar
    31     8     1    1
    32     7     3   ar
    33    23    18   ar
@<TRIPOS>MOLECULE
*****
 30 33 0 0 0
SMALL
GASTEIGER

@<TRIPOS>ATOM
      1 N           2.1182    0.9476   27.8338 N.pl3   1  UNL1       -0.2834
      2 C           3.2525    0.7581   26.8707 C.3     1  UNL1        0.1221
      3 C           2.6852    0.7493   25.4822 C.ar    1  UNL1        0.0337
      4 C           3.0357    0.6267   24.0289 C.ar    1  UNL1        0.0990
      5 N           1.7673    0.7350   23.2355 N.ar    1  UNL1       -0.2287
      6 N           0.6329    0.9245   24.1985 N.ar    1  UNL1       -0.1681
      7 C           1.2002    0.9333   25.5870 C.ar    1  UNL1        0.0960
      8 C           0.8497    1.0559   27.0403 C.3     1  UNL1        0.1161
      9 C           2.8953   -0.0818   31.5869 C.ar    1  UNL1        0.3213
     10 N           2.4602    1.1548   32.3159 N.ar    1  UNL1       -0.1902
     11 C           1.9111    2.3224   31.5508 C.ar    1  UNL1        0.1361
     12 C           1.7970    2.2533   30.0568 C.ar    1  UNL1        0.1908
     13 F           1.2479    3.4208   29.2918 F       1  UNL1       -0.1996
     14 C           2.2322    1.0167   29.3278 C.ar    1  UNL1        0.1661
     15 N           2.7813   -0.1508   30.0928 N.ar    1  UNL1       -0.1769
     16 C           4.2506   -1.0188   33.5956 C.3     1  UNL1        0.2559
     17 O           3.4444   -1.2493   32.3520 O.3     1  UNL1       -0.4426
     18 C           1.6532    0.6659   21.7414 C.ar    1  UNL1        0.0841
     19 C           0.5523    1.4032   21.0384 C.ar    1  UNL1        0.0192
     20 C           0.4383    1.3341   19.5443 C.ar    1  UNL1        0.0029
     21 C           1.4252    0.5277   18.7533 C.ar    1  UNL1        0.0184
     22 C           2.5262   -0.2096   19.4563 C.ar    1  UNL1        0.1072
     23 C           2.6401   -0.1404   20.9504 C.ar    1  UNL1        0.0375
     24 S           3.5131   -1.0159   18.6653 S.O2    1  UNL1        0.0105
     25 C           4.5001   -1.8223   17.8743 C.3     1  UNL1        0.1816
     26 O           3.6515   -1.9721   19.8127 O.2     1  UNL1       -0.1686
     27 O           3.3747   -0.0597   17.5179 O.2     1  UNL1       -0.1686
     28 C          -0.5273    1.2522   27.6017 C.3     1  UNL1        0.0240
     29 C          -1.1024    0.2410   28.5488 C.3     1  UNL1        0.0021
     30 C          -1.3294    2.4596   27.2160 C.3     1  UNL1        0.0021
@<TRIPOS>BOND
     1    16    17    1
     2    17     9    1
     3     9    10   ar
     4    10    11   ar
     5    11    12   ar
     6    12    13    1
     7    12    14   ar
     8    14     1    1
     9     1     2    1
    10     2     3    1
    11     3     4   ar
    12     4     5   ar
    13     5    18    1
    14    18    19   ar
    15    19    20   ar
    16    20    21   ar
    17    21    22   ar
    18    22    24    1
    19    24    25    1
    20    24    26    2
    21    24    27    2
    22    22    23   ar
    23     5     6   ar
    24     6     7   ar
    25     7     8    1
    26     8    28    1
    27    28    29    1
    28    28    30    1
    29    14    15   ar
    30    15     9   ar
    31     8     1    1
    32     7     3   ar
    33    23    18   ar
