@<TRIPOS>MOLECULE
*****
 27 29 0 0 0
SMALL
GASTEIGER

@<TRIPOS>ATOM
      1 N          -7.6342  -19.5421   19.3550 N.am    1  UNL1       -0.2969
      2 C          -7.0126  -19.6491   20.7159 C.2     1  UNL1        0.2461
      3 O          -7.8527  -20.0394   21.8956 O.2     1  UNL1       -0.2701
      4 H          -7.0827  -19.2859   18.5807 H       1  UNL1        0.1501
      5 C          -5.5507  -19.3658   20.8971 C.ar    1  UNL1        0.0540
      6 C          -4.9189  -19.5193   22.2489 C.ar    1  UNL1        0.0061
      7 C          -3.4572  -19.2360   22.4300 C.ar    1  UNL1        0.0198
      8 C          -2.6271  -18.7991   21.2595 C.ar    1  UNL1        0.0892
      9 N          -1.1734  -18.4512   21.1340 N.ar    1  UNL1       -0.2245
     10 C          -0.9068  -18.0826   19.7046 C.ar    1  UNL1        0.1567
     11 N           0.4165  -17.6668   19.1334 N.pl3   1  UNL1       -0.3375
     12 S          -2.1957  -18.2028   18.9468 S.2     1  UNL1       -0.0520
     13 C          -3.2589  -18.6456   19.9077 C.ar    1  UNL1        0.0498
     14 C          -4.7207  -18.9290   19.7265 C.ar    1  UNL1        0.0126
     15 H           1.2098  -17.6176   19.7142 H       1  UNL1        0.1442
     16 H           0.4916  -17.4431   18.1776 H       1  UNL1        0.1442
     17 C          -9.0960  -19.8254   19.1737 C.3     1  UNL1        0.1166
     18 C         -12.1135  -17.9247   21.9182 C.ar    1  UNL1        0.0756
     19 C         -11.6691  -19.3376   22.1555 C.ar    1  UNL1        0.0062
     20 C         -10.6633  -19.9712   21.2407 C.ar    1  UNL1       -0.0024
     21 C         -10.1018  -19.1919   20.0886 C.ar    1  UNL1       -0.0026
     22 C         -10.5461  -17.7790   19.8512 C.ar    1  UNL1       -0.0024
     23 C         -11.5520  -17.1454   20.7661 C.ar    1  UNL1        0.0062
     24 C         -13.1192  -17.2911   22.8330 C.2     1  UNL1        0.3413
     25 O         -13.1390  -15.8017   23.0094 O.2     1  UNL1       -0.2449
     26 C         -13.9629  -18.3491   25.0509 C.3     1  UNL1        0.2560
     27 O         -14.1053  -18.1470   23.5714 O.3     1  UNL1       -0.4413
@<TRIPOS>BOND
     1    26    27    1
     2    27    24    1
     3    24    25    2
     4    24    18    1
     5    18    19   ar
     6    19    20   ar
     7    20    21   ar
     8    21    17    1
     9    17     1    1
    10     1     2   am
    11     2     3    2
    12     2     5    1
    13     5     6   ar
    14     6     7   ar
    15     7     8   ar
    16     8     9   ar
    17     9    10   ar
    18    10    11    1
    19    10    12   ar
    20    12    13   ar
    21    13    14   ar
    22    21    22   ar
    23    22    23   ar
    24    23    18   ar
    25    14     5   ar
    26    13     8   ar
    27     1     4    1
    28    11    15    1
    29    11    16    1
@<TRIPOS>MOLECULE
*****
 27 29 0 0 0
SMALL
GASTEIGER

@<TRIPOS>ATOM
      1 N          -6.0598  -17.4434   23.6764 N.am    1  UNL1       -0.2969
      2 C          -6.8583  -16.2847   23.1570 C.2     1  UNL1        0.2461
      3 O          -6.1867  -14.9700   22.8914 O.2     1  UNL1       -0.2701
      4 H          -6.5006  -18.3063   23.8507 H       1  UNL1        0.1501
      5 C          -8.3285  -16.4407   22.9031 C.ar    1  UNL1        0.0540
      6 C          -8.9564  -15.7882   21.7073 C.ar    1  UNL1        0.0061
      7 C         -10.4265  -15.9442   21.4535 C.ar    1  UNL1        0.0198
      8 C         -11.2686  -16.7527   22.3953 C.ar    1  UNL1        0.0892
      9 N         -12.7323  -17.0807   22.4036 N.ar    1  UNL1       -0.2245
     10 C         -13.0090  -17.9359   23.6044 C.ar    1  UNL1        0.1567
     11 N         -14.3440  -18.4928   24.0017 N.pl3   1  UNL1       -0.3375
     12 S         -11.7162  -18.1365   24.3383 S.2     1  UNL1       -0.0520
     13 C         -10.6406  -17.4052   23.5911 C.ar    1  UNL1        0.0498
     14 C          -9.1706  -17.2492   23.8450 C.ar    1  UNL1        0.0126
     15 H         -15.1390  -18.3047   23.4524 H       1  UNL1        0.1442
     16 H         -14.4251  -19.0464   24.8117 H       1  UNL1        0.1442
     17 C          -4.5897  -17.2874   23.9303 C.3     1  UNL1        0.1166
     18 C          -1.6436  -18.0022   20.6047 C.ar    1  UNL1        0.0756
     19 C          -2.4833  -19.1338   21.1190 C.ar    1  UNL1        0.0062
     20 C          -3.4653  -18.8956   22.2276 C.ar    1  UNL1       -0.0024
     21 C          -3.6077  -17.5257   22.8218 C.ar    1  UNL1       -0.0026
     22 C          -2.7681  -16.3941   22.3075 C.ar    1  UNL1       -0.0024
     23 C          -1.7861  -16.6323   21.1990 C.ar    1  UNL1        0.0062
     24 C          -0.6617  -18.2404   19.4962 C.2     1  UNL1        0.3413
     25 O           0.6722  -18.8576   19.7957 O.2     1  UNL1       -0.2449
     26 C          -2.3933  -17.3687   17.7666 C.3     1  UNL1        0.2560
     27 O          -1.0136  -17.8615   18.0881 O.3     1  UNL1       -0.4413
@<TRIPOS>BOND
     1    26    27    1
     2    27    24    1
     3    24    25    2
     4    24    18    1
     5    18    19   ar
     6    19    20   ar
     7    20    21   ar
     8    21    17    1
     9    17     1    1
    10     1     2   am
    11     2     3    2
    12     2     5    1
    13     5     6   ar
    14     6     7   ar
    15     7     8   ar
    16     8     9   ar
    17     9    10   ar
    18    10    11    1
    19    10    12   ar
    20    12    13   ar
    21    13    14   ar
    22    21    22   ar
    23    22    23   ar
    24    23    18   ar
    25    14     5   ar
    26    13     8   ar
    27     1     4    1
    28    11    15    1
    29    11    16    1
@<TRIPOS>MOLECULE
*****
 27 29 0 0 0
SMALL
GASTEIGER

@<TRIPOS>ATOM
      1 N           6.1509   -3.8789   22.8182 N.am    1  UNL1       -0.2969
      2 C           7.2449   -4.8571   23.1287 C.2     1  UNL1        0.2461
      3 O           8.1900   -5.2930   22.0486 O.2     1  UNL1       -0.2701
      4 H           5.5306   -3.5928   23.5272 H       1  UNL1        0.1501
      5 C           7.3937   -5.3993   24.5194 C.ar    1  UNL1        0.0540
      6 C           8.1079   -6.6989   24.7452 C.ar    1  UNL1        0.0061
      7 C           8.2567   -7.2411   26.1358 C.ar    1  UNL1        0.0198
      8 C           7.6914   -6.4837   27.3006 C.ar    1  UNL1        0.0892
      9 N           7.6834   -6.7673   28.7736 N.ar    1  UNL1       -0.2245
     10 C           6.9643   -5.6429   29.4581 C.ar    1  UNL1        0.1567
     11 N           6.7239   -5.5186   30.9335 N.pl3   1  UNL1       -0.3375
     12 S           6.5279   -4.6645   28.4082 S.2     1  UNL1       -0.0520
     13 C           6.9773   -5.1842   27.0748 C.ar    1  UNL1        0.0498
     14 C           6.8284   -4.6420   25.6842 C.ar    1  UNL1        0.0126
     15 H           7.0509   -6.2165   31.5461 H       1  UNL1        0.1442
     16 H           6.2390   -4.7391   31.2893 H       1  UNL1        0.1442
     17 C           6.0021   -3.3366   21.4276 C.3     1  UNL1        0.1166
     18 C           2.3113   -1.0234   20.2977 C.ar    1  UNL1        0.0756
     19 C           3.0576   -1.8011   19.2546 C.ar    1  UNL1        0.0062
     20 C           4.2879   -2.5722   19.6312 C.ar    1  UNL1       -0.0024
     21 C           4.7718   -2.5656   21.0510 C.ar    1  UNL1       -0.0026
     22 C           4.0256   -1.7878   22.0941 C.ar    1  UNL1       -0.0024
     23 C           2.7952   -1.0167   21.7175 C.ar    1  UNL1        0.0062
     24 C           1.0810   -0.2523   19.9211 C.2     1  UNL1        0.3413
     25 O          -0.0318   -0.0846   20.9127 O.2     1  UNL1       -0.2449
     26 C           0.7942    1.8335   18.3989 C.3     1  UNL1        0.2560
     27 O           0.9636    0.3511   18.5528 O.3     1  UNL1       -0.4413
@<TRIPOS>BOND
     1    26    27    1
     2    27    24    1
     3    24    25    2
     4    24    18    1
     5    18    19   ar
     6    19    20   ar
     7    20    21   ar
     8    21    17    1
     9    17     1    1
    10     1     2   am
    11     2     3    2
    12     2     5    1
    13     5     6   ar
    14     6     7   ar
    15     7     8   ar
    16     8     9   ar
    17     9    10   ar
    18    10    11    1
    19    10    12   ar
    20    12    13   ar
    21    13    14   ar
    22    21    22   ar
    23    22    23   ar
    24    23    18   ar
    25    14     5   ar
    26    13     8   ar
    27     1     4    1
    28    11    15    1
    29    11    16    1
@<TRIPOS>MOLECULE
*****
 27 29 0 0 0
SMALL
GASTEIGER

@<TRIPOS>ATOM
      1 N           5.3445   -3.4274   24.1946 N.am    1  UNL1       -0.2969
      2 C           6.5474   -3.0108   24.9880 C.2     1  UNL1        0.2461
      3 O           7.7635   -2.4838   24.2855 O.2     1  UNL1       -0.2701
      4 H           4.5464   -3.7733   24.6556 H       1  UNL1        0.1501
      5 C           6.5343   -3.1213   26.4839 C.ar    1  UNL1        0.0540
      6 C           6.2269   -1.9162   27.3223 C.ar    1  UNL1        0.0061
      7 C           6.2138   -2.0267   28.8181 C.ar    1  UNL1        0.0198
      8 C           6.5081   -3.3424   29.4755 C.ar    1  UNL1        0.0892
      9 N           6.5675   -3.7531   30.9171 N.ar    1  UNL1       -0.2245
     10 C           6.9117   -5.2121   30.9695 C.ar    1  UNL1        0.1567
     11 N           7.0741   -6.0357   32.2127 N.pl3   1  UNL1       -0.3375
     12 S           7.0650   -5.7032   29.5604 S.2     1  UNL1       -0.0520
     13 C           6.8155   -4.5476   28.6371 C.ar    1  UNL1        0.0498
     14 C           6.8287   -4.4371   27.1413 C.ar    1  UNL1        0.0126
     15 H           6.9526   -5.6209   33.0973 H       1  UNL1        0.1442
     16 H           7.3021   -6.9909   32.1441 H       1  UNL1        0.1442
     17 C           5.3577   -3.3169   22.6987 C.3     1  UNL1        0.1166
     18 C           2.2152   -0.8777   20.5951 C.ar    1  UNL1        0.0756
     19 C           2.9318   -1.9717   19.8604 C.ar    1  UNL1        0.0062
     20 C           3.9793   -2.7847   20.5616 C.ar    1  UNL1       -0.0024
     21 C           4.3102   -2.5038   21.9975 C.ar    1  UNL1       -0.0026
     22 C           3.5936   -1.4099   22.7321 C.ar    1  UNL1       -0.0024
     23 C           2.5460   -0.5968   22.0309 C.ar    1  UNL1        0.0062
     24 C           1.1677   -0.0647   19.8939 C.2     1  UNL1        0.3413
     25 O          -0.1657    0.1606   20.5428 O.2     1  UNL1       -0.2449
     26 C           2.6410    1.4194   18.3522 C.3     1  UNL1        0.2560
     27 O           1.4536    0.5231   18.5438 O.3     1  UNL1       -0.4413
@<TRIPOS>BOND
     1    26    27    1
     2    27    24    1
     3    24    25    2
     4    24    18    1
     5    18    19   ar
     6    19    20   ar
     7    20    21   ar
     8    21    17    1
     9    17     1    1
    10     1     2   am
    11     2     3    2
    12     2     5    1
    13     5     6   ar
    14     6     7   ar
    15     7     8   ar
    16     8     9   ar
    17     9    10   ar
    18    10    11    1
    19    10    12   ar
    20    12    13   ar
    21    13    14   ar
    22    21    22   ar
    23    22    23   ar
    24    23    18   ar
    25    14     5   ar
    26    13     8   ar
    27     1     4    1
    28    11    15    1
    29    11    16    1
@<TRIPOS>MOLECULE
*****
 27 29 0 0 0
SMALL
GASTEIGER

@<TRIPOS>ATOM
      1 N           0.0353    1.1604   20.6104 N.am    1  UNL1       -0.2969
      2 C           0.5153    2.2216   21.5556 C.2     1  UNL1        0.2461
      3 O           1.6227    3.1464   21.1452 O.2     1  UNL1       -0.2701
      4 H          -0.6915    0.5535   20.8798 H       1  UNL1        0.1501
      5 C          -0.1121    2.3581   22.9113 C.ar    1  UNL1        0.0540
      6 C           0.4370    1.5845   24.0732 C.ar    1  UNL1        0.0061
      7 C          -0.1905    1.7210   25.4287 C.ar    1  UNL1        0.0198
      8 C          -1.3670    2.6311   25.6224 C.ar    1  UNL1        0.0892
      9 N          -2.1879    2.9667   26.8323 N.ar    1  UNL1       -0.2245
     10 C          -3.2442    3.9477   26.4181 C.ar    1  UNL1        0.1567
     11 N          -4.2858    4.5520   27.3126 N.pl3   1  UNL1       -0.3375
     12 S          -3.0763    4.2184   24.9523 S.2     1  UNL1       -0.0520
     13 C          -1.9161    3.4047   24.4606 C.ar    1  UNL1        0.0498
     14 C          -1.2886    3.2682   23.1050 C.ar    1  UNL1        0.0126
     15 H          -4.3155    4.3106   28.2666 H       1  UNL1        0.1442
     16 H          -4.9397    5.1900   26.9457 H       1  UNL1        0.1442
     17 C           0.6628    1.0240   19.2547 C.3     1  UNL1        0.1166
     18 C           4.1548   -1.7514   18.6607 C.ar    1  UNL1        0.0756
     19 C           3.8522   -0.6970   17.6375 C.ar    1  UNL1        0.0062
     20 C           2.6882    0.2280   17.8356 C.ar    1  UNL1       -0.0024
     21 C           1.8268    0.0989   19.0567 C.ar    1  UNL1       -0.0026
     22 C           2.1293   -0.9554   20.0799 C.ar    1  UNL1       -0.0024
     23 C           3.2934   -1.8805   19.8819 C.ar    1  UNL1        0.0062
     24 C           5.3188   -2.6765   18.4627 C.2     1  UNL1        0.3413
     25 O           6.4074   -2.3158   17.4959 O.2     1  UNL1       -0.2449
     26 C           4.5778   -5.1438   18.7989 C.3     1  UNL1        0.2560
     27 O           5.3942   -3.9622   19.2316 O.3     1  UNL1       -0.4413
@<TRIPOS>BOND
     1    26    27    1
     2    27    24    1
     3    24    25    2
     4    24    18    1
     5    18    19   ar
     6    19    20   ar
     7    20    21   ar
     8    21    17    1
     9    17     1    1
    10     1     2   am
    11     2     3    2
    12     2     5    1
    13     5     6   ar
    14     6     7   ar
    15     7     8   ar
    16     8     9   ar
    17     9    10   ar
    18    10    11    1
    19    10    12   ar
    20    12    13   ar
    21    13    14   ar
    22    21    22   ar
    23    22    23   ar
    24    23    18   ar
    25    14     5   ar
    26    13     8   ar
    27     1     4    1
    28    11    15    1
    29    11    16    1
@<TRIPOS>MOLECULE
*****
 27 29 0 0 0
SMALL
GASTEIGER

@<TRIPOS>ATOM
      1 N          -0.7993    2.2917   20.4634 N.am    1  UNL1       -0.2969
      2 C          -1.9111    3.2976   20.4199 C.2     1  UNL1        0.2461
      3 O          -2.0617    4.1980   19.2297 O.2     1  UNL1       -0.2701
      4 H          -0.7004    1.7008   21.2446 H       1  UNL1        0.1501
      5 C          -2.8724    3.4032   21.5666 C.ar    1  UNL1        0.0540
      6 C          -4.3223    3.0777   21.3622 C.ar    1  UNL1        0.0061
      7 C          -5.2834    3.1833   22.5089 C.ar    1  UNL1        0.0198
      8 C          -4.7947    3.6144   23.8600 C.ar    1  UNL1        0.0892
      9 N          -5.5023    3.8084   25.1684 N.ar    1  UNL1       -0.2245
     10 C          -4.4896    4.2538   26.1813 C.ar    1  UNL1        0.1567
     11 N          -4.7624    4.5637   27.6234 N.pl3   1  UNL1       -0.3375
     12 S          -3.1563    4.3351   25.4990 S.2     1  UNL1       -0.0520
     13 C          -3.3448    3.9398   24.0644 C.ar    1  UNL1        0.0498
     14 C          -2.3837    3.8343   22.9177 C.ar    1  UNL1        0.0126
     15 H          -5.6761    4.4804   27.9806 H       1  UNL1        0.1442
     16 H          -4.0278    4.8504   28.2128 H       1  UNL1        0.1442
     17 C           0.1620    2.1862   19.3167 C.3     1  UNL1        0.1166
     18 C           3.0962   -1.2214   19.1468 C.ar    1  UNL1        0.0756
     19 C           3.2338   -0.0653   18.2010 C.ar    1  UNL1        0.0062
     20 C           2.2557    1.0706   18.2576 C.ar    1  UNL1       -0.0024
     21 C           1.1400    1.0503   19.2601 C.ar    1  UNL1       -0.0026
     22 C           1.0024   -0.1057   20.2059 C.ar    1  UNL1       -0.0024
     23 C           1.9805   -1.2416   20.1493 C.ar    1  UNL1        0.0062
     24 C           4.0743   -2.3572   19.0902 C.2     1  UNL1        0.3413
     25 O           5.5301   -2.0823   18.8563 O.2     1  UNL1       -0.2449
     26 C           4.5059   -4.9147   18.9391 C.3     1  UNL1        0.2560
     27 O           3.5964   -3.7680   19.2674 O.3     1  UNL1       -0.4413
@<TRIPOS>BOND
     1    26    27    1
     2    27    24    1
     3    24    25    2
     4    24    18    1
     5    18    19   ar
     6    19    20   ar
     7    20    21   ar
     8    21    17    1
     9    17     1    1
    10     1     2   am
    11     2     3    2
    12     2     5    1
    13     5     6   ar
    14     6     7   ar
    15     7     8   ar
    16     8     9   ar
    17     9    10   ar
    18    10    11    1
    19    10    12   ar
    20    12    13   ar
    21    13    14   ar
    22    21    22   ar
    23    22    23   ar
    24    23    18   ar
    25    14     5   ar
    26    13     8   ar
    27     1     4    1
    28    11    15    1
    29    11    16    1
@<TRIPOS>MOLECULE
*****
 27 29 0 0 0
SMALL
GASTEIGER

@<TRIPOS>ATOM
      1 N           5.6604   -3.9047   23.5240 N.am    1  UNL1       -0.2969
      2 C           6.9707   -4.0617   24.2369 C.2     1  UNL1        0.2461
      3 O           8.2487   -3.6816   23.5496 O.2     1  UNL1       -0.2701
      4 H           4.8216   -4.1541   23.9751 H       1  UNL1        0.1501
      5 C           7.0032   -4.5989   25.6371 C.ar    1  UNL1        0.0540
      6 C           7.2574   -6.0579   25.8749 C.ar    1  UNL1        0.0061
      7 C           7.2899   -6.5950   27.2750 C.ar    1  UNL1        0.0198
      8 C           7.0681   -5.6731   28.4373 C.ar    1  UNL1        0.0892
      9 N           7.0427   -5.9128   29.9179 N.ar    1  UNL1       -0.2245
     10 C           6.7728   -4.6018   30.5950 C.ar    1  UNL1        0.1567
     11 N           6.6635   -4.3796   32.0745 N.pl3   1  UNL1       -0.3375
     12 S           6.6314   -3.5520   29.5330 S.2     1  UNL1       -0.0520
     13 C           6.8139   -4.2141   28.1995 C.ar    1  UNL1        0.0498
     14 C           6.7814   -3.6770   26.7993 C.ar    1  UNL1        0.0126
     15 H           6.7721   -5.1360   32.6952 H       1  UNL1        0.1442
     16 H           6.4831   -3.4774   32.4248 H       1  UNL1        0.1442
     17 C           5.6279   -3.3675   22.1238 C.3     1  UNL1        0.1166
     18 C           2.1699   -0.8269   20.7682 C.ar    1  UNL1        0.0756
     19 C           2.7054   -0.6828   22.1619 C.ar    1  UNL1        0.0062
     20 C           3.8581   -1.5297   22.6138 C.ar    1  UNL1       -0.0024
     21 C           4.4752   -2.5206   21.6720 C.ar    1  UNL1       -0.0026
     22 C           3.9398   -2.6648   20.2782 C.ar    1  UNL1       -0.0024
     23 C           2.7871   -1.8179   19.8263 C.ar    1  UNL1        0.0062
     24 C           1.0173    0.0199   20.3163 C.2     1  UNL1        0.3413
     25 O           0.7906    0.2590   18.8529 O.2     1  UNL1       -0.2449
     26 C          -0.1216    2.1123   21.3530 C.3     1  UNL1        0.2560
     27 O           0.0913    0.6277   21.3278 O.3     1  UNL1       -0.4413
@<TRIPOS>BOND
     1    26    27    1
     2    27    24    1
     3    24    25    2
     4    24    18    1
     5    18    19   ar
     6    19    20   ar
     7    20    21   ar
     8    21    17    1
     9    17     1    1
    10     1     2   am
    11     2     3    2
    12     2     5    1
    13     5     6   ar
    14     6     7   ar
    15     7     8   ar
    16     8     9   ar
    17     9    10   ar
    18    10    11    1
    19    10    12   ar
    20    12    13   ar
    21    13    14   ar
    22    21    22   ar
    23    22    23   ar
    24    23    18   ar
    25    14     5   ar
    26    13     8   ar
    27     1     4    1
    28    11    15    1
    29    11    16    1
@<TRIPOS>MOLECULE
*****
 27 29 0 0 0
SMALL
GASTEIGER

@<TRIPOS>ATOM
      1 N          -6.8114  -16.8433   23.3554 N.am    1  UNL1       -0.2969
      2 C          -5.3975  -16.7458   23.8468 C.2     1  UNL1        0.2461
      3 O          -5.1035  -16.0796   25.1582 O.2     1  UNL1       -0.2701
      4 H          -7.0043  -17.2805   22.4947 H       1  UNL1        0.1501
      5 C          -4.2776  -17.3145   23.0267 C.ar    1  UNL1        0.0540
      6 C          -4.1724  -18.7974   22.8269 C.ar    1  UNL1        0.0061
      7 C          -3.0525  -19.3660   22.0069 C.ar    1  UNL1        0.0198
      8 C          -2.0378  -18.4517   21.3867 C.ar    1  UNL1        0.0892
      9 N          -0.8332  -18.7203   20.5341 N.ar    1  UNL1       -0.2245
     10 C          -0.1940  -17.4033   20.2070 C.ar    1  UNL1        0.1567
     11 N           1.0385  -17.2037   19.3755 N.pl3   1  UNL1       -0.3375
     12 S          -1.0035  -16.3209   20.8575 S.2     1  UNL1       -0.0520
     13 C          -2.1431  -16.9689   21.5865 C.ar    1  UNL1        0.0498
     14 C          -3.2630  -16.4002   22.4066 C.ar    1  UNL1        0.0126
     15 H           1.5027  -17.9811   18.9890 H       1  UNL1        0.1442
     16 H           1.3830  -16.2954   19.2162 H       1  UNL1        0.1442
     17 C          -7.9313  -16.2746   24.1755 C.3     1  UNL1        0.1166
     18 C         -12.1672  -17.5924   23.4202 C.ar    1  UNL1        0.0756
     19 C         -11.2491  -18.4512   24.2385 C.ar    1  UNL1        0.0062
     20 C          -9.8372  -18.0120   24.4902 C.ar    1  UNL1       -0.0024
     21 C          -9.3433  -16.7138   23.9238 C.ar    1  UNL1       -0.0026
     22 C         -10.2613  -15.8550   23.1055 C.ar    1  UNL1       -0.0024
     23 C         -11.6733  -16.2942   22.8537 C.ar    1  UNL1        0.0062
     24 C         -13.5792  -18.0316   23.1685 C.2     1  UNL1        0.3413
     25 O         -14.0164  -18.3910   21.7794 O.2     1  UNL1       -0.2449
     26 C         -14.0823  -18.5180   25.6705 C.3     1  UNL1        0.2560
     27 O         -14.5539  -18.1115   24.3058 O.3     1  UNL1       -0.4413
@<TRIPOS>BOND
     1    26    27    1
     2    27    24    1
     3    24    25    2
     4    24    18    1
     5    18    19   ar
     6    19    20   ar
     7    20    21   ar
     8    21    17    1
     9    17     1    1
    10     1     2   am
    11     2     3    2
    12     2     5    1
    13     5     6   ar
    14     6     7   ar
    15     7     8   ar
    16     8     9   ar
    17     9    10   ar
    18    10    11    1
    19    10    12   ar
    20    12    13   ar
    21    13    14   ar
    22    21    22   ar
    23    22    23   ar
    24    23    18   ar
    25    14     5   ar
    26    13     8   ar
    27     1     4    1
    28    11    15    1
    29    11    16    1
@<TRIPOS>MOLECULE
*****
 27 29 0 0 0
SMALL
GASTEIGER

@<TRIPOS>ATOM
      1 N           0.2284    1.6402   19.6359 N.am    1  UNL1       -0.2969
      2 C          -0.3526    3.0096   19.8286 C.2     1  UNL1        0.2461
      3 O           0.1534    4.1609   19.0109 O.2     1  UNL1       -0.2701
      4 H          -0.1037    0.8846   20.1726 H       1  UNL1        0.1501
      5 C          -1.4397    3.2278   20.8389 C.ar    1  UNL1        0.0540
      6 C          -1.0948    3.3797   22.2907 C.ar    1  UNL1        0.0061
      7 C          -2.1819    3.5979   23.3009 C.ar    1  UNL1        0.0198
      8 C          -3.6139    3.6641   22.8593 C.ar    1  UNL1        0.0892
      9 N          -4.8906    3.8672   23.6203 N.ar    1  UNL1       -0.2245
     10 C          -6.0244    3.8408   22.6387 C.ar    1  UNL1        0.1567
     11 N          -7.4789    4.0050   22.9670 N.pl3   1  UNL1       -0.3375
     12 S          -5.4486    3.6214   21.2711 S.2     1  UNL1       -0.0520
     13 C          -3.9588    3.5122   21.4075 C.ar    1  UNL1        0.0498
     14 C          -2.8717    3.2940   20.3973 C.ar    1  UNL1        0.0126
     15 H          -7.7602    4.1453   23.8999 H       1  UNL1        0.1442
     16 H          -8.1522    3.9726   22.2494 H       1  UNL1        0.1442
     17 C           1.3155    1.4220   18.6256 C.3     1  UNL1        0.1166
     18 C           3.9786   -2.1925   18.9310 C.ar    1  UNL1        0.0756
     19 C           4.0688   -1.2933   17.7337 C.ar    1  UNL1        0.0062
     20 C           3.1812   -0.0885   17.6319 C.ar    1  UNL1       -0.0024
     21 C           2.2032    0.2172   18.7274 C.ar    1  UNL1       -0.0026
     22 C           2.1129   -0.6818   19.9246 C.ar    1  UNL1       -0.0024
     23 C           3.0006   -1.8867   20.0265 C.ar    1  UNL1        0.0062
     24 C           4.8662   -3.3973   19.0328 C.2     1  UNL1        0.3413
     25 O           4.3339   -4.7533   18.6754 O.2     1  UNL1       -0.2449
     26 C           6.6979   -3.7624   20.8388 C.3     1  UNL1        0.2560
     27 O           6.2862   -3.2461   19.4920 O.3     1  UNL1       -0.4413
@<TRIPOS>BOND
     1    26    27    1
     2    27    24    1
     3    24    25    2
     4    24    18    1
     5    18    19   ar
     6    19    20   ar
     7    20    21   ar
     8    21    17    1
     9    17     1    1
    10     1     2   am
    11     2     3    2
    12     2     5    1
    13     5     6   ar
    14     6     7   ar
    15     7     8   ar
    16     8     9   ar
    17     9    10   ar
    18    10    11    1
    19    10    12   ar
    20    12    13   ar
    21    13    14   ar
    22    21    22   ar
    23    22    23   ar
    24    23    18   ar
    25    14     5   ar
    26    13     8   ar
    27     1     4    1
    28    11    15    1
    29    11    16    1
