@<TRIPOS>MOLECULE
*****
 40 45 0 0 0
SMALL
GASTEIGER

@<TRIPOS>ATOM
      1 N           7.0087   -4.0551   22.9185 N.3     1  UNL1       -0.2641
      2 C           7.7031   -5.2237   23.5527 C.3     1  UNL1        0.0981
      3 C           8.5246   -6.1550   22.7113 C.3     1  UNL1        0.0224
      4 C           9.2190   -7.3235   23.3455 C.3     1  UNL1        0.0065
      5 C           9.0920   -7.5608   24.8212 C.3     1  UNL1        0.0277
      6 C           8.2706   -6.6295   25.6626 C.ar    1  UNL1       -0.0073
      7 C           8.1437   -6.8668   27.1383 C.ar    1  UNL1       -0.0015
      8 C           7.3222   -5.9355   27.9797 C.ar    1  UNL1        0.0203
      9 C           6.6278   -4.7670   27.3455 C.ar    1  UNL1        0.0985
     10 N           6.7547   -4.5297   25.8698 N.ar    1  UNL1       -0.2471
     11 C           7.5761   -5.4609   25.0284 C.ar    1  UNL1        0.0695
     12 C           5.5156   -4.0578   22.7745 C.3     1  UNL1        0.0888
     13 C           1.4909    1.4430   23.6655 C.ar    1  UNL1       -0.0003
     14 C           1.4697    1.0482   22.2185 C.ar    1  UNL1       -0.0003
     15 C           2.2704   -0.1309   21.7509 C.ar    1  UNL1       -0.0045
     16 C           3.0923   -0.9153   22.7303 C.ar    1  UNL1       -0.0234
     17 C           3.1136   -0.5205   24.1773 C.ar    1  UNL1       -0.0103
     18 C           2.3129    0.6586   24.6449 C.ar    1  UNL1       -0.0032
     19 C           3.9355   -1.3049   25.1567 C.3     1  UNL1        0.0953
     20 N           4.7362   -2.4840   24.6891 N.3     1  UNL1       -0.2934
     21 C           4.7149   -2.8787   23.2421 C.3     1  UNL1        0.0748
     22 C           3.8930   -2.0944   22.2628 C.3     1  UNL1        0.0432
     23 H           4.4086   -3.2913   25.2194 H       1  UNL1        0.1236
     24 C           7.8073   -2.8839   22.4281 C.3     1  UNL1        0.0994
     25 C           7.4411   -2.2143   21.1369 C.ar    1  UNL1       -0.0062
     26 C           7.4597   -2.9944   19.8557 C.ar    1  UNL1       -0.0032
     27 C           7.0935   -2.3247   18.5645 C.ar    1  UNL1       -0.0032
     28 C           6.7086   -0.8750   18.5542 C.ar    1  UNL1       -0.0064
     29 C           6.6900   -0.0949   19.8352 C.ar    1  UNL1       -0.0032
     30 C           7.0562   -0.7645   21.1266 C.ar    1  UNL1       -0.0032
     31 C           6.3424   -0.2053   17.2630 C.3     1  UNL1        0.0959
     32 N           4.9450   -0.3182   16.7295 N.3     1  UNL1       -0.2900
     33 H           4.9411   -1.1029   16.0779 H       1  UNL1        0.1239
     34 C           3.7975   -0.5320   17.6717 C.3     1  UNL1        0.0960
     35 C           3.0112    0.6422   18.1745 C.ar    1  UNL1       -0.0033
     36 C           3.7241    1.8494   18.7076 C.ar    1  UNL1        0.0178
     37 C           2.9377    3.0237   19.2104 C.ar    1  UNL1        0.0986
     38 N           1.4384    2.9907   19.1801 N.ar    1  UNL1       -0.2423
     39 C           0.7254    1.7834   18.6470 C.ar    1  UNL1        0.0986
     40 C           1.5118    0.6092   18.1442 C.ar    1  UNL1        0.0178
@<TRIPOS>BOND
     1    13    14   ar
     2    14    15   ar
     3    15    16   ar
     4    16    17   ar
     5    17    18   ar
     6    17    19    1
     7    19    20    1
     8    20    21    1
     9    21    12    1
    10    12     1    1
    11     1    24    1
    12    24    25    1
    13    25    26   ar
    14    26    27   ar
    15    27    28   ar
    16    28    31    1
    17    31    32    1
    18    32    34    1
    19    34    35    1
    20    35    36   ar
    21    36    37   ar
    22    37    38   ar
    23    38    39   ar
    24    39    40   ar
    25    28    29   ar
    26    29    30   ar
    27     2     1    1
    28     2     3    1
    29     3     4    1
    30     4     5    1
    31     5     6    1
    32     6     7   ar
    33     7     8   ar
    34     8     9   ar
    35     9    10   ar
    36    10    11   ar
    37    21    22    1
    38    18    13   ar
    39    30    25   ar
    40    11     2    1
    41    22    16    1
    42    40    35   ar
    43    11     6   ar
    44    20    23    1
    45    32    33    1
@<TRIPOS>MOLECULE
*****
 40 45 0 0 0
SMALL
GASTEIGER

@<TRIPOS>ATOM
      1 N           7.1631   -3.9936   23.6831 N.3     1  UNL1       -0.2641
      2 C           7.5900   -5.2205   24.4329 C.3     1  UNL1        0.0981
      3 C           8.2286   -6.3630   23.7002 C.3     1  UNL1        0.0224
      4 C           8.6555   -7.5900   24.4501 C.3     1  UNL1        0.0065
      5 C           8.4439   -7.6744   25.9327 C.3     1  UNL1        0.0277
      6 C           7.8054   -6.5319   26.6654 C.ar    1  UNL1       -0.0073
      7 C           7.5938   -6.6163   28.1480 C.ar    1  UNL1       -0.0015
      8 C           6.9552   -5.4737   28.8807 C.ar    1  UNL1        0.0203
      9 C           6.5282   -4.2468   28.1309 C.ar    1  UNL1        0.0985
     10 N           6.7398   -4.1624   26.6483 N.ar    1  UNL1       -0.2471
     11 C           7.3784   -5.3049   25.9155 C.ar    1  UNL1        0.0695
     12 C           5.7539   -3.8723   23.1835 C.3     1  UNL1        0.0888
     13 C           1.4426    1.4010   24.1085 C.ar    1  UNL1       -0.0003
     14 C           1.4842    1.0507   22.6505 C.ar    1  UNL1       -0.0003
     15 C           2.3548   -0.0741   22.1740 C.ar    1  UNL1       -0.0045
     16 C           3.1837   -0.8485   23.1553 C.ar    1  UNL1       -0.0234
     17 C           3.1422   -0.4982   24.6132 C.ar    1  UNL1       -0.0103
     18 C           2.2716    0.6265   25.0898 C.ar    1  UNL1       -0.0032
     19 C           3.9712   -1.2727   25.5946 C.3     1  UNL1        0.0953
     20 N           4.8417   -2.3974   25.1180 N.3     1  UNL1       -0.2934
     21 C           4.8833   -2.7476   23.6601 C.3     1  UNL1        0.0748
     22 C           4.0544   -1.9732   22.6787 C.3     1  UNL1        0.0432
     23 H           4.5377   -3.2354   25.6136 H       1  UNL1        0.1236
     24 C           8.1453   -2.8878   23.4327 C.3     1  UNL1        0.0994
     25 C           8.0922   -2.1140   22.1489 C.ar    1  UNL1       -0.0062
     26 C           8.6589   -2.7058   20.8924 C.ar    1  UNL1       -0.0032
     27 C           8.6058   -1.9319   19.6086 C.ar    1  UNL1       -0.0032
     28 C           7.9862   -0.5662   19.5812 C.ar    1  UNL1       -0.0064
     29 C           7.4196    0.0257   20.8376 C.ar    1  UNL1       -0.0032
     30 C           7.4726   -0.7482   22.1215 C.ar    1  UNL1       -0.0032
     31 C           7.9332    0.2077   18.2973 C.3     1  UNL1        0.0959
     32 N           6.9924   -0.2119   17.2070 N.3     1  UNL1       -0.2900
     33 H           7.2575   -1.1594   16.9378 H       1  UNL1        0.1239
     34 C           5.5137   -0.2309   17.4583 C.3     1  UNL1        0.0960
     35 C           4.8782   -1.4258   18.1052 C.ar    1  UNL1       -0.0033
     36 C           5.5590   -2.7610   18.0468 C.ar    1  UNL1        0.0178
     37 C           4.9235   -3.9559   18.6937 C.ar    1  UNL1        0.0986
     38 N           3.6072   -3.8155   19.3989 N.ar    1  UNL1       -0.2423
     39 C           2.9262   -2.4802   19.4573 C.ar    1  UNL1        0.0986
     40 C           3.5617   -1.2853   18.8104 C.ar    1  UNL1        0.0178
@<TRIPOS>BOND
     1    13    14   ar
     2    14    15   ar
     3    15    16   ar
     4    16    17   ar
     5    17    18   ar
     6    17    19    1
     7    19    20    1
     8    20    21    1
     9    21    12    1
    10    12     1    1
    11     1    24    1
    12    24    25    1
    13    25    26   ar
    14    26    27   ar
    15    27    28   ar
    16    28    31    1
    17    31    32    1
    18    32    34    1
    19    34    35    1
    20    35    36   ar
    21    36    37   ar
    22    37    38   ar
    23    38    39   ar
    24    39    40   ar
    25    28    29   ar
    26    29    30   ar
    27     2     1    1
    28     2     3    1
    29     3     4    1
    30     4     5    1
    31     5     6    1
    32     6     7   ar
    33     7     8   ar
    34     8     9   ar
    35     9    10   ar
    36    10    11   ar
    37    21    22    1
    38    18    13   ar
    39    30    25   ar
    40    11     2    1
    41    22    16    1
    42    40    35   ar
    43    11     6   ar
    44    20    23    1
    45    32    33    1
@<TRIPOS>MOLECULE
*****
 40 45 0 0 0
SMALL
GASTEIGER

@<TRIPOS>ATOM
      1 N          -0.4000    2.4860   20.5578 N.3     1  UNL1       -0.2641
      2 C          -1.2309    3.2573   19.5757 C.3     1  UNL1        0.0981
      3 C          -0.6047    3.7967   18.3239 C.3     1  UNL1        0.0224
      4 C          -1.4356    4.5681   17.3418 C.3     1  UNL1        0.0065
      5 C          -2.8928    4.8001   17.6114 C.3     1  UNL1        0.0277
      6 C          -3.5191    4.2608   18.8631 C.ar    1  UNL1       -0.0073
      7 C          -4.9763    4.4929   19.1328 C.ar    1  UNL1       -0.0015
      8 C          -5.6026    3.9535   20.3846 C.ar    1  UNL1        0.0203
      9 C          -4.7716    3.1822   21.3667 C.ar    1  UNL1        0.0985
     10 N          -3.3144    2.9501   21.0970 N.ar    1  UNL1       -0.2471
     11 C          -2.6882    3.4894   19.8453 C.ar    1  UNL1        0.0695
     12 C           0.2939    3.2019   21.6785 C.3     1  UNL1        0.0888
     13 C          -0.3397    1.3305   28.2624 C.ar    1  UNL1       -0.0003
     14 C           0.9771    0.8405   27.7372 C.ar    1  UNL1       -0.0003
     15 C           1.3672    1.1168   26.3153 C.ar    1  UNL1       -0.0045
     16 C           0.4405    1.8831   25.4187 C.ar    1  UNL1       -0.0234
     17 C          -0.8764    2.3731   25.9439 C.ar    1  UNL1       -0.0103
     18 C          -1.2665    2.0969   27.3657 C.ar    1  UNL1       -0.0032
     19 C          -1.8031    3.1394   25.0473 C.3     1  UNL1        0.0953
     20 N          -1.4131    3.4157   23.6255 N.3     1  UNL1       -0.2934
     21 C          -0.0962    2.9256   23.1003 C.3     1  UNL1        0.0748
     22 C           0.8305    2.1594   23.9969 C.3     1  UNL1        0.0432
     23 H          -1.4171    4.4292   23.5107 H       1  UNL1        0.1236
     24 C          -0.2630    0.9987   20.4192 C.3     1  UNL1        0.0994
     25 C           1.0174    0.4080   19.9077 C.ar    1  UNL1       -0.0062
     26 C           1.8411   -0.4786   20.7941 C.ar    1  UNL1       -0.0032
     27 C           3.1215   -1.0693   20.2827 C.ar    1  UNL1       -0.0032
     28 C           3.5782   -0.7736   18.8849 C.ar    1  UNL1       -0.0064
     29 C           2.7546    0.1129   17.9985 C.ar    1  UNL1       -0.0032
     30 C           1.4742    0.7037   18.5099 C.ar    1  UNL1       -0.0032
     31 C           4.8586   -1.3643   18.3734 C.3     1  UNL1        0.0959
     32 N           4.8581   -2.7270   17.7465 N.3     1  UNL1       -0.2900
     33 H           5.6186   -2.7388   17.0669 H       1  UNL1        0.1239
     34 C           5.0243   -3.9469   18.6035 C.3     1  UNL1        0.0960
     35 C           5.4866   -3.8084   20.0237 C.ar    1  UNL1       -0.0033
     36 C           4.4997   -3.9189   21.1479 C.ar    1  UNL1        0.0178
     37 C           4.9620   -3.7804   22.5681 C.ar    1  UNL1        0.0986
     38 N           6.4112   -3.5314   22.8642 N.ar    1  UNL1       -0.2423
     39 C           7.3982   -3.4210   21.7400 C.ar    1  UNL1        0.0986
     40 C           6.9359   -3.5595   20.3198 C.ar    1  UNL1        0.0178
@<TRIPOS>BOND
     1    13    14   ar
     2    14    15   ar
     3    15    16   ar
     4    16    17   ar
     5    17    18   ar
     6    17    19    1
     7    19    20    1
     8    20    21    1
     9    21    12    1
    10    12     1    1
    11     1    24    1
    12    24    25    1
    13    25    26   ar
    14    26    27   ar
    15    27    28   ar
    16    28    31    1
    17    31    32    1
    18    32    34    1
    19    34    35    1
    20    35    36   ar
    21    36    37   ar
    22    37    38   ar
    23    38    39   ar
    24    39    40   ar
    25    28    29   ar
    26    29    30   ar
    27     2     1    1
    28     2     3    1
    29     3     4    1
    30     4     5    1
    31     5     6    1
    32     6     7   ar
    33     7     8   ar
    34     8     9   ar
    35     9    10   ar
    36    10    11   ar
    37    21    22    1
    38    18    13   ar
    39    30    25   ar
    40    11     2    1
    41    22    16    1
    42    40    35   ar
    43    11     6   ar
    44    20    23    1
    45    32    33    1
@<TRIPOS>MOLECULE
*****
 40 45 0 0 0
SMALL
GASTEIGER

@<TRIPOS>ATOM
      1 N           0.0121    2.3162   20.5227 N.3     1  UNL1       -0.2641
      2 C          -0.7319    3.1631   19.5332 C.3     1  UNL1        0.0981
      3 C          -0.0125    3.7428   18.3514 C.3     1  UNL1        0.0224
      4 C          -0.7565    4.5897   17.3620 C.3     1  UNL1        0.0065
      5 C          -2.2199    4.8569   17.5541 C.3     1  UNL1        0.0277
      6 C          -2.9393    4.2773   18.7358 C.ar    1  UNL1       -0.0073
      7 C          -4.4028    4.5445   18.9279 C.ar    1  UNL1       -0.0015
      8 C          -5.1222    3.9647   20.1097 C.ar    1  UNL1        0.0203
      9 C          -4.3782    3.1178   21.0992 C.ar    1  UNL1        0.0985
     10 N          -2.9147    2.8506   20.9070 N.ar    1  UNL1       -0.2471
     11 C          -2.1953    3.4303   19.7253 C.ar    1  UNL1        0.0695
     12 C           0.0703    0.8281   20.3423 C.3     1  UNL1        0.0888
     13 C           5.4718   -2.9301   18.3547 C.ar    1  UNL1       -0.0003
     14 C           4.8837   -3.5336   19.5956 C.ar    1  UNL1       -0.0003
     15 C           3.6857   -2.9026   20.2414 C.ar    1  UNL1       -0.0045
     16 C           3.0760   -1.6682   19.6461 C.ar    1  UNL1       -0.0234
     17 C           3.6640   -1.0647   18.4051 C.ar    1  UNL1       -0.0103
     18 C           4.8619   -1.6956   17.7594 C.ar    1  UNL1       -0.0032
     19 C           3.0542    0.1698   17.8099 C.3     1  UNL1        0.0953
     20 N           1.8563    0.8007   18.4556 N.3     1  UNL1       -0.2934
     21 C           1.2682    0.1972   19.6966 C.3     1  UNL1        0.0748
     22 C           1.8780   -1.0372   20.2918 C.3     1  UNL1        0.0432
     23 H           1.1157    0.8122   17.7543 H       1  UNL1        0.1236
     24 C           0.6980    2.9572   21.6926 C.3     1  UNL1        0.0994
     25 C           0.3606    2.5250   23.0888 C.ar    1  UNL1       -0.0062
     26 C          -0.7874    3.1620   23.8143 C.ar    1  UNL1       -0.0032
     27 C          -1.1247    2.7298   25.2105 C.ar    1  UNL1       -0.0032
     28 C          -0.3141    1.6607   25.8812 C.ar    1  UNL1       -0.0064
     29 C           0.8339    1.0237   25.1557 C.ar    1  UNL1       -0.0032
     30 C           1.1713    1.4559   23.7595 C.ar    1  UNL1       -0.0032
     31 C          -0.6514    1.2285   27.2774 C.3     1  UNL1        0.0959
     32 N          -0.1024   -0.0588   27.8173 N.3     1  UNL1       -0.2900
     33 H           0.5913   -0.3877   27.1458 H       1  UNL1        0.1239
     34 C           0.5530   -0.0873   29.1663 C.3     1  UNL1        0.0960
     35 C           2.0079   -0.4323   29.2860 C.ar    1  UNL1       -0.0033
     36 C           2.8106   -0.7353   28.0557 C.ar    1  UNL1        0.0178
     37 C           4.2655   -1.0803   28.1754 C.ar    1  UNL1        0.0986
     38 N           4.9176   -1.1222   29.5255 N.ar    1  UNL1       -0.2423
     39 C           4.1150   -0.8192   30.7560 C.ar    1  UNL1        0.0986
     40 C           2.6601   -0.4743   30.6362 C.ar    1  UNL1        0.0178
@<TRIPOS>BOND
     1    13    14   ar
     2    14    15   ar
     3    15    16   ar
     4    16    17   ar
     5    17    18   ar
     6    17    19    1
     7    19    20    1
     8    20    21    1
     9    21    12    1
    10    12     1    1
    11     1    24    1
    12    24    25    1
    13    25    26   ar
    14    26    27   ar
    15    27    28   ar
    16    28    31    1
    17    31    32    1
    18    32    34    1
    19    34    35    1
    20    35    36   ar
    21    36    37   ar
    22    37    38   ar
    23    38    39   ar
    24    39    40   ar
    25    28    29   ar
    26    29    30   ar
    27     2     1    1
    28     2     3    1
    29     3     4    1
    30     4     5    1
    31     5     6    1
    32     6     7   ar
    33     7     8   ar
    34     8     9   ar
    35     9    10   ar
    36    10    11   ar
    37    21    22    1
    38    18    13   ar
    39    30    25   ar
    40    11     2    1
    41    22    16    1
    42    40    35   ar
    43    11     6   ar
    44    20    23    1
    45    32    33    1
@<TRIPOS>MOLECULE
*****
 40 45 0 0 0
SMALL
GASTEIGER

@<TRIPOS>ATOM
      1 N          -6.6568  -19.1873   21.9343 N.3     1  UNL1       -0.2641
      2 C          -5.5300  -19.6768   21.0737 C.3     1  UNL1        0.0981
      3 C          -5.7408  -20.8424   20.1534 C.3     1  UNL1        0.0224
      4 C          -4.6141  -21.3319   19.2927 C.3     1  UNL1        0.0065
      5 C          -3.2764  -20.6558   19.3524 C.3     1  UNL1        0.0277
      6 C          -3.0655  -19.4903   20.2726 C.ar    1  UNL1       -0.0073
      7 C          -1.7278  -18.8142   20.3322 C.ar    1  UNL1       -0.0015
      8 C          -1.5170  -17.6485   21.2525 C.ar    1  UNL1        0.0203
      9 C          -2.6438  -17.1590   22.1132 C.ar    1  UNL1        0.0985
     10 N          -3.9814  -17.8351   22.0535 N.ar    1  UNL1       -0.2471
     11 C          -4.1923  -19.0007   21.1333 C.ar    1  UNL1        0.0695
     12 C          -6.9878  -17.7248   21.9763 C.3     1  UNL1        0.0888
     13 C          -7.1669  -14.4054   27.9929 C.ar    1  UNL1       -0.0003
     14 C          -8.5114  -15.0156   27.7286 C.ar    1  UNL1       -0.0003
     15 C          -8.7445  -15.8016   26.4724 C.ar    1  UNL1       -0.0045
     16 C          -7.6330  -15.9772   25.4805 C.ar    1  UNL1       -0.0234
     17 C          -6.2885  -15.3670   25.7448 C.ar    1  UNL1       -0.0103
     18 C          -6.0554  -14.5811   27.0010 C.ar    1  UNL1       -0.0032
     19 C          -5.1771  -15.5428   24.7529 C.3     1  UNL1        0.0953
     20 N          -5.4102  -16.3287   23.4968 N.3     1  UNL1       -0.2934
     21 C          -6.7547  -16.9389   23.2325 C.3     1  UNL1        0.0748
     22 C          -7.8661  -16.7632   24.2243 C.3     1  UNL1        0.0432
     23 H          -4.7350  -17.0932   23.4982 H       1  UNL1        0.1236
     24 C          -7.4526  -20.1602   22.7529 C.3     1  UNL1        0.0994
     25 C          -8.8577  -19.8263   23.1581 C.ar    1  UNL1       -0.0062
     26 C          -9.9399  -19.7540   22.1219 C.ar    1  UNL1       -0.0032
     27 C         -11.3450  -19.4201   22.5271 C.ar    1  UNL1       -0.0032
     28 C         -11.6679  -19.1585   23.9684 C.ar    1  UNL1       -0.0064
     29 C         -10.5857  -19.2308   25.0045 C.ar    1  UNL1       -0.0032
     30 C          -9.1806  -19.5647   24.5994 C.ar    1  UNL1       -0.0032
     31 C         -13.0730  -18.8246   24.3736 C.3     1  UNL1        0.0959
     32 N         -13.8656  -17.8282   23.5805 N.3     1  UNL1       -0.2900
     33 H         -14.7552  -17.7074   24.0645 H       1  UNL1        0.1239
     34 C         -13.3146  -16.4542   23.3376 C.3     1  UNL1        0.0960
     35 C         -12.3642  -16.2173   22.2016 C.ar    1  UNL1       -0.0033
     36 C         -12.8546  -16.2902   20.7859 C.ar    1  UNL1        0.0178
     37 C         -11.9042  -16.0533   19.6499 C.ar    1  UNL1        0.0986
     38 N         -10.4635  -15.7435   19.9295 N.ar    1  UNL1       -0.2423
     39 C          -9.9730  -15.6706   21.3452 C.ar    1  UNL1        0.0986
     40 C         -10.9234  -15.9075   22.4813 C.ar    1  UNL1        0.0178
@<TRIPOS>BOND
     1    13    14   ar
     2    14    15   ar
     3    15    16   ar
     4    16    17   ar
     5    17    18   ar
     6    17    19    1
     7    19    20    1
     8    20    21    1
     9    21    12    1
    10    12     1    1
    11     1    24    1
    12    24    25    1
    13    25    26   ar
    14    26    27   ar
    15    27    28   ar
    16    28    31    1
    17    31    32    1
    18    32    34    1
    19    34    35    1
    20    35    36   ar
    21    36    37   ar
    22    37    38   ar
    23    38    39   ar
    24    39    40   ar
    25    28    29   ar
    26    29    30   ar
    27     2     1    1
    28     2     3    1
    29     3     4    1
    30     4     5    1
    31     5     6    1
    32     6     7   ar
    33     7     8   ar
    34     8     9   ar
    35     9    10   ar
    36    10    11   ar
    37    21    22    1
    38    18    13   ar
    39    30    25   ar
    40    11     2    1
    41    22    16    1
    42    40    35   ar
    43    11     6   ar
    44    20    23    1
    45    32    33    1
@<TRIPOS>MOLECULE
*****
 40 45 0 0 0
SMALL
GASTEIGER

@<TRIPOS>ATOM
      1 N           6.9621   -2.8595   21.2924 N.3     1  UNL1       -0.2641
      2 C           5.7575   -2.9981   20.4095 C.3     1  UNL1        0.0981
      3 C           4.7710   -4.1014   20.6544 C.3     1  UNL1        0.0224
      4 C           3.5664   -4.2400   19.7714 C.3     1  UNL1        0.0065
      5 C           3.3481   -3.2754   18.6436 C.3     1  UNL1        0.0277
      6 C           4.3345   -2.1722   18.3988 C.ar    1  UNL1       -0.0073
      7 C           4.1162   -1.2077   17.2709 C.ar    1  UNL1       -0.0015
      8 C           5.1026   -0.1044   17.0261 C.ar    1  UNL1        0.0203
      9 C           6.3072    0.0342   17.9090 C.ar    1  UNL1        0.0985
     10 N           6.5255   -0.9304   19.0368 N.ar    1  UNL1       -0.2471
     11 C           5.5392   -2.0336   19.2817 C.ar    1  UNL1        0.0695
     12 C           8.0503   -3.8908   21.2439 C.3     1  UNL1        0.0888
     13 C           7.8265   -7.7986   26.8945 C.ar    1  UNL1       -0.0003
     14 C           7.1285   -6.4994   27.1681 C.ar    1  UNL1       -0.0003
     15 C           7.0337   -5.4580   26.0926 C.ar    1  UNL1       -0.0045
     16 C           7.6368   -5.7158   24.7437 C.ar    1  UNL1       -0.0234
     17 C           8.3348   -7.0150   24.4701 C.ar    1  UNL1       -0.0103
     18 C           8.4297   -8.0564   25.5454 C.ar    1  UNL1       -0.0032
     19 C           8.9380   -7.2728   23.1210 C.3     1  UNL1        0.0953
     20 N           8.8431   -6.2314   22.0457 N.3     1  UNL1       -0.2934
     21 C           8.1451   -4.9322   22.3192 C.3     1  UNL1        0.0748
     22 C           7.5420   -4.6744   23.6682 C.3     1  UNL1        0.0432
     23 H           8.3610   -6.6646   21.2581 H       1  UNL1        0.1236
     24 C           7.0786   -1.6896   22.2239 C.3     1  UNL1        0.0994
     25 C           5.8418   -1.0219   22.7478 C.ar    1  UNL1       -0.0062
     26 C           5.4362    0.3235   22.2230 C.ar    1  UNL1       -0.0032
     27 C           4.1994    0.9912   22.7469 C.ar    1  UNL1       -0.0032
     28 C           3.3682    0.3135   23.7955 C.ar    1  UNL1       -0.0064
     29 C           3.7737   -1.0319   24.3203 C.ar    1  UNL1       -0.0032
     30 C           5.0105   -1.6996   23.7965 C.ar    1  UNL1       -0.0032
     31 C           2.1314    0.9812   24.3194 C.3     1  UNL1        0.0959
     32 N           1.5234    2.1289   23.5689 N.3     1  UNL1       -0.2900
     33 H           2.2622    2.5250   22.9877 H       1  UNL1        0.1239
     34 C           0.3437    1.8975   22.6717 C.3     1  UNL1        0.0960
     35 C           0.5562    1.5051   21.2396 C.ar    1  UNL1       -0.0033
     36 C           1.0027    0.1136   20.9015 C.ar    1  UNL1        0.0178
     37 C           1.2152   -0.2788   19.4695 C.ar    1  UNL1        0.0986
     38 N           0.9812    0.7204   18.3754 N.ar    1  UNL1       -0.2423
     39 C           0.5347    2.1119   18.7134 C.ar    1  UNL1        0.0986
     40 C           0.3222    2.5043   20.1455 C.ar    1  UNL1        0.0178
@<TRIPOS>BOND
     1    13    14   ar
     2    14    15   ar
     3    15    16   ar
     4    16    17   ar
     5    17    18   ar
     6    17    19    1
     7    19    20    1
     8    20    21    1
     9    21    12    1
    10    12     1    1
    11     1    24    1
    12    24    25    1
    13    25    26   ar
    14    26    27   ar
    15    27    28   ar
    16    28    31    1
    17    31    32    1
    18    32    34    1
    19    34    35    1
    20    35    36   ar
    21    36    37   ar
    22    37    38   ar
    23    38    39   ar
    24    39    40   ar
    25    28    29   ar
    26    29    30   ar
    27     2     1    1
    28     2     3    1
    29     3     4    1
    30     4     5    1
    31     5     6    1
    32     6     7   ar
    33     7     8   ar
    34     8     9   ar
    35     9    10   ar
    36    10    11   ar
    37    21    22    1
    38    18    13   ar
    39    30    25   ar
    40    11     2    1
    41    22    16    1
    42    40    35   ar
    43    11     6   ar
    44    20    23    1
    45    32    33    1
@<TRIPOS>MOLECULE
*****
 40 45 0 0 0
SMALL
GASTEIGER

@<TRIPOS>ATOM
      1 N           2.8567   -1.0507   20.7446 N.3     1  UNL1       -0.2641
      2 C           3.8791   -1.4597   19.7261 C.3     1  UNL1        0.0981
      3 C           4.2035   -2.9110   19.5300 C.3     1  UNL1        0.0224
      4 C           5.2260   -3.3200   18.5116 C.3     1  UNL1        0.0065
      5 C           5.9240   -2.2777   17.6892 C.3     1  UNL1        0.0277
      6 C           5.5997   -0.8264   17.8852 C.ar    1  UNL1       -0.0073
      7 C           6.2977    0.2159   17.0629 C.ar    1  UNL1       -0.0015
      8 C           5.9733    1.6672   17.2590 C.ar    1  UNL1        0.0203
      9 C           4.9509    2.0762   18.2774 C.ar    1  UNL1        0.0985
     10 N           4.2528    1.0339   19.0998 N.ar    1  UNL1       -0.2471
     11 C           4.5772   -0.4174   18.9038 C.ar    1  UNL1        0.0695
     12 C           1.4161   -0.9160   20.3489 C.3     1  UNL1        0.0888
     13 C          -1.6150    5.2252   19.7583 C.ar    1  UNL1       -0.0003
     14 C          -1.9039    4.6639   21.1190 C.ar    1  UNL1       -0.0003
     15 C          -1.3555    3.3233   21.5092 C.ar    1  UNL1       -0.0045
     16 C          -0.5181    2.5442   20.5388 C.ar    1  UNL1       -0.0234
     17 C          -0.2292    3.1055   19.1782 C.ar    1  UNL1       -0.0103
     18 C          -0.7775    4.4460   18.7879 C.ar    1  UNL1       -0.0032
     19 C           0.6083    2.3263   18.2077 C.3     1  UNL1        0.0953
     20 N           1.1567    0.9858   18.5980 N.3     1  UNL1       -0.2934
     21 C           0.8677    0.4245   19.9586 C.3     1  UNL1        0.0748
     22 C           0.0303    1.2036   20.9290 C.3     1  UNL1        0.0432
     23 H           2.1714    1.0471   18.5142 H       1  UNL1        0.1236
     24 C           3.2748   -0.7764   22.1588 C.3     1  UNL1        0.0994
     25 C           2.7167    0.4088   22.8894 C.ar    1  UNL1       -0.0062
     26 C           1.7225    0.2085   23.9947 C.ar    1  UNL1       -0.0032
     27 C           1.1644    1.3936   24.7253 C.ar    1  UNL1       -0.0032
     28 C           1.6005    2.7791   24.3508 C.ar    1  UNL1       -0.0064
     29 C           2.5946    2.9794   23.2456 C.ar    1  UNL1       -0.0032
     30 C           3.1528    1.7942   22.5149 C.ar    1  UNL1       -0.0032
     31 C           1.0424    3.9643   25.0814 C.3     1  UNL1        0.0959
     32 N          -0.2494    3.8413   25.8340 N.3     1  UNL1       -0.2900
     33 H          -0.7037    2.9906   25.5020 H       1  UNL1        0.1239
     34 C          -0.2407    3.7711   27.3324 C.3     1  UNL1        0.0960
     35 C          -0.0576    2.4507   28.0202 C.ar    1  UNL1       -0.0033
     36 C           1.1163    2.2348   28.9287 C.ar    1  UNL1        0.0178
     37 C           1.2994    0.9144   29.6165 C.ar    1  UNL1        0.0986
     38 N           0.3087   -0.1900   29.3960 N.ar    1  UNL1       -0.2423
     39 C          -0.8653    0.0260   28.4875 C.ar    1  UNL1        0.0986
     40 C          -1.0484    1.3463   27.7996 C.ar    1  UNL1        0.0178
@<TRIPOS>BOND
     1    13    14   ar
     2    14    15   ar
     3    15    16   ar
     4    16    17   ar
     5    17    18   ar
     6    17    19    1
     7    19    20    1
     8    20    21    1
     9    21    12    1
    10    12     1    1
    11     1    24    1
    12    24    25    1
    13    25    26   ar
    14    26    27   ar
    15    27    28   ar
    16    28    31    1
    17    31    32    1
    18    32    34    1
    19    34    35    1
    20    35    36   ar
    21    36    37   ar
    22    37    38   ar
    23    38    39   ar
    24    39    40   ar
    25    28    29   ar
    26    29    30   ar
    27     2     1    1
    28     2     3    1
    29     3     4    1
    30     4     5    1
    31     5     6    1
    32     6     7   ar
    33     7     8   ar
    34     8     9   ar
    35     9    10   ar
    36    10    11   ar
    37    21    22    1
    38    18    13   ar
    39    30    25   ar
    40    11     2    1
    41    22    16    1
    42    40    35   ar
    43    11     6   ar
    44    20    23    1
    45    32    33    1
@<TRIPOS>MOLECULE
*****
 40 45 0 0 0
SMALL
GASTEIGER

@<TRIPOS>ATOM
      1 N           0.7305    1.3195   21.0001 N.3     1  UNL1       -0.2641
      2 C           0.6525    2.7371   20.5161 C.3     1  UNL1        0.0981
      3 C           1.9081    3.4830   20.1738 C.3     1  UNL1        0.0224
      4 C           1.8301    4.9006   19.6898 C.3     1  UNL1        0.0065
      5 C           0.4964    5.5723   19.5480 C.3     1  UNL1        0.0277
      6 C          -0.7592    4.8265   19.8902 C.ar    1  UNL1       -0.0073
      7 C          -2.0928    5.4983   19.7484 C.ar    1  UNL1       -0.0015
      8 C          -3.3485    4.7524   20.0907 C.ar    1  UNL1        0.0203
      9 C          -3.2704    3.3348   20.5748 C.ar    1  UNL1        0.0985
     10 N          -1.9368    2.6630   20.7166 N.ar    1  UNL1       -0.2471
     11 C          -0.6812    3.4089   20.3743 C.ar    1  UNL1        0.0695
     12 C           0.8748    1.0343   22.4657 C.3     1  UNL1        0.0888
     13 C           7.4693   -0.1267   24.0193 C.ar    1  UNL1       -0.0003
     14 C           7.3978    0.7166   22.7809 C.ar    1  UNL1       -0.0003
     15 C           6.0645    1.1174   22.2225 C.ar    1  UNL1       -0.0045
     16 C           4.8029    0.6750   22.9025 C.ar    1  UNL1       -0.0234
     17 C           4.8744   -0.1683   24.1409 C.ar    1  UNL1       -0.0103
     18 C           6.2076   -0.5692   24.6993 C.ar    1  UNL1       -0.0032
     19 C           3.6127   -0.6108   24.8210 C.3     1  UNL1        0.0953
     20 N           2.2795   -0.2099   24.2626 N.3     1  UNL1       -0.2934
     21 C           2.2079    0.6334   23.0241 C.3     1  UNL1        0.0748
     22 C           3.4696    1.0758   22.3441 C.3     1  UNL1        0.0432
     23 H           1.7951    0.3050   24.9978 H       1  UNL1        0.1236
     24 C           0.6643    0.1871   20.0187 C.3     1  UNL1        0.0994
     25 C           1.9286   -0.4005   19.4652 C.ar    1  UNL1       -0.0062
     26 C           2.6304    0.2713   18.3223 C.ar    1  UNL1       -0.0032
     27 C           3.8946   -0.3164   17.7688 C.ar    1  UNL1       -0.0032
     28 C           4.4571   -1.5758   18.3582 C.ar    1  UNL1       -0.0064
     29 C           3.7553   -2.2476   19.5011 C.ar    1  UNL1       -0.0032
     30 C           2.4910   -1.6600   20.0546 C.ar    1  UNL1       -0.0032
     31 C           5.7213   -2.1635   17.8048 C.3     1  UNL1        0.0959
     32 N           7.0475   -1.5595   18.1601 N.3     1  UNL1       -0.2900
     33 H           7.0804   -0.6407   17.7185 H       1  UNL1        0.1239
     34 C           7.4199   -1.3615   19.5997 C.3     1  UNL1        0.0960
     35 C           7.4351   -2.5316   20.5381 C.ar    1  UNL1       -0.0033
     36 C           6.3930   -2.6462   21.6110 C.ar    1  UNL1        0.0178
     37 C           6.4082   -3.8162   22.5494 C.ar    1  UNL1        0.0986
     38 N           7.4654   -4.8718   22.4150 N.ar    1  UNL1       -0.2423
     39 C           8.5075   -4.7572   21.3422 C.ar    1  UNL1        0.0986
     40 C           8.4924   -3.5872   20.4037 C.ar    1  UNL1        0.0178
@<TRIPOS>BOND
     1    13    14   ar
     2    14    15   ar
     3    15    16   ar
     4    16    17   ar
     5    17    18   ar
     6    17    19    1
     7    19    20    1
     8    20    21    1
     9    21    12    1
    10    12     1    1
    11     1    24    1
    12    24    25    1
    13    25    26   ar
    14    26    27   ar
    15    27    28   ar
    16    28    31    1
    17    31    32    1
    18    32    34    1
    19    34    35    1
    20    35    36   ar
    21    36    37   ar
    22    37    38   ar
    23    38    39   ar
    24    39    40   ar
    25    28    29   ar
    26    29    30   ar
    27     2     1    1
    28     2     3    1
    29     3     4    1
    30     4     5    1
    31     5     6    1
    32     6     7   ar
    33     7     8   ar
    34     8     9   ar
    35     9    10   ar
    36    10    11   ar
    37    21    22    1
    38    18    13   ar
    39    30    25   ar
    40    11     2    1
    41    22    16    1
    42    40    35   ar
    43    11     6   ar
    44    20    23    1
    45    32    33    1
@<TRIPOS>MOLECULE
*****
 40 45 0 0 0
SMALL
GASTEIGER

@<TRIPOS>ATOM
      1 N         -10.6553  -18.7538   23.1712 N.3     1  UNL1       -0.2641
      2 C         -11.2646  -17.8054   22.1816 C.3     1  UNL1        0.0981
      3 C         -12.6958  -17.9733   21.7650 C.3     1  UNL1        0.0224
      4 C         -13.3052  -17.0250   20.7755 C.3     1  UNL1        0.0065
      5 C         -12.4833  -15.9086   20.2025 C.3     1  UNL1        0.0277
      6 C         -11.0522  -15.7406   20.6191 C.ar    1  UNL1       -0.0073
      7 C         -10.2304  -14.6242   20.0461 C.ar    1  UNL1       -0.0015
      8 C          -8.7992  -14.4562   20.4627 C.ar    1  UNL1        0.0203
      9 C          -8.1899  -15.4046   21.4523 C.ar    1  UNL1        0.0985
     10 N          -9.0117  -16.5210   22.0252 N.ar    1  UNL1       -0.2471
     11 C         -10.4428  -16.6890   21.6087 C.ar    1  UNL1        0.0695
     12 C         -10.7278  -18.4548   24.6393 C.3     1  UNL1        0.0888
     13 C          -5.2281  -14.7591   26.4686 C.ar    1  UNL1       -0.0003
     14 C          -5.2495  -14.9015   24.9755 C.ar    1  UNL1       -0.0003
     15 C          -6.3538  -15.6691   24.3110 C.ar    1  UNL1       -0.0045
     16 C          -7.4366  -16.2943   25.1397 C.ar    1  UNL1       -0.0234
     17 C          -7.4152  -16.1520   26.6327 C.ar    1  UNL1       -0.0103
     18 C          -6.3110  -15.3844   27.2972 C.ar    1  UNL1       -0.0032
     19 C          -8.4980  -16.7772   27.4613 C.3     1  UNL1        0.0953
     20 N          -9.6022  -17.5448   26.7969 N.3     1  UNL1       -0.2934
     21 C          -9.6236  -17.6872   25.3038 C.3     1  UNL1        0.0748
     22 C          -8.5408  -17.0620   24.4752 C.3     1  UNL1        0.0432
     23 H         -10.4767  -17.0917   27.0620 H       1  UNL1        0.1236
     24 C          -9.9735  -20.0012   22.6927 C.3     1  UNL1        0.0994
     25 C          -8.6780  -19.9072   21.9424 C.ar    1  UNL1       -0.0062
     26 C          -8.6838  -19.6378   20.4667 C.ar    1  UNL1       -0.0032
     27 C          -7.3883  -19.5438   19.7165 C.ar    1  UNL1       -0.0032
     28 C          -6.0871  -19.7191   20.4418 C.ar    1  UNL1       -0.0064
     29 C          -6.0813  -19.9885   21.9173 C.ar    1  UNL1       -0.0032
     30 C          -7.3768  -20.0826   22.6677 C.ar    1  UNL1       -0.0032
     31 C          -4.7917  -19.6251   19.6915 C.3     1  UNL1        0.0959
     32 N          -3.6768  -20.5809   19.9972 N.3     1  UNL1       -0.2900
     33 H          -3.2509  -20.8317   19.1050 H       1  UNL1        0.1239
     34 C          -2.5602  -20.1642   20.9081 C.3     1  UNL1        0.0960
     35 C          -2.3000  -18.7082   21.1581 C.ar    1  UNL1       -0.0033
     36 C          -2.9966  -18.0045   22.2848 C.ar    1  UNL1        0.0178
     37 C          -2.7364  -16.5485   22.5347 C.ar    1  UNL1        0.0986
     38 N          -1.7796  -15.7963   21.6580 N.ar    1  UNL1       -0.2423
     39 C          -1.0829  -16.5001   20.5313 C.ar    1  UNL1        0.0986
     40 C          -1.3431  -17.9560   20.2813 C.ar    1  UNL1        0.0178
@<TRIPOS>BOND
     1    13    14   ar
     2    14    15   ar
     3    15    16   ar
     4    16    17   ar
     5    17    18   ar
     6    17    19    1
     7    19    20    1
     8    20    21    1
     9    21    12    1
    10    12     1    1
    11     1    24    1
    12    24    25    1
    13    25    26   ar
    14    26    27   ar
    15    27    28   ar
    16    28    31    1
    17    31    32    1
    18    32    34    1
    19    34    35    1
    20    35    36   ar
    21    36    37   ar
    22    37    38   ar
    23    38    39   ar
    24    39    40   ar
    25    28    29   ar
    26    29    30   ar
    27     2     1    1
    28     2     3    1
    29     3     4    1
    30     4     5    1
    31     5     6    1
    32     6     7   ar
    33     7     8   ar
    34     8     9   ar
    35     9    10   ar
    36    10    11   ar
    37    21    22    1
    38    18    13   ar
    39    30    25   ar
    40    11     2    1
    41    22    16    1
    42    40    35   ar
    43    11     6   ar
    44    20    23    1
    45    32    33    1
