@<TRIPOS>MOLECULE
*****
 22 24 0 0 0
SMALL
GASTEIGER

@<TRIPOS>ATOM
      1 C          -8.0995  -18.7525   21.9203 C.2     1  UNL1       -0.0421
      2 C          -8.5145  -17.3348   22.1808 C.2     1  UNL1       -0.0256
      3 C         -10.0042  -17.2519   22.0254 C.ar    1  UNL1       -0.0079
      4 C         -10.9655  -16.1086   22.1625 C.ar    1  UNL1       -0.0006
      5 C         -12.4324  -16.3318   21.9431 C.ar    1  UNL1       -0.0000
      6 C         -12.9381  -17.6983   21.5866 C.ar    1  UNL1       -0.0003
      7 C         -11.9768  -18.8415   21.4495 C.ar    1  UNL1       -0.0040
      8 C         -10.5098  -18.6183   21.6689 C.ar    1  UNL1       -0.0184
      9 C          -9.3327  -19.5458   21.6040 C.3     1  UNL1        0.0480
     10 C          -6.6975  -19.2838   21.9678 C.3     1  UNL1        0.0394
     11 C          -5.8373  -19.2410   20.7398 C.3     1  UNL1        0.0765
     12 C          -3.8214  -18.4573   22.1793 C.3     1  UNL1        0.0897
     13 N          -4.3975  -18.8341   20.8466 N.3     1  UNL1       -0.2700
     14 C          -3.5337  -18.8040   19.6206 C.3     1  UNL1        0.0897
     15 C          -7.6004  -16.1994   22.5345 C.3     1  UNL1        0.0520
     16 C          -7.3307  -15.8741   23.9738 C.ar    1  UNL1       -0.0177
     17 C          -8.4611  -15.8383   24.9592 C.ar    1  UNL1       -0.0016
     18 C          -8.1914  -15.5130   26.3984 C.ar    1  UNL1        0.0293
     19 C          -6.7914  -15.2236   26.8523 C.ar    1  UNL1        0.1401
     20 F          -6.5216  -14.8983   28.2916 F       1  UNL1       -0.2042
     21 C          -5.6610  -15.2594   25.8669 C.ar    1  UNL1        0.0293
     22 C          -5.9306  -15.5846   24.4277 C.ar    1  UNL1       -0.0016
@<TRIPOS>BOND
     1    12    13    1
     2    13    14    1
     3    13    11    1
     4    11    10    1
     5    10     1    1
     6     1     2    2
     7     2    15    1
     8    15    16    1
     9    16    17   ar
    10    17    18   ar
    11    18    19   ar
    12    19    20    1
    13    19    21   ar
    14    21    22   ar
    15     2     3    1
    16     3     4   ar
    17     4     5   ar
    18     5     6   ar
    19     6     7   ar
    20     7     8   ar
    21     8     9    1
    22     9     1    1
    23    22    16   ar
    24     8     3   ar
@<TRIPOS>MOLECULE
*****
 22 24 0 0 0
SMALL
GASTEIGER

@<TRIPOS>ATOM
      1 C          -9.7834  -18.0181   24.5965 C.2     1  UNL1       -0.0421
      2 C          -8.7124  -17.2783   23.8510 C.2     1  UNL1       -0.0256
      3 C          -7.8985  -16.5102   24.8498 C.ar    1  UNL1       -0.0079
      4 C          -6.7136  -15.6037   24.6945 C.ar    1  UNL1       -0.0006
      5 C          -6.0968  -14.9621   25.9019 C.ar    1  UNL1       -0.0000
      6 C          -6.6648  -15.2271   27.2646 C.ar    1  UNL1       -0.0003
      7 C          -7.8497  -16.1336   27.4200 C.ar    1  UNL1       -0.0040
      8 C          -8.4666  -16.7751   26.2126 C.ar    1  UNL1       -0.0184
      9 C          -9.6315  -17.7070   26.0560 C.3     1  UNL1        0.0480
     10 C         -10.8237  -18.9119   23.9890 C.3     1  UNL1        0.0394
     11 C         -12.1066  -18.3284   23.4756 C.3     1  UNL1        0.0765
     12 C         -11.8876  -17.9962   20.9081 C.3     1  UNL1        0.0897
     13 N         -12.0932  -17.4236   22.2792 N.3     1  UNL1       -0.2700
     14 C         -12.2854  -15.9463   22.4540 C.3     1  UNL1        0.0897
     15 C          -8.4935  -17.3025   22.3673 C.3     1  UNL1        0.0520
     16 C          -7.5336  -18.2864   21.7666 C.ar    1  UNL1       -0.0177
     17 C          -6.1514  -18.4265   22.3321 C.ar    1  UNL1       -0.0016
     18 C          -5.1915  -19.4103   21.7315 C.ar    1  UNL1        0.0293
     19 C          -5.6139  -20.2541   20.5655 C.ar    1  UNL1        0.1401
     20 F          -4.6541  -21.2379   19.9649 F       1  UNL1       -0.2042
     21 C          -6.9961  -20.1139   20.0000 C.ar    1  UNL1        0.0293
     22 C          -7.9560  -19.1301   20.6006 C.ar    1  UNL1       -0.0016
@<TRIPOS>BOND
     1    12    13    1
     2    13    14    1
     3    13    11    1
     4    11    10    1
     5    10     1    1
     6     1     2    2
     7     2    15    1
     8    15    16    1
     9    16    17   ar
    10    17    18   ar
    11    18    19   ar
    12    19    20    1
    13    19    21   ar
    14    21    22   ar
    15     2     3    1
    16     3     4   ar
    17     4     5   ar
    18     5     6   ar
    19     6     7   ar
    20     7     8   ar
    21     8     9    1
    22     9     1    1
    23    22    16   ar
    24     8     3   ar
@<TRIPOS>MOLECULE
*****
 22 24 0 0 0
SMALL
GASTEIGER

@<TRIPOS>ATOM
      1 C          -6.7608  -17.5304   22.8619 C.2     1  UNL1       -0.0421
      2 C          -7.0851  -18.5532   21.8137 C.2     1  UNL1       -0.0256
      3 C          -5.7986  -19.1790   21.3629 C.ar    1  UNL1       -0.0079
      4 C          -5.5018  -20.2457   20.3511 C.ar    1  UNL1       -0.0006
      5 C          -4.0855  -20.6765   20.1089 C.ar    1  UNL1       -0.0000
      6 C          -2.9661  -20.0404   20.8785 C.ar    1  UNL1       -0.0003
      7 C          -3.2629  -18.9737   21.8903 C.ar    1  UNL1       -0.0040
      8 C          -4.6791  -18.5429   22.1325 C.ar    1  UNL1       -0.0184
      9 C          -5.2738  -17.5241   23.0590 C.3     1  UNL1        0.0480
     10 C          -7.7499  -16.6658   23.5860 C.3     1  UNL1        0.0394
     11 C          -7.2931  -15.4051   24.2583 C.3     1  UNL1        0.0765
     12 C          -7.9720  -15.5428   26.7623 C.3     1  UNL1        0.0897
     13 N          -6.9109  -15.4246   25.7086 N.3     1  UNL1       -0.2700
     14 C          -5.4677  -15.3260   26.1053 C.3     1  UNL1        0.0897
     15 C          -8.4554  -18.8909   21.3055 C.3     1  UNL1        0.0520
     16 C          -9.6386  -18.8029   22.2234 C.ar    1  UNL1       -0.0177
     17 C          -9.7218  -19.6940   23.4272 C.ar    1  UNL1       -0.0016
     18 C         -10.9049  -19.6061   24.3450 C.ar    1  UNL1        0.0293
     19 C         -12.0047  -18.6270   24.0591 C.ar    1  UNL1        0.1401
     20 F         -13.1879  -18.5389   24.9770 F       1  UNL1       -0.2042
     21 C         -11.9215  -17.7359   22.8554 C.ar    1  UNL1        0.0293
     22 C         -10.7384  -17.8238   21.9375 C.ar    1  UNL1       -0.0016
@<TRIPOS>BOND
     1    12    13    1
     2    13    14    1
     3    13    11    1
     4    11    10    1
     5    10     1    1
     6     1     2    2
     7     2    15    1
     8    15    16    1
     9    16    17   ar
    10    17    18   ar
    11    18    19   ar
    12    19    20    1
    13    19    21   ar
    14    21    22   ar
    15     2     3    1
    16     3     4   ar
    17     4     5   ar
    18     5     6   ar
    19     6     7   ar
    20     7     8   ar
    21     8     9    1
    22     9     1    1
    23    22    16   ar
    24     8     3   ar
@<TRIPOS>MOLECULE
*****
 22 24 0 0 0
SMALL
GASTEIGER

@<TRIPOS>ATOM
      1 C          -5.1087  -18.8190   21.9960 C.2     1  UNL1       -0.0421
      2 C          -6.5493  -18.4216   22.1254 C.2     1  UNL1       -0.0256
      3 C          -6.6319  -17.2914   23.1082 C.ar    1  UNL1       -0.0079
      4 C          -7.7929  -16.4976   23.6296 C.ar    1  UNL1       -0.0006
      5 C          -7.5644  -15.4027   24.6290 C.ar    1  UNL1       -0.0000
      6 C          -6.1748  -15.1015   25.1070 C.ar    1  UNL1       -0.0003
      7 C          -5.0138  -15.8953   24.5856 C.ar    1  UNL1       -0.0040
      8 C          -5.2424  -16.9903   23.5862 C.ar    1  UNL1       -0.0184
      9 C          -4.3010  -17.9344   22.8988 C.3     1  UNL1        0.0480
     10 C          -4.5703  -19.9095   21.1179 C.3     1  UNL1        0.0394
     11 C          -3.9481  -19.5696   19.7961 C.3     1  UNL1        0.0765
     12 C          -2.7913  -17.4587   18.8183 C.3     1  UNL1        0.0897
     13 N          -2.7695  -18.6436   19.7380 N.3     1  UNL1       -0.2700
     14 C          -1.5691  -18.9023   20.5994 C.3     1  UNL1        0.0897
     15 C          -7.7045  -19.0450   21.3995 C.3     1  UNL1        0.0520
     16 C          -9.0978  -18.8893   21.9332 C.ar    1  UNL1       -0.0177
     17 C         -10.0618  -17.9623   21.2540 C.ar    1  UNL1       -0.0016
     18 C         -11.4550  -17.8065   21.7876 C.ar    1  UNL1        0.0293
     19 C         -11.8841  -18.5778   23.0004 C.ar    1  UNL1        0.1401
     20 F         -13.2773  -18.4221   23.5341 F       1  UNL1       -0.2042
     21 C         -10.9200  -19.5048   23.6796 C.ar    1  UNL1        0.0293
     22 C          -9.5269  -19.6605   23.1461 C.ar    1  UNL1       -0.0016
@<TRIPOS>BOND
     1    12    13    1
     2    13    14    1
     3    13    11    1
     4    11    10    1
     5    10     1    1
     6     1     2    2
     7     2    15    1
     8    15    16    1
     9    16    17   ar
    10    17    18   ar
    11    18    19   ar
    12    19    20    1
    13    19    21   ar
    14    21    22   ar
    15     2     3    1
    16     3     4   ar
    17     4     5   ar
    18     5     6   ar
    19     6     7   ar
    20     7     8   ar
    21     8     9    1
    22     9     1    1
    23    22    16   ar
    24     8     3   ar
@<TRIPOS>MOLECULE
*****
 22 24 0 0 0
SMALL
GASTEIGER

@<TRIPOS>ATOM
      1 C          -6.0260  -18.7943   21.8031 C.2     1  UNL1       -0.0421
      2 C          -7.4748  -18.4122   21.8739 C.2     1  UNL1       -0.0256
      3 C          -8.1917  -19.1025   20.7516 C.ar    1  UNL1       -0.0079
      4 C          -9.6303  -19.0991   20.3270 C.ar    1  UNL1       -0.0006
      5 C         -10.0632  -19.9044   19.1379 C.ar    1  UNL1       -0.0000
      6 C          -9.0574  -20.7131   18.3734 C.ar    1  UNL1       -0.0003
      7 C          -7.6188  -20.7165   18.7980 C.ar    1  UNL1       -0.0040
      8 C          -7.1859  -19.9111   19.9871 C.ar    1  UNL1       -0.0184
      9 C          -5.8475  -19.7207   20.6369 C.3     1  UNL1        0.0480
     10 C          -4.9454  -18.3312   22.7348 C.3     1  UNL1        0.0394
     11 C          -3.5046  -18.5506   22.3803 C.3     1  UNL1        0.0765
     12 C          -2.6531  -17.9931   19.9898 C.3     1  UNL1        0.0897
     13 N          -2.8145  -17.6150   21.4324 N.3     1  UNL1       -0.2700
     14 C          -2.2859  -16.3013   21.9271 C.3     1  UNL1        0.0897
     15 C          -8.0974  -17.5000   22.8889 C.3     1  UNL1        0.0520
     16 C          -9.5739  -17.5615   23.1469 C.ar    1  UNL1       -0.0177
     17 C         -10.1401  -18.6520   24.0073 C.ar    1  UNL1       -0.0016
     18 C         -11.6164  -18.7135   24.2653 C.ar    1  UNL1        0.0293
     19 C         -12.5266  -17.6846   23.6629 C.ar    1  UNL1        0.1401
     20 F         -14.0029  -17.7460   23.9208 F       1  UNL1       -0.2042
     21 C         -11.9603  -16.5941   22.8025 C.ar    1  UNL1        0.0293
     22 C         -10.4840  -16.5325   22.5445 C.ar    1  UNL1       -0.0016
@<TRIPOS>BOND
     1    12    13    1
     2    13    14    1
     3    13    11    1
     4    11    10    1
     5    10     1    1
     6     1     2    2
     7     2    15    1
     8    15    16    1
     9    16    17   ar
    10    17    18   ar
    11    18    19   ar
    12    19    20    1
    13    19    21   ar
    14    21    22   ar
    15     2     3    1
    16     3     4   ar
    17     4     5   ar
    18     5     6   ar
    19     6     7   ar
    20     7     8   ar
    21     8     9    1
    22     9     1    1
    23    22    16   ar
    24     8     3   ar
@<TRIPOS>MOLECULE
*****
 22 24 0 0 0
SMALL
GASTEIGER

@<TRIPOS>ATOM
      1 C          -9.6386  -16.7619   24.1576 C.2     1  UNL1       -0.0421
      2 C          -8.3350  -16.5250   23.4543 C.2     1  UNL1       -0.0256
      3 C          -7.3486  -16.0185   24.4644 C.ar    1  UNL1       -0.0079
      4 C          -5.9082  -15.6168   24.3468 C.ar    1  UNL1       -0.0006
      5 C          -5.1618  -15.1389   25.5569 C.ar    1  UNL1       -0.0000
      6 C          -5.8557  -15.0627   26.8846 C.ar    1  UNL1       -0.0003
      7 C          -7.2961  -15.4645   27.0022 C.ar    1  UNL1       -0.0040
      8 C          -8.0425  -15.9423   25.7921 C.ar    1  UNL1       -0.0184
      9 C          -9.4578  -16.4018   25.6024 C.3     1  UNL1        0.0480
     10 C         -10.9012  -17.2698   23.5268 C.3     1  UNL1        0.0394
     11 C         -11.3179  -18.6968   23.7264 C.3     1  UNL1        0.0765
     12 C         -11.0074  -20.2892   21.6971 C.3     1  UNL1        0.0897
     13 N         -10.5649  -19.8004   23.0445 N.3     1  UNL1       -0.2700
     14 C          -9.3695  -20.4153   23.7099 C.3     1  UNL1        0.0897
     15 C          -8.0652  -16.7544   21.9966 C.3     1  UNL1        0.0520
     16 C          -7.4804  -18.0574   21.5381 C.ar    1  UNL1       -0.0177
     17 C          -8.0770  -18.7754   20.3640 C.ar    1  UNL1       -0.0016
     18 C          -7.4923  -20.0784   19.9054 C.ar    1  UNL1        0.0293
     19 C          -6.3109  -20.6633   20.6210 C.ar    1  UNL1        0.1401
     20 F          -5.7261  -21.9663   20.1625 F       1  UNL1       -0.2042
     21 C          -5.7142  -19.9453   21.7951 C.ar    1  UNL1        0.0293
     22 C          -6.2990  -18.6424   22.2536 C.ar    1  UNL1       -0.0016
@<TRIPOS>BOND
     1    12    13    1
     2    13    14    1
     3    13    11    1
     4    11    10    1
     5    10     1    1
     6     1     2    2
     7     2    15    1
     8    15    16    1
     9    16    17   ar
    10    17    18   ar
    11    18    19   ar
    12    19    20    1
    13    19    21   ar
    14    21    22   ar
    15     2     3    1
    16     3     4   ar
    17     4     5   ar
    18     5     6   ar
    19     6     7   ar
    20     7     8   ar
    21     8     9    1
    22     9     1    1
    23    22    16   ar
    24     8     3   ar
@<TRIPOS>MOLECULE
*****
 22 24 0 0 0
SMALL
GASTEIGER

@<TRIPOS>ATOM
      1 C          -6.8184  -17.4178   22.9487 C.2     1  UNL1       -0.0421
      2 C          -8.0572  -17.4147   23.7944 C.2     1  UNL1       -0.0256
      3 C          -7.7844  -16.5838   25.0131 C.ar    1  UNL1       -0.0079
      4 C          -8.6357  -16.2260   26.1951 C.ar    1  UNL1       -0.0006
      5 C          -8.0796  -15.3578   27.2846 C.ar    1  UNL1       -0.0000
      6 C          -6.6721  -14.8474   27.1920 C.ar    1  UNL1       -0.0003
      7 C          -5.8208  -15.2052   26.0100 C.ar    1  UNL1       -0.0040
      8 C          -6.3769  -16.0734   24.9206 C.ar    1  UNL1       -0.0184
      9 C          -5.7799  -16.5889   23.6447 C.3     1  UNL1        0.0480
     10 C          -6.6479  -18.1257   21.6372 C.3     1  UNL1        0.0394
     11 C          -5.7832  -19.3483   21.5517 C.3     1  UNL1        0.0765
     12 C          -3.2237  -19.3748   21.9969 C.3     1  UNL1        0.0897
     13 N          -4.3755  -19.2374   21.0458 N.3     1  UNL1       -0.2700
     14 C          -4.1195  -18.9892   19.5888 C.3     1  UNL1        0.0897
     15 C          -9.3431  -18.1188   23.4772 C.3     1  UNL1        0.0520
     16 C         -10.3211  -17.5004   22.5225 C.ar    1  UNL1       -0.0177
     17 C         -11.3621  -16.5462   23.0285 C.ar    1  UNL1       -0.0016
     18 C         -12.3400  -15.9279   22.0740 C.ar    1  UNL1        0.0293
     19 C         -12.2770  -16.2637   20.6134 C.ar    1  UNL1        0.1401
     20 F         -13.2549  -15.6453   19.6588 F       1  UNL1       -0.2042
     21 C         -11.2360  -17.2178   20.1074 C.ar    1  UNL1        0.0293
     22 C         -10.2581  -17.8362   21.0620 C.ar    1  UNL1       -0.0016
@<TRIPOS>BOND
     1    12    13    1
     2    13    14    1
     3    13    11    1
     4    11    10    1
     5    10     1    1
     6     1     2    2
     7     2    15    1
     8    15    16    1
     9    16    17   ar
    10    17    18   ar
    11    18    19   ar
    12    19    20    1
    13    19    21   ar
    14    21    22   ar
    15     2     3    1
    16     3     4   ar
    17     4     5   ar
    18     5     6   ar
    19     6     7   ar
    20     7     8   ar
    21     8     9    1
    22     9     1    1
    23    22    16   ar
    24     8     3   ar
@<TRIPOS>MOLECULE
*****
 22 24 0 0 0
SMALL
GASTEIGER

@<TRIPOS>ATOM
      1 C          -9.6912  -18.2210   25.1927 C.2     1  UNL1       -0.0421
      2 C          -8.7576  -17.7895   24.1009 C.2     1  UNL1       -0.0256
      3 C          -7.7895  -16.8020   24.6820 C.ar    1  UNL1       -0.0079
      4 C          -6.6461  -16.0426   24.0774 C.ar    1  UNL1       -0.0006
      5 C          -5.8379  -15.1043   24.9239 C.ar    1  UNL1       -0.0000
      6 C          -6.1732  -14.9255   26.3749 C.ar    1  UNL1       -0.0003
      7 C          -7.3167  -15.6850   26.9796 C.ar    1  UNL1       -0.0040
      8 C          -8.1249  -16.6232   26.1331 C.ar    1  UNL1       -0.0184
      9 C          -9.3002  -17.5002   26.4487 C.3     1  UNL1        0.0480
     10 C         -10.8181  -19.2012   25.0531 C.3     1  UNL1        0.0394
     11 C         -11.7647  -19.0956   23.8944 C.3     1  UNL1        0.0765
     12 C         -13.0887  -17.0349   23.0282 C.3     1  UNL1        0.0897
     13 N         -12.9554  -18.1874   23.9790 N.3     1  UNL1       -0.2700
     14 C         -14.0129  -18.4316   25.0144 C.3     1  UNL1        0.0897
     15 C          -8.7869  -18.2624   22.6777 C.3     1  UNL1        0.0520
     16 C          -9.6555  -17.5646   21.6732 C.ar    1  UNL1       -0.0177
     17 C          -9.7937  -16.0715   21.7099 C.ar    1  UNL1       -0.0016
     18 C         -10.6622  -15.3737   20.7055 C.ar    1  UNL1        0.0293
     19 C         -11.3924  -16.1692   19.6644 C.ar    1  UNL1        0.1401
     20 F         -12.2610  -15.4715   18.6599 F       1  UNL1       -0.2042
     21 C         -11.2542  -17.6624   19.6276 C.ar    1  UNL1        0.0293
     22 C         -10.3857  -18.3601   20.6320 C.ar    1  UNL1       -0.0016
@<TRIPOS>BOND
     1    12    13    1
     2    13    14    1
     3    13    11    1
     4    11    10    1
     5    10     1    1
     6     1     2    2
     7     2    15    1
     8    15    16    1
     9    16    17   ar
    10    17    18   ar
    11    18    19   ar
    12    19    20    1
    13    19    21   ar
    14    21    22   ar
    15     2     3    1
    16     3     4   ar
    17     4     5   ar
    18     5     6   ar
    19     6     7   ar
    20     7     8   ar
    21     8     9    1
    22     9     1    1
    23    22    16   ar
    24     8     3   ar
@<TRIPOS>MOLECULE
*****
 22 24 0 0 0
SMALL
GASTEIGER

@<TRIPOS>ATOM
      1 C         -14.2058   -5.1179   19.6440 C.2     1  UNL1       -0.0421
      2 C         -13.7750   -6.4981   19.2449 C.2     1  UNL1       -0.0256
      3 C         -15.0066   -7.3381   19.0780 C.ar    1  UNL1       -0.0079
      4 C         -15.1966   -8.7758   18.6948 C.ar    1  UNL1       -0.0006
      5 C         -16.5785   -9.3523   18.6075 C.ar    1  UNL1       -0.0000
      6 C         -17.7705   -8.4912   18.9036 C.ar    1  UNL1       -0.0003
      7 C         -17.5805   -7.0535   19.2868 C.ar    1  UNL1       -0.0040
      8 C         -16.1985   -6.4770   19.3740 C.ar    1  UNL1       -0.0184
      9 C         -15.7037   -5.1048   19.7238 C.3     1  UNL1        0.0480
     10 C         -13.2982   -3.9550   19.9156 C.3     1  UNL1        0.0394
     11 C         -13.7824   -2.5548   19.6808 C.3     1  UNL1        0.0765
     12 C         -11.4942   -1.8970   18.6409 C.3     1  UNL1        0.0897
     13 N         -12.9399   -1.5911   18.8990 N.3     1  UNL1       -0.2700
     14 C         -13.5429   -0.3215   18.3752 C.3     1  UNL1        0.0897
     15 C         -12.3609   -6.9578   19.0473 C.3     1  UNL1        0.0520
     16 C         -11.3947   -6.1034   18.2813 C.ar    1  UNL1       -0.0177
     17 C         -11.6664   -5.7670   16.8450 C.ar    1  UNL1       -0.0016
     18 C         -10.7002   -4.9127   16.0791 C.ar    1  UNL1        0.0293
     19 C          -9.4623   -4.3949   16.7495 C.ar    1  UNL1        0.1401
     20 F          -8.4961   -3.5406   15.9836 F       1  UNL1       -0.2042
     21 C          -9.1906   -4.7313   18.1858 C.ar    1  UNL1        0.0293
     22 C         -10.1568   -5.5856   18.9517 C.ar    1  UNL1       -0.0016
@<TRIPOS>BOND
     1    12    13    1
     2    13    14    1
     3    13    11    1
     4    11    10    1
     5    10     1    1
     6     1     2    2
     7     2    15    1
     8    15    16    1
     9    16    17   ar
    10    17    18   ar
    11    18    19   ar
    12    19    20    1
    13    19    21   ar
    14    21    22   ar
    15     2     3    1
    16     3     4   ar
    17     4     5   ar
    18     5     6   ar
    19     6     7   ar
    20     7     8   ar
    21     8     9    1
    22     9     1    1
    23    22    16   ar
    24     8     3   ar
