@<TRIPOS>MOLECULE
*****
 24 26 0 0 0
SMALL
GASTEIGER

@<TRIPOS>ATOM
      1 C          -6.4846  -19.9725   20.2458 C.3     1  UNL1        0.1154
      2 C          -6.5199  -20.4471   22.1960 C.3     1  UNL1        0.0335
      3 C          -5.4551  -19.8433   21.3290 C.3     1  UNL1        0.1377
      4 C          -4.6055  -19.2665   20.2357 C.3     1  UNL1        0.0613
      5 C          -3.2735  -18.9070   20.8244 C.3     1  UNL1        0.1290
      6 C          -1.9970  -18.6007   21.5501 C.3     1  UNL1        0.0305
      7 C          -0.8415  -17.9932   20.8113 C.3     1  UNL1        0.0025
      8 C          -0.9626  -17.6921   19.3468 C.3     1  UNL1        0.0002
      9 C          -2.2391  -17.9984   18.6211 C.3     1  UNL1        0.0025
     10 C          -3.3945  -18.6059   19.3599 C.3     1  UNL1        0.0305
     11 O          -3.2999  -19.2617   22.2816 O.3     1  UNL1       -0.2256
     12 O          -4.6482  -19.8404   22.5936 O.3     1  UNL1       -0.2251
     13 C          -7.7285  -19.1352   20.2896 C.2     1  UNL1        0.2252
     14 O          -7.6889  -17.7647   20.8976 O.2     1  UNL1       -0.2750
     15 N          -9.0118  -19.6687   19.7252 N.am    1  UNL1       -0.3004
     16 H          -9.0378  -20.5683   19.3261 H       1  UNL1        0.1497
     17 C         -10.2557  -18.8314   19.7690 C.3     1  UNL1        0.1164
     18 C         -10.9872  -18.6424   21.0648 C.ar    1  UNL1       -0.0017
     19 C         -12.2213  -17.7911   21.1120 C.ar    1  UNL1       -0.0026
     20 C         -12.9529  -17.6020   22.4078 C.ar    1  UNL1        0.0006
     21 C         -12.4503  -18.2642   23.6563 C.ar    1  UNL1        0.0114
     22 C         -11.2163  -19.1155   23.6091 C.ar    1  UNL1        0.0574
     23 CL        -10.7138  -19.7777   24.8576 Cl      1  UNL1       -0.0823
     24 C         -10.4847  -19.3046   22.3133 C.ar    1  UNL1        0.0088
@<TRIPOS>BOND
     1     2     3    1
     2     3     1    1
     3     1    13    1
     4    13    14    2
     5    13    15   am
     6    15    17    1
     7    17    18    1
     8    18    19   ar
     9    19    20   ar
    10    20    21   ar
    11    21    22   ar
    12    22    23    1
    13    22    24   ar
    14     3     4    1
    15     4     5    1
    16     5     6    1
    17     6     7    1
    18     7     8    1
    19     8     9    1
    20     9    10    1
    21     5    11    1
    22    11    12    1
    23    12     3    1
    24    24    18   ar
    25    10     5    1
    26    15    16    1
@<TRIPOS>MOLECULE
*****
 24 26 0 0 0
SMALL
GASTEIGER

@<TRIPOS>ATOM
      1 C          -9.9978  -19.6548   22.3606 C.3     1  UNL1        0.1154
      2 C         -10.8412  -19.3268   20.5688 C.3     1  UNL1        0.0335
      3 C          -9.4082  -19.3847   21.0081 C.3     1  UNL1        0.1377
      4 C          -8.0984  -19.4991   21.7302 C.3     1  UNL1        0.0613
      5 C          -6.9987  -19.2875   20.7321 C.3     1  UNL1        0.1290
      6 C          -6.0118  -19.0574   19.6263 C.3     1  UNL1        0.0305
      7 C          -4.5404  -19.0860   19.9162 C.3     1  UNL1        0.0025
      8 C          -4.0560  -19.3447   21.3121 C.3     1  UNL1        0.0002
      9 C          -5.0429  -19.5748   22.4179 C.3     1  UNL1        0.0025
     10 C          -6.5143  -19.5462   22.1280 C.3     1  UNL1        0.0305
     11 O          -7.6289  -19.0424   19.3932 O.3     1  UNL1       -0.2256
     12 O          -9.1181  -19.1024   19.5637 O.3     1  UNL1       -0.2251
     13 C          -9.7870  -18.6779   23.4793 C.2     1  UNL1        0.2252
     14 O          -9.5666  -19.1748   24.8773 O.2     1  UNL1       -0.2750
     15 N          -9.7966  -17.2042   23.1999 N.am    1  UNL1       -0.3004
     16 H          -9.9413  -16.8780   22.2823 H       1  UNL1        0.1497
     17 C          -9.5858  -16.2274   24.3186 C.3     1  UNL1        0.1164
     18 C          -8.2061  -15.9904   24.8573 C.ar    1  UNL1       -0.0017
     19 C          -8.0167  -15.6254   26.2999 C.ar    1  UNL1       -0.0026
     20 C          -6.6370  -15.3885   26.8386 C.ar    1  UNL1        0.0006
     21 C          -5.4467  -15.5166   25.9349 C.ar    1  UNL1        0.0114
     22 C          -5.6361  -15.8816   24.4924 C.ar    1  UNL1        0.0574
     23 CL         -4.4458  -16.0097   23.5887 Cl      1  UNL1       -0.0823
     24 C          -7.0159  -16.1186   23.9536 C.ar    1  UNL1        0.0088
@<TRIPOS>BOND
     1     2     3    1
     2     3     1    1
     3     1    13    1
     4    13    14    2
     5    13    15   am
     6    15    17    1
     7    17    18    1
     8    18    19   ar
     9    19    20   ar
    10    20    21   ar
    11    21    22   ar
    12    22    23    1
    13    22    24   ar
    14     3     4    1
    15     4     5    1
    16     5     6    1
    17     6     7    1
    18     7     8    1
    19     8     9    1
    20     9    10    1
    21     5    11    1
    22    11    12    1
    23    12     3    1
    24    24    18   ar
    25    10     5    1
    26    15    16    1
@<TRIPOS>MOLECULE
*****
 24 26 0 0 0
SMALL
GASTEIGER

@<TRIPOS>ATOM
      1 C          -7.6855  -19.7290   22.0355 C.3     1  UNL1        0.1154
      2 C          -7.5630  -19.4751   20.0480 C.3     1  UNL1        0.0335
      3 C          -8.6683  -19.2119   21.0273 C.3     1  UNL1        0.1377
      4 C          -9.5681  -19.0568   22.2173 C.3     1  UNL1        0.0613
      5 C         -10.8761  -18.4988   21.7399 C.3     1  UNL1        0.1290
      6 C         -12.1224  -17.9421   21.1180 C.3     1  UNL1        0.0305
      7 C         -13.3128  -17.6288   21.9752 C.3     1  UNL1        0.0025
      8 C         -13.2570  -17.8724   23.4542 C.3     1  UNL1        0.0002
      9 C         -12.0107  -18.4292   24.0761 C.3     1  UNL1        0.0025
     10 C         -10.8203  -18.7424   23.2189 C.3     1  UNL1        0.0305
     11 O         -10.7846  -18.3091   20.2547 O.3     1  UNL1       -0.2256
     12 O          -9.4201  -18.7498   19.8143 O.3     1  UNL1       -0.2251
     13 C          -6.3581  -19.0512   22.2049 C.2     1  UNL1        0.2252
     14 O          -6.2929  -17.5631   22.3812 O.2     1  UNL1       -0.2750
     15 N          -5.0958  -19.8616   22.1981 N.am    1  UNL1       -0.3004
     16 H          -5.1386  -20.8384   22.0823 H       1  UNL1        0.1497
     17 C          -3.7685  -19.1838   22.3675 C.3     1  UNL1        0.1164
     18 C          -3.0041  -18.7199   21.1631 C.ar    1  UNL1       -0.0017
     19 C          -3.6788  -18.6575   19.8248 C.ar    1  UNL1       -0.0026
     20 C          -2.9144  -18.1936   18.6205 C.ar    1  UNL1        0.0006
     21 C          -1.4754  -17.7921   18.7544 C.ar    1  UNL1        0.0114
     22 C          -0.8008  -17.8544   20.0925 C.ar    1  UNL1        0.0574
     23 CL          0.6383  -17.4529   20.2264 Cl      1  UNL1       -0.0823
     24 C          -1.5651  -18.3183   21.2970 C.ar    1  UNL1        0.0088
@<TRIPOS>BOND
     1     2     3    1
     2     3     1    1
     3     1    13    1
     4    13    14    2
     5    13    15   am
     6    15    17    1
     7    17    18    1
     8    18    19   ar
     9    19    20   ar
    10    20    21   ar
    11    21    22   ar
    12    22    23    1
    13    22    24   ar
    14     3     4    1
    15     4     5    1
    16     5     6    1
    17     6     7    1
    18     7     8    1
    19     8     9    1
    20     9    10    1
    21     5    11    1
    22    11    12    1
    23    12     3    1
    24    24    18   ar
    25    10     5    1
    26    15    16    1
@<TRIPOS>MOLECULE
*****
 24 26 0 0 0
SMALL
GASTEIGER

@<TRIPOS>ATOM
      1 C          -8.0138  -15.5363   24.4583 C.3     1  UNL1        0.1154
      2 C          -8.3977  -16.1749   26.3223 C.3     1  UNL1        0.0335
      3 C          -8.7739  -16.7209   24.9768 C.3     1  UNL1        0.1377
      4 C          -8.9911  -17.0193   23.5230 C.3     1  UNL1        0.0613
      5 C          -9.8069  -18.2743   23.4241 C.3     1  UNL1        0.1290
      6 C         -10.6219  -19.5321   23.4823 C.3     1  UNL1        0.0305
      7 C         -11.0718  -20.1937   22.2135 C.3     1  UNL1        0.0025
      8 C         -10.7065  -19.5974   20.8865 C.3     1  UNL1        0.0002
      9 C          -9.8915  -18.3395   20.8283 C.3     1  UNL1        0.0025
     10 C          -9.4417  -17.6780   22.0971 C.3     1  UNL1        0.0305
     11 O         -10.0938  -18.7515   24.8170 O.3     1  UNL1       -0.2256
     12 O          -9.4553  -17.7915   25.7766 O.3     1  UNL1       -0.2251
     13 C          -6.5139  -15.5404   24.4781 C.2     1  UNL1        0.2252
     14 O          -5.7743  -14.6655   25.4463 O.2     1  UNL1       -0.2750
     15 N          -5.7537  -16.4194   23.5297 N.am    1  UNL1       -0.3004
     16 H          -6.2391  -16.9936   22.8942 H       1  UNL1        0.1497
     17 C          -4.2538  -16.4234   23.5495 C.3     1  UNL1        0.1164
     18 C          -3.4947  -17.3706   22.6683 C.ar    1  UNL1       -0.0017
     19 C          -3.8902  -18.8161   22.6047 C.ar    1  UNL1       -0.0026
     20 C          -3.1311  -19.7634   21.7235 C.ar    1  UNL1        0.0006
     21 C          -1.9764  -19.2651   20.9060 C.ar    1  UNL1        0.0114
     22 C          -1.5808  -17.8197   20.9696 C.ar    1  UNL1        0.0574
     23 CL         -0.4261  -17.3214   20.1521 Cl      1  UNL1       -0.0823
     24 C          -2.3400  -16.8723   21.8508 C.ar    1  UNL1        0.0088
@<TRIPOS>BOND
     1     2     3    1
     2     3     1    1
     3     1    13    1
     4    13    14    2
     5    13    15   am
     6    15    17    1
     7    17    18    1
     8    18    19   ar
     9    19    20   ar
    10    20    21   ar
    11    21    22   ar
    12    22    23    1
    13    22    24   ar
    14     3     4    1
    15     4     5    1
    16     5     6    1
    17     6     7    1
    18     7     8    1
    19     8     9    1
    20     9    10    1
    21     5    11    1
    22    11    12    1
    23    12     3    1
    24    24    18   ar
    25    10     5    1
    26    15    16    1
@<TRIPOS>MOLECULE
*****
 24 26 0 0 0
SMALL
GASTEIGER

@<TRIPOS>ATOM
      1 C          -8.9347  -17.5239   21.7154 C.3     1  UNL1        0.1154
      2 C         -10.6806  -17.7964   22.6679 C.3     1  UNL1        0.0335
      3 C          -9.3646  -17.2394   23.1239 C.3     1  UNL1        0.1377
      4 C          -7.9588  -16.7419   23.2855 C.3     1  UNL1        0.0613
      5 C          -7.7948  -16.2663   24.6987 C.3     1  UNL1        0.1290
      6 C          -7.7808  -15.8318   26.1343 C.3     1  UNL1        0.0305
      7 C          -6.5317  -15.2541   26.7308 C.3     1  UNL1        0.0025
      8 C          -5.2966  -15.1108   25.8917 C.3     1  UNL1        0.0002
      9 C          -5.3106  -15.5453   24.4561 C.3     1  UNL1        0.0025
     10 C          -6.5598  -16.1230   23.8596 C.3     1  UNL1        0.0305
     11 O          -9.0994  -16.4698   25.4105 O.3     1  UNL1       -0.2256
     12 O         -10.0696  -17.0713   24.4373 O.3     1  UNL1       -0.2251
     13 C          -7.9015  -18.5772   21.4448 C.2     1  UNL1        0.2252
     14 O          -7.8590  -19.8193   22.2846 O.2     1  UNL1       -0.2750
     15 N          -6.9108  -18.3883   20.3345 N.am    1  UNL1       -0.3004
     16 H          -6.9387  -17.5730   19.7833 H       1  UNL1        0.1497
     17 C          -5.8776  -19.4415   20.0640 C.3     1  UNL1        0.1164
     18 C          -4.4303  -19.1610   20.3408 C.ar    1  UNL1       -0.0017
     19 C          -3.8599  -19.4358   21.7007 C.ar    1  UNL1       -0.0026
     20 C          -2.4126  -19.1553   21.9776 C.ar    1  UNL1        0.0006
     21 C          -1.5358  -18.6000   20.8946 C.ar    1  UNL1        0.0114
     22 C          -2.1061  -18.3252   19.5349 C.ar    1  UNL1        0.0574
     23 CL         -1.2293  -17.7699   18.4519 Cl      1  UNL1       -0.0823
     24 C          -3.5535  -18.6057   19.2579 C.ar    1  UNL1        0.0088
@<TRIPOS>BOND
     1     2     3    1
     2     3     1    1
     3     1    13    1
     4    13    14    2
     5    13    15   am
     6    15    17    1
     7    17    18    1
     8    18    19   ar
     9    19    20   ar
    10    20    21   ar
    11    21    22   ar
    12    22    23    1
    13    22    24   ar
    14     3     4    1
    15     4     5    1
    16     5     6    1
    17     6     7    1
    18     7     8    1
    19     8     9    1
    20     9    10    1
    21     5    11    1
    22    11    12    1
    23    12     3    1
    24    24    18   ar
    25    10     5    1
    26    15    16    1
@<TRIPOS>MOLECULE
*****
 24 26 0 0 0
SMALL
GASTEIGER

@<TRIPOS>ATOM
      1 C          -6.0381  -19.7838   22.0076 C.3     1  UNL1        0.1154
      2 C          -6.0187  -21.1897   20.5749 C.3     1  UNL1        0.0335
      3 C          -5.0773  -20.0655   20.8908 C.3     1  UNL1        0.1377
      4 C          -4.3367  -18.8823   21.4401 C.3     1  UNL1        0.0613
      5 C          -3.1149  -18.6677   20.5967 C.3     1  UNL1        0.1290
      6 C          -1.9398  -18.5771   19.6689 C.3     1  UNL1        0.0305
      7 C          -0.9129  -17.5010   19.8622 C.3     1  UNL1        0.0025
      8 C          -1.0612  -16.5155   20.9832 C.3     1  UNL1        0.0002
      9 C          -2.2363  -16.6061   21.9110 C.3     1  UNL1        0.0025
     10 C          -3.2632  -17.6822   21.7178 C.3     1  UNL1        0.0305
     11 O          -3.1004  -19.7183   19.5261 O.3     1  UNL1       -0.2256
     12 O          -4.3132  -20.5822   19.7078 O.3     1  UNL1       -0.2251
     13 C          -6.9670  -18.6093   21.9195 C.2     1  UNL1        0.2252
     14 O          -7.3231  -18.0335   20.5811 O.2     1  UNL1       -0.2750
     15 N          -7.5398  -18.0106   23.1700 N.am    1  UNL1       -0.3004
     16 H          -7.3061  -18.3886   24.0485 H       1  UNL1        0.1497
     17 C          -8.4687  -16.8362   23.0819 C.3     1  UNL1        0.1164
     18 C          -9.8579  -17.0173   22.5460 C.ar    1  UNL1       -0.0017
     19 C         -10.8297  -17.9048   23.2657 C.ar    1  UNL1       -0.0026
     20 C         -12.2189  -18.0859   22.7298 C.ar    1  UNL1        0.0006
     21 C         -12.6364  -17.3795   21.4741 C.ar    1  UNL1        0.0114
     22 C         -11.6647  -16.4921   20.7544 C.ar    1  UNL1        0.0574
     23 CL        -12.0822  -15.7857   19.4987 Cl      1  UNL1       -0.0823
     24 C         -10.2754  -16.3109   21.2903 C.ar    1  UNL1        0.0088
@<TRIPOS>BOND
     1     2     3    1
     2     3     1    1
     3     1    13    1
     4    13    14    2
     5    13    15   am
     6    15    17    1
     7    17    18    1
     8    18    19   ar
     9    19    20   ar
    10    20    21   ar
    11    21    22   ar
    12    22    23    1
    13    22    24   ar
    14     3     4    1
    15     4     5    1
    16     5     6    1
    17     6     7    1
    18     7     8    1
    19     8     9    1
    20     9    10    1
    21     5    11    1
    22    11    12    1
    23    12     3    1
    24    24    18   ar
    25    10     5    1
    26    15    16    1
@<TRIPOS>MOLECULE
*****
 24 26 0 0 0
SMALL
GASTEIGER

@<TRIPOS>ATOM
      1 C          -6.4717  -17.1665   23.8046 C.3     1  UNL1        0.1154
      2 C          -5.9570  -15.2464   24.0839 C.3     1  UNL1        0.0335
      3 C          -5.2565  -16.3844   23.4026 C.3     1  UNL1        0.1377
      4 C          -4.8100  -17.6859   22.8054 C.3     1  UNL1        0.0613
      5 C          -3.4652  -17.4704   22.1767 C.3     1  UNL1        0.1290
      6 C          -2.1313  -17.1056   21.5958 C.3     1  UNL1        0.0305
      7 C          -1.3146  -18.1427   20.8835 C.3     1  UNL1        0.0025
      8 C          -1.8318  -19.5446   20.7521 C.3     1  UNL1        0.0002
      9 C          -3.1657  -19.9093   21.3331 C.3     1  UNL1        0.0025
     10 C          -3.9824  -18.8723   22.0453 C.3     1  UNL1        0.0305
     11 O          -3.0806  -16.0356   22.3854 O.3     1  UNL1       -0.2256
     12 O          -4.1877  -15.3644   23.1431 O.3     1  UNL1       -0.2251
     13 C          -7.4712  -17.5849   22.7672 C.2     1  UNL1        0.2252
     14 O          -7.7991  -16.6660   21.6280 O.2     1  UNL1       -0.2750
     15 N          -8.1429  -18.9223   22.8693 N.am    1  UNL1       -0.3004
     16 H          -7.9276  -19.5255   23.6170 H       1  UNL1        0.1497
     17 C          -9.1424  -19.3407   21.8320 C.3     1  UNL1        0.1164
     18 C         -10.4517  -18.6178   21.7176 C.ar    1  UNL1       -0.0017
     19 C         -10.7790  -17.8518   20.4702 C.ar    1  UNL1       -0.0026
     20 C         -12.0884  -17.1290   20.3558 C.ar    1  UNL1        0.0006
     21 C         -13.0704  -17.1721   21.4888 C.ar    1  UNL1        0.0114
     22 C         -12.7431  -17.9381   22.7361 C.ar    1  UNL1        0.0574
     23 CL        -13.7251  -17.9813   23.8692 Cl      1  UNL1       -0.0823
     24 C         -11.4337  -18.6610   22.8506 C.ar    1  UNL1        0.0088
@<TRIPOS>BOND
     1     2     3    1
     2     3     1    1
     3     1    13    1
     4    13    14    2
     5    13    15   am
     6    15    17    1
     7    17    18    1
     8    18    19   ar
     9    19    20   ar
    10    20    21   ar
    11    21    22   ar
    12    22    23    1
    13    22    24   ar
    14     3     4    1
    15     4     5    1
    16     5     6    1
    17     6     7    1
    18     7     8    1
    19     8     9    1
    20     9    10    1
    21     5    11    1
    22    11    12    1
    23    12     3    1
    24    24    18   ar
    25    10     5    1
    26    15    16    1
@<TRIPOS>MOLECULE
*****
 24 26 0 0 0
SMALL
GASTEIGER

@<TRIPOS>ATOM
      1 C          -8.1220  -19.9867   20.7853 C.3     1  UNL1        0.1154
      2 C          -7.6958  -20.2787   22.7251 C.3     1  UNL1        0.0335
      3 C          -8.7135  -19.4156   22.0398 C.3     1  UNL1        0.1377
      4 C          -9.6074  -18.6719   21.0924 C.3     1  UNL1        0.0613
      5 C         -10.5387  -17.8216   21.9046 C.3     1  UNL1        0.1290
      6 C         -11.3982  -17.0288   22.8441 C.3     1  UNL1        0.0305
      7 C         -12.4612  -16.1199   22.3021 C.3     1  UNL1        0.0025
      8 C         -12.6647  -16.0038   20.8205 C.3     1  UNL1        0.0002
      9 C         -11.8052  -16.7965   19.8810 C.3     1  UNL1        0.0025
     10 C         -10.7422  -17.7054   20.4230 C.3     1  UNL1        0.0305
     11 O         -10.2203  -18.0398   23.3541 O.3     1  UNL1       -0.2256
     12 O          -9.0922  -19.0250   23.4377 O.3     1  UNL1       -0.2251
     13 C          -6.6921  -19.7016   20.4329 C.2     1  UNL1        0.2252
     14 O          -6.2687  -18.3044   20.0889 O.2     1  UNL1       -0.2750
     15 N          -5.6856  -20.8138   20.4247 N.am    1  UNL1       -0.3004
     16 H          -5.9635  -21.7309   20.6505 H       1  UNL1        0.1497
     17 C          -4.2557  -20.5287   20.0724 C.3     1  UNL1        0.1164
     18 C          -3.4949  -19.4743   20.8203 C.ar    1  UNL1       -0.0017
     19 C          -3.8146  -19.1976   22.2595 C.ar    1  UNL1       -0.0026
     20 C          -3.0538  -18.1432   23.0075 C.ar    1  UNL1        0.0006
     21 C          -1.9733  -17.3656   22.3163 C.ar    1  UNL1        0.0114
     22 C          -1.6536  -17.6423   20.8772 C.ar    1  UNL1        0.0574
     23 CL         -0.5731  -16.8647   20.1860 Cl      1  UNL1       -0.0823
     24 C          -2.4144  -18.6967   20.1291 C.ar    1  UNL1        0.0088
@<TRIPOS>BOND
     1     2     3    1
     2     3     1    1
     3     1    13    1
     4    13    14    2
     5    13    15   am
     6    15    17    1
     7    17    18    1
     8    18    19   ar
     9    19    20   ar
    10    20    21   ar
    11    21    22   ar
    12    22    23    1
    13    22    24   ar
    14     3     4    1
    15     4     5    1
    16     5     6    1
    17     6     7    1
    18     7     8    1
    19     8     9    1
    20     9    10    1
    21     5    11    1
    22    11    12    1
    23    12     3    1
    24    24    18   ar
    25    10     5    1
    26    15    16    1
@<TRIPOS>MOLECULE
*****
 24 26 0 0 0
SMALL
GASTEIGER

@<TRIPOS>ATOM
      1 C          -8.0414  -20.2164   20.2949 C.3     1  UNL1        0.1154
      2 C          -8.6674  -19.3770   18.5822 C.3     1  UNL1        0.0335
      3 C          -9.2287  -19.3580   19.9731 C.3     1  UNL1        0.1377
      4 C          -9.5417  -19.5185   21.4313 C.3     1  UNL1        0.0613
      5 C         -10.8052  -18.7632   21.7200 C.3     1  UNL1        0.1290
      6 C         -12.0702  -17.9688   21.8567 C.3     1  UNL1        0.0305
      7 C         -12.7469  -17.8599   23.1909 C.3     1  UNL1        0.0025
      8 C         -12.1587  -18.5454   24.3884 C.3     1  UNL1        0.0002
      9 C         -10.8937  -19.3398   24.2518 C.3     1  UNL1        0.0025
     10 C         -10.2169  -19.4487   22.9176 C.3     1  UNL1        0.0305
     11 O         -11.2730  -18.1360   20.4403 O.3     1  UNL1       -0.2256
     12 O         -10.2987  -18.5036   19.3606 O.3     1  UNL1       -0.2251
     13 C          -7.0573  -19.7749   21.3374 C.2     1  UNL1        0.2252
     14 O          -6.7208  -20.6824   22.4832 O.2     1  UNL1       -0.2750
     15 N          -6.4097  -18.4258   21.2339 N.am    1  UNL1       -0.3004
     16 H          -6.6306  -17.8301   20.4818 H       1  UNL1        0.1497
     17 C          -5.4256  -17.9844   22.2763 C.3     1  UNL1        0.1164
     18 C          -5.8532  -17.0372   23.3580 C.ar    1  UNL1       -0.0017
     19 C          -4.8230  -16.3624   24.2143 C.ar    1  UNL1       -0.0026
     20 C          -5.2505  -15.4152   25.2961 C.ar    1  UNL1        0.0006
     21 C          -6.7083  -15.1430   25.5214 C.ar    1  UNL1        0.0114
     22 C          -7.7384  -15.8178   24.6652 C.ar    1  UNL1        0.0574
     23 CL         -9.1962  -15.5455   24.8906 Cl      1  UNL1       -0.0823
     24 C          -7.3109  -16.7650   23.5834 C.ar    1  UNL1        0.0088
@<TRIPOS>BOND
     1     2     3    1
     2     3     1    1
     3     1    13    1
     4    13    14    2
     5    13    15   am
     6    15    17    1
     7    17    18    1
     8    18    19   ar
     9    19    20   ar
    10    20    21   ar
    11    21    22   ar
    12    22    23    1
    13    22    24   ar
    14     3     4    1
    15     4     5    1
    16     5     6    1
    17     6     7    1
    18     7     8    1
    19     8     9    1
    20     9    10    1
    21     5    11    1
    22    11    12    1
    23    12     3    1
    24    24    18   ar
    25    10     5    1
    26    15    16    1
