@<TRIPOS>MOLECULE
*****
 46 50 0 0 0
SMALL
GASTEIGER

@<TRIPOS>ATOM
      1 C           5.2186   -1.8793   25.7235 C.3     1  UNL1        0.1244
      2 N           6.0138   -3.0370   25.1968 N.3     1  UNL1       -0.2823
      3 C           5.9487   -3.6767   23.8416 C.3     1  UNL1        0.1560
      4 C           5.0725   -3.3169   22.6785 C.2     1  UNL1        0.2457
      5 O           5.2469   -4.1565   21.4479 O.2     1  UNL1       -0.2730
      6 N           4.0449   -2.2283   22.5834 N.am    1  UNL1       -0.2533
      7 C           3.6396   -1.2308   23.6278 C.ar    1  UNL1        0.0518
      8 C           2.5689   -0.3108   23.1208 C.ar    1  UNL1        0.0146
      9 C           2.0205    0.7645   24.0113 C.ar    1  UNL1        0.0013
     10 C           2.5429    0.9198   25.4088 C.ar    1  UNL1       -0.0002
     11 C           3.6136   -0.0002   25.9158 C.ar    1  UNL1       -0.0014
     12 C           4.1620   -1.0754   25.0253 C.ar    1  UNL1        0.0118
     13 H           5.8197   -3.7977   25.8480 H       1  UNL1        0.1243
     14 C           3.2680   -0.1890   28.7382 C.ar    1  UNL1       -0.0224
     15 C           4.0031    1.1133   28.8568 C.ar    1  UNL1       -0.0043
     16 C           5.1433    1.4178   27.9310 C.ar    1  UNL1       -0.0006
     17 C           5.5484    0.4204   26.8867 C.ar    1  UNL1       -0.0026
     18 C           4.8134   -0.8818   26.7680 C.ar    1  UNL1       -0.0022
     19 C           3.6732   -1.1864   27.6937 C.ar    1  UNL1       -0.0069
     20 C           2.1278   -0.4936   29.6639 C.3     1  UNL1        0.0263
     21 C           0.8374    0.2608   29.5382 C.3     1  UNL1        0.0047
     22 C          -1.7240    0.0193   29.1762 C.3     1  UNL1        0.0000
     23 C          -0.3188   -0.3483   28.8018 C.3     1  UNL1        0.0003
     24 C           6.0948   -2.2392   26.8866 C.3     1  UNL1        0.2256
     25 C           7.4523   -1.6160   27.0240 C.2     1  UNL1        0.0920
     26 O           8.0173   -1.3417   28.3862 O.co2   1  UNL1       -0.5455
     27 O           8.2448   -1.2671   25.7992 O.co2   1  UNL1       -0.5455
     28 O           5.6136   -3.2222   27.9123 O.3     1  UNL1       -0.4426
     29 C           6.4099   -4.4617   28.1947 C.ar    1  UNL1        0.3196
     30 N           6.9741   -4.6946   29.5650 N.ar    1  UNL1       -0.1986
     31 C           7.7703   -5.9339   29.8475 C.ar    1  UNL1        0.0652
     32 C           8.3345   -6.1668   31.2178 C.3     1  UNL1        0.0523
     33 C           8.0025   -6.9404   28.7598 C.ar    1  UNL1        0.0297
     34 C           7.4383   -6.7075   27.3896 C.ar    1  UNL1        0.0652
     35 C           7.6705   -7.7140   26.3019 C.3     1  UNL1        0.0523
     36 N           6.6421   -5.4682   27.1071 N.ar    1  UNL1       -0.1986
     37 C           3.3276   -2.1234   21.2702 C.3     1  UNL1        0.1292
     38 C           4.0259   -1.5376   20.0788 C.ar    1  UNL1        0.0531
     39 C           4.7062   -0.2053   20.1884 C.ar    1  UNL1        0.1422
     40 F           4.7993    0.3221   20.7789 F       1  UNL1       -0.2043
     41 C           5.4045    0.3805   18.9971 C.ar    1  UNL1        0.0591
     42 C           5.4225   -0.3661   17.6962 C.ar    1  UNL1        0.1446
     43 F           6.1207    0.2196   16.5048 F       1  UNL1       -0.2040
     44 C           4.7421   -1.6984   17.5866 C.ar    1  UNL1        0.0591
     45 C           4.0438   -2.2843   18.7780 C.ar    1  UNL1        0.1422
     46 F           3.3635   -3.6165   18.6684 F       1  UNL1       -0.2043
@<TRIPOS>UNITY_ATOM_ATTR
26 1
charge -1
@<TRIPOS>BOND
     1    22    23    1
     2    23    21    1
     3    21    20    1
     4    20    14    1
     5    14    15   ar
     6    15    16   ar
     7    16    17   ar
     8    17    18   ar
     9     1    18    1
    10     1    24    1
    11    24    28    1
    12    28    29    1
    13    29    30   ar
    14    30    31   ar
    15    31    32    1
    16    31    33   ar
    17    33    34   ar
    18    34    35    1
    19    34    36   ar
    20    24    25    1
    21    25    26   ar
    22    25    27   ar
    23     1     2    1
    24     2     3    1
    25     3     4    1
    26     4     5    2
    27     4     6   am
    28     6    37    1
    29    37    38    1
    30    38    39   ar
    31    39    40    1
    32    39    41   ar
    33    41    42   ar
    34    42    43    1
    35    42    44   ar
    36    44    45   ar
    37    45    46    1
    38     6     7    1
    39     7     8   ar
    40     8     9   ar
    41     9    10   ar
    42    10    11   ar
    43    11    12   ar
    44    18    19   ar
    45    19    14   ar
    46    12     1    1
    47    36    29   ar
    48    45    38   ar
    49    12     7   ar
    50     2    13    1
@<TRIPOS>MOLECULE
*****
 46 50 0 0 0
SMALL
GASTEIGER

@<TRIPOS>ATOM
      1 C           5.1817   -1.8561   25.6083 C.3     1  UNL1        0.1244
      2 N           5.9677   -3.0079   25.0554 N.3     1  UNL1       -0.2823
      3 C           5.8789   -3.6332   23.6948 C.3     1  UNL1        0.1560
      4 C           4.9823   -3.2612   22.5512 C.2     1  UNL1        0.2457
      5 O           5.1352   -4.0876   21.3088 O.2     1  UNL1       -0.2730
      6 N           3.9531   -2.1720   22.4858 N.am    1  UNL1       -0.2533
      7 C           3.5661   -1.1857   23.5477 C.ar    1  UNL1        0.0518
      8 C           2.4866   -0.2608   23.0694 C.ar    1  UNL1        0.0146
      9 C           1.9538    0.8048   23.9808 C.ar    1  UNL1        0.0013
     10 C           2.5006    0.9454   25.3705 C.ar    1  UNL1       -0.0002
     11 C           3.5802    0.0204   25.8488 C.ar    1  UNL1       -0.0014
     12 C           4.1130   -1.0452   24.9374 C.ar    1  UNL1        0.0118
     13 H           5.7852   -3.7755   25.7018 H       1  UNL1        0.1243
     14 C           3.2713   -0.1899   28.6619 C.ar    1  UNL1       -0.0224
     15 C           4.0212    1.1026   28.7942 C.ar    1  UNL1       -0.0043
     16 C           5.1578    1.4087   27.8646 C.ar    1  UNL1       -0.0006
     17 C           5.5447    0.4225   26.8027 C.ar    1  UNL1       -0.0026
     18 C           4.7949   -0.8699   26.6703 C.ar    1  UNL1       -0.0022
     19 C           3.6582   -1.1761   27.5999 C.ar    1  UNL1       -0.0069
     20 C           2.1347   -0.4960   29.5915 C.3     1  UNL1        0.0263
     21 C           0.8696    0.3067   29.5193 C.3     1  UNL1        0.0047
     22 C          -1.6557   -0.1660   29.1331 C.3     1  UNL1        0.0000
     23 C          -0.2470   -0.1325   28.6191 C.3     1  UNL1        0.0003
     24 C           6.0783   -2.2281   26.7519 C.3     1  UNL1        0.2256
     25 C           7.4567   -1.6439   26.8450 C.2     1  UNL1        0.0920
     26 O           8.0585   -1.3518   28.1877 O.co2   1  UNL1       -0.5455
     27 O           8.2334   -1.3517   25.5955 O.co2   1  UNL1       -0.5455
     28 O           5.5965   -3.1842   27.8024 O.3     1  UNL1       -0.4426
     29 C           6.3908   -4.4178   28.1148 C.ar    1  UNL1        0.3196
     30 N           6.6793   -5.4176   27.0344 N.ar    1  UNL1       -0.1986
     31 C           7.4736   -6.6511   27.3467 C.ar    1  UNL1        0.0652
     32 C           7.7621   -7.6509   26.2663 C.3     1  UNL1        0.0523
     33 C           7.9793   -6.8849   28.7394 C.ar    1  UNL1        0.0297
     34 C           7.6908   -5.8850   29.8198 C.ar    1  UNL1        0.0652
     35 C           8.1965   -6.1188   31.2125 C.3     1  UNL1        0.0523
     36 N           6.8965   -4.6516   29.5075 N.ar    1  UNL1       -0.1986
     37 C           3.2128   -2.0533   21.1866 C.3     1  UNL1        0.1292
     38 C           3.8840   -1.4384   19.9943 C.ar    1  UNL1        0.0531
     39 C           4.4558   -0.0547   20.0864 C.ar    1  UNL1        0.1422
     40 F           4.4969    0.4901   20.6668 F       1  UNL1       -0.2043
     41 C           5.1270    0.5603   18.8942 C.ar    1  UNL1        0.0591
     42 C           5.2264   -0.2085   17.6099 C.ar    1  UNL1        0.1446
     43 F           5.8975    0.4064   16.4177 F       1  UNL1       -0.2040
     44 C           4.6545   -1.5922   17.5179 C.ar    1  UNL1        0.0591
     45 C           3.9833   -2.2072   18.7102 C.ar    1  UNL1        0.1422
     46 F           3.4116   -3.5908   18.6182 F       1  UNL1       -0.2043
@<TRIPOS>UNITY_ATOM_ATTR
26 1
charge -1
@<TRIPOS>BOND
     1    22    23    1
     2    23    21    1
     3    21    20    1
     4    20    14    1
     5    14    15   ar
     6    15    16   ar
     7    16    17   ar
     8    17    18   ar
     9     1    18    1
    10     1    24    1
    11    24    28    1
    12    28    29    1
    13    29    30   ar
    14    30    31   ar
    15    31    32    1
    16    31    33   ar
    17    33    34   ar
    18    34    35    1
    19    34    36   ar
    20    24    25    1
    21    25    26   ar
    22    25    27   ar
    23     1     2    1
    24     2     3    1
    25     3     4    1
    26     4     5    2
    27     4     6   am
    28     6    37    1
    29    37    38    1
    30    38    39   ar
    31    39    40    1
    32    39    41   ar
    33    41    42   ar
    34    42    43    1
    35    42    44   ar
    36    44    45   ar
    37    45    46    1
    38     6     7    1
    39     7     8   ar
    40     8     9   ar
    41     9    10   ar
    42    10    11   ar
    43    11    12   ar
    44    18    19   ar
    45    19    14   ar
    46    12     1    1
    47    36    29   ar
    48    45    38   ar
    49    12     7   ar
    50     2    13    1
@<TRIPOS>MOLECULE
*****
 46 50 0 0 0
SMALL
GASTEIGER

@<TRIPOS>ATOM
      1 C           5.6928   -1.8740   22.7816 C.3     1  UNL1        0.1244
      2 N           6.7192   -1.7352   23.8666 N.3     1  UNL1       -0.2823
      3 C           6.6911   -0.8425   25.0718 C.3     1  UNL1        0.1560
      4 C           5.6298    0.1317   25.4896 C.2     1  UNL1        0.2457
      5 O           5.8995    0.8831   26.7595 O.2     1  UNL1       -0.2730
      6 N           4.3344    0.4539   24.8053 N.am    1  UNL1       -0.2533
      7 C           3.7804   -0.1186   23.5344 C.ar    1  UNL1        0.0518
      8 C           2.4469    0.4808   23.1989 C.ar    1  UNL1        0.0146
      9 C           1.7180    0.0443   21.9628 C.ar    1  UNL1        0.0013
     10 C           2.3226   -0.9918   21.0621 C.ar    1  UNL1       -0.0002
     11 C           3.6560   -1.5912   21.3976 C.ar    1  UNL1       -0.0014
     12 C           4.3849   -1.1546   22.6337 C.ar    1  UNL1        0.0118
     13 H           7.5755   -1.4762   23.3767 H       1  UNL1        0.1243
     14 C           4.8178   -2.3148   18.9358 C.ar    1  UNL1       -0.0224
     15 C           4.0308   -3.5915   18.9687 C.ar    1  UNL1       -0.0043
     16 C           3.7979   -4.2955   20.2725 C.ar    1  UNL1       -0.0006
     17 C           4.3518   -3.7230   21.5434 C.ar    1  UNL1       -0.0026
     18 C           5.1388   -2.4465   21.5106 C.ar    1  UNL1       -0.0022
     19 C           5.3718   -1.7424   20.2068 C.ar    1  UNL1       -0.0069
     20 C           5.0508   -1.6108   17.6320 C.3     1  UNL1        0.0263
     21 C           3.9513   -0.8028   17.0090 C.3     1  UNL1        0.0047
     22 C           3.9306    1.2889   18.5499 C.3     1  UNL1        0.0000
     23 C           3.1945    0.1957   17.8337 C.3     1  UNL1        0.0003
     24 C           6.7541   -2.8482   22.3638 C.3     1  UNL1        0.2256
     25 C           8.0449   -2.3488   21.7855 C.2     1  UNL1        0.0920
     26 O           9.0618   -3.3229   21.2686 O.co2   1  UNL1       -0.5455
     27 O           8.3188   -0.8753   21.7240 O.co2   1  UNL1       -0.5455
     28 O           6.5247   -4.3218   22.5244 O.3     1  UNL1       -0.4426
     29 C           7.0351   -5.0319   23.7432 C.ar    1  UNL1        0.3196
     30 N           6.5512   -4.6278   25.1043 N.ar    1  UNL1       -0.1986
     31 C           7.0615   -5.3377   26.3230 C.ar    1  UNL1        0.0652
     32 C           6.5777   -4.9336   27.6842 C.3     1  UNL1        0.0523
     33 C           8.0557   -6.4519   26.1807 C.ar    1  UNL1        0.0297
     34 C           8.5396   -6.8560   24.8196 C.ar    1  UNL1        0.0652
     35 C           9.5338   -7.9701   24.6773 C.3     1  UNL1        0.0523
     36 N           8.0293   -6.1460   23.6009 N.ar    1  UNL1       -0.1986
     37 C           3.4800    1.4848   25.4815 C.3     1  UNL1        0.1292
     38 C           2.3911    1.0578   26.4206 C.ar    1  UNL1        0.0531
     39 C           2.6965    0.1081   27.5407 C.ar    1  UNL1        0.1422
     40 F           3.3573   -0.2637   27.7870 F       1  UNL1       -0.2043
     41 C           1.6076   -0.3190   28.4799 C.ar    1  UNL1        0.0591
     42 C           0.2133    0.2037   28.2988 C.ar    1  UNL1        0.1446
     43 F          -0.8756   -0.2233   29.2379 F       1  UNL1       -0.2040
     44 C          -0.0921    1.1534   27.1787 C.ar    1  UNL1        0.0591
     45 C           0.9968    1.5805   26.2395 C.ar    1  UNL1        0.1422
     46 F           0.6915    2.5302   25.1194 F       1  UNL1       -0.2043
@<TRIPOS>UNITY_ATOM_ATTR
26 1
charge -1
@<TRIPOS>BOND
     1    22    23    1
     2    23    21    1
     3    21    20    1
     4    20    14    1
     5    14    15   ar
     6    15    16   ar
     7    16    17   ar
     8    17    18   ar
     9     1    18    1
    10     1    24    1
    11    24    28    1
    12    28    29    1
    13    29    30   ar
    14    30    31   ar
    15    31    32    1
    16    31    33   ar
    17    33    34   ar
    18    34    35    1
    19    34    36   ar
    20    24    25    1
    21    25    26   ar
    22    25    27   ar
    23     1     2    1
    24     2     3    1
    25     3     4    1
    26     4     5    2
    27     4     6   am
    28     6    37    1
    29    37    38    1
    30    38    39   ar
    31    39    40    1
    32    39    41   ar
    33    41    42   ar
    34    42    43    1
    35    42    44   ar
    36    44    45   ar
    37    45    46    1
    38     6     7    1
    39     7     8   ar
    40     8     9   ar
    41     9    10   ar
    42    10    11   ar
    43    11    12   ar
    44    18    19   ar
    45    19    14   ar
    46    12     1    1
    47    36    29   ar
    48    45    38   ar
    49    12     7   ar
    50     2    13    1
@<TRIPOS>MOLECULE
*****
 46 50 0 0 0
SMALL
GASTEIGER

@<TRIPOS>ATOM
      1 C           5.6898   -1.7438   22.8344 C.3     1  UNL1        0.1244
      2 N           6.7102   -1.6047   23.9250 N.3     1  UNL1       -0.2823
      3 C           6.6619   -0.7338   25.1453 C.3     1  UNL1        0.1560
      4 C           5.5812    0.2129   25.5766 C.2     1  UNL1        0.2457
      5 O           5.8331    0.9470   26.8601 O.2     1  UNL1       -0.2730
      6 N           4.2820    0.5226   24.8938 N.am    1  UNL1       -0.2533
      7 C           3.7425   -0.0379   23.6113 C.ar    1  UNL1        0.0518
      8 C           2.3990    0.5421   23.2820 C.ar    1  UNL1        0.0146
      9 C           1.6820    0.1135   22.0361 C.ar    1  UNL1        0.0013
     10 C           2.3086   -0.8951   21.1196 C.ar    1  UNL1       -0.0002
     11 C           3.6520   -1.4752   21.4489 C.ar    1  UNL1       -0.0014
     12 C           4.3690   -1.0466   22.6948 C.ar    1  UNL1        0.0118
     13 H           7.5629   -1.3212   23.4424 H       1  UNL1        0.1243
     14 C           4.8710   -2.1564   18.9731 C.ar    1  UNL1       -0.0224
     15 C           4.0714   -3.4255   18.9869 C.ar    1  UNL1       -0.0043
     16 C           3.8113   -4.1340   20.2832 C.ar    1  UNL1       -0.0006
     17 C           4.3507   -3.5734   21.5656 C.ar    1  UNL1       -0.0026
     18 C           5.1503   -2.3044   21.5518 C.ar    1  UNL1       -0.0022
     19 C           5.4104   -1.5959   20.2556 C.ar    1  UNL1       -0.0069
     20 C           5.1311   -1.4479   17.6768 C.3     1  UNL1        0.0263
     21 C           4.0095   -0.7522   16.9642 C.3     1  UNL1        0.0047
     22 C           3.5641    1.3231   18.4625 C.3     1  UNL1        0.0000
     23 C           3.0566    0.1153   17.7320 C.3     1  UNL1        0.0003
     24 C           6.7704   -2.6906   22.4032 C.3     1  UNL1        0.2256
     25 C           8.0662   -2.1564   21.8687 C.2     1  UNL1        0.0920
     26 O           9.1265   -3.1026   21.3887 O.co2   1  UNL1       -0.5455
     27 O           8.3016   -0.6761   21.8144 O.co2   1  UNL1       -0.5455
     28 O           6.5553   -4.1714   22.5064 O.3     1  UNL1       -0.4426
     29 C           7.0663   -4.9221   23.7004 C.ar    1  UNL1        0.3196
     30 N           8.0415   -6.0472   23.5180 N.ar    1  UNL1       -0.1986
     31 C           8.5525   -6.7978   24.7119 C.ar    1  UNL1        0.0652
     32 C           9.5277   -7.9228   24.5295 C.3     1  UNL1        0.0523
     33 C           8.0883   -6.4233   26.0882 C.ar    1  UNL1        0.0297
     34 C           7.1131   -5.2983   26.2706 C.ar    1  UNL1        0.0652
     35 C           6.6489   -4.9238   27.6470 C.3     1  UNL1        0.0523
     36 N           6.6021   -4.5477   25.0768 N.ar    1  UNL1       -0.1986
     37 C           3.4065    1.5254   25.5850 C.3     1  UNL1        0.1292
     38 C           2.3176    1.0615   26.5066 C.ar    1  UNL1        0.0531
     39 C           2.6320    0.1016   27.6154 C.ar    1  UNL1        0.1422
     40 F           3.2980   -0.2600   27.8628 F       1  UNL1       -0.2043
     41 C           1.5432   -0.3624   28.5371 C.ar    1  UNL1        0.0591
     42 C           0.1401    0.1337   28.3498 C.ar    1  UNL1        0.1446
     43 F          -0.9487   -0.3302   29.2713 F       1  UNL1       -0.2040
     44 C          -0.1743    1.0937   27.2409 C.ar    1  UNL1        0.0591
     45 C           0.9145    1.5576   26.3192 C.ar    1  UNL1        0.1422
     46 F           0.6001    2.5175   25.2104 F       1  UNL1       -0.2043
@<TRIPOS>UNITY_ATOM_ATTR
26 1
charge -1
@<TRIPOS>BOND
     1    22    23    1
     2    23    21    1
     3    21    20    1
     4    20    14    1
     5    14    15   ar
     6    15    16   ar
     7    16    17   ar
     8    17    18   ar
     9     1    18    1
    10     1    24    1
    11    24    28    1
    12    28    29    1
    13    29    30   ar
    14    30    31   ar
    15    31    32    1
    16    31    33   ar
    17    33    34   ar
    18    34    35    1
    19    34    36   ar
    20    24    25    1
    21    25    26   ar
    22    25    27   ar
    23     1     2    1
    24     2     3    1
    25     3     4    1
    26     4     5    2
    27     4     6   am
    28     6    37    1
    29    37    38    1
    30    38    39   ar
    31    39    40    1
    32    39    41   ar
    33    41    42   ar
    34    42    43    1
    35    42    44   ar
    36    44    45   ar
    37    45    46    1
    38     6     7    1
    39     7     8   ar
    40     8     9   ar
    41     9    10   ar
    42    10    11   ar
    43    11    12   ar
    44    18    19   ar
    45    19    14   ar
    46    12     1    1
    47    36    29   ar
    48    45    38   ar
    49    12     7   ar
    50     2    13    1
@<TRIPOS>MOLECULE
*****
 46 50 0 0 0
SMALL
GASTEIGER

@<TRIPOS>ATOM
      1 C           0.0847    2.3876   22.9973 C.3     1  UNL1        0.1244
      2 N          -0.5160    2.6115   21.6412 N.3     1  UNL1       -0.2823
      3 C          -0.2255    1.8895   20.3589 C.3     1  UNL1        0.1560
      4 C           0.7374    0.7652   20.1159 C.2     1  UNL1        0.2457
      5 O           0.7981    0.2532   18.7074 O.2     1  UNL1       -0.2730
      6 N           1.6476    0.0854   21.0954 N.am    1  UNL1       -0.2533
      7 C           1.8198    0.3619   22.5597 C.ar    1  UNL1        0.0518
      8 C           2.8386   -0.5518   23.1737 C.ar    1  UNL1        0.0146
      9 C           3.1619   -0.4409   24.6343 C.ar    1  UNL1        0.0013
     10 C           2.4664    0.5837   25.4807 C.ar    1  UNL1       -0.0002
     11 C           1.4475    1.4974   24.8666 C.ar    1  UNL1       -0.0014
     12 C           1.1242    1.3864   23.4061 C.ar    1  UNL1        0.0118
     13 H          -0.3197    3.5906   21.4333 H       1  UNL1        0.1243
     14 C          -0.3773    2.1758   26.9333 C.ar    1  UNL1       -0.0224
     15 C           0.6012    3.2171   27.3900 C.ar    1  UNL1       -0.0043
     16 C           1.4075    3.9817   26.3824 C.ar    1  UNL1       -0.0006
     17 C           1.2354    3.7052   24.9183 C.ar    1  UNL1       -0.0026
     18 C           0.2569    2.6641   24.4616 C.ar    1  UNL1       -0.0022
     19 C          -0.5494    1.8994   25.4690 C.ar    1  UNL1       -0.0069
     20 C          -1.1836    1.4112   27.9408 C.3     1  UNL1        0.0263
     21 C          -0.7081    0.0724   28.4219 C.3     1  UNL1        0.0047
     22 C           1.4334    0.5187   29.8237 C.3     1  UNL1        0.0000
     23 C           0.7527   -0.1593   28.6718 C.3     1  UNL1        0.0003
     24 C          -0.8782    3.5118   23.2402 C.3     1  UNL1        0.2256
     25 C          -0.4866    4.9204   22.9047 C.2     1  UNL1        0.0920
     26 O          -1.1521    6.0701   23.6014 O.co2   1  UNL1       -0.5455
     27 O           0.5706    5.1793   21.8726 O.co2   1  UNL1       -0.5455
     28 O          -2.2326    3.2275   23.8187 O.3     1  UNL1       -0.4426
     29 C          -3.4651    3.4808   23.0020 C.ar    1  UNL1        0.3196
     30 N          -4.7551    3.8346   23.6810 N.ar    1  UNL1       -0.1986
     31 C          -5.9875    4.0879   22.8644 C.ar    1  UNL1        0.0652
     32 C          -7.2775    4.4416   23.5434 C.3     1  UNL1        0.0523
     33 C          -5.9301    3.9874   21.3689 C.ar    1  UNL1        0.0297
     34 C          -4.6401    3.6337   20.6899 C.ar    1  UNL1        0.0652
     35 C          -4.5827    3.5332   19.1944 C.3     1  UNL1        0.0523
     36 N          -3.4077    3.3804   21.5065 N.ar    1  UNL1       -0.1986
     37 C           2.4982   -1.0166   20.5368 C.3     1  UNL1        0.1292
     38 C           3.6691   -0.6886   19.6585 C.ar    1  UNL1        0.0531
     39 C           4.3348    0.6513   19.7657 C.ar    1  UNL1        0.1422
     40 F           4.2107    1.2969   20.2166 F       1  UNL1       -0.2043
     41 C           5.5058    0.9794   18.8875 C.ar    1  UNL1        0.0591
     42 C           6.0110   -0.0324   17.9021 C.ar    1  UNL1        0.1446
     43 F           7.1819    0.2956   17.0238 F       1  UNL1       -0.2040
     44 C           5.3452   -1.3723   17.7949 C.ar    1  UNL1        0.0591
     45 C           4.1742   -1.7004   18.6731 C.ar    1  UNL1        0.1422
     46 F           3.5085   -3.0402   18.5659 F       1  UNL1       -0.2043
@<TRIPOS>UNITY_ATOM_ATTR
26 1
charge -1
@<TRIPOS>BOND
     1    22    23    1
     2    23    21    1
     3    21    20    1
     4    20    14    1
     5    14    15   ar
     6    15    16   ar
     7    16    17   ar
     8    17    18   ar
     9     1    18    1
    10     1    24    1
    11    24    28    1
    12    28    29    1
    13    29    30   ar
    14    30    31   ar
    15    31    32    1
    16    31    33   ar
    17    33    34   ar
    18    34    35    1
    19    34    36   ar
    20    24    25    1
    21    25    26   ar
    22    25    27   ar
    23     1     2    1
    24     2     3    1
    25     3     4    1
    26     4     5    2
    27     4     6   am
    28     6    37    1
    29    37    38    1
    30    38    39   ar
    31    39    40    1
    32    39    41   ar
    33    41    42   ar
    34    42    43    1
    35    42    44   ar
    36    44    45   ar
    37    45    46    1
    38     6     7    1
    39     7     8   ar
    40     8     9   ar
    41     9    10   ar
    42    10    11   ar
    43    11    12   ar
    44    18    19   ar
    45    19    14   ar
    46    12     1    1
    47    36    29   ar
    48    45    38   ar
    49    12     7   ar
    50     2    13    1
@<TRIPOS>MOLECULE
*****
 46 50 0 0 0
SMALL
GASTEIGER

@<TRIPOS>ATOM
      1 C          -0.0690    2.5159   23.0763 C.3     1  UNL1        0.1244
      2 N          -0.7233    2.7982   21.7565 N.3     1  UNL1       -0.2823
      3 C          -0.4399    2.1778   20.4205 C.3     1  UNL1        0.1560
      4 C           0.5677    1.1219   20.0744 C.2     1  UNL1        0.2457
      5 O           0.6075    0.7075   18.6334 O.2     1  UNL1       -0.2730
      6 N           1.5409    0.4257   20.9790 N.am    1  UNL1       -0.2533
      7 C           1.7468    0.6133   22.4529 C.ar    1  UNL1        0.0518
      8 C           2.8279   -0.2864   22.9741 C.ar    1  UNL1        0.0146
      9 C           3.1925   -0.2559   24.4288 C.ar    1  UNL1        0.0013
     10 C           2.4760    0.6743   25.3622 C.ar    1  UNL1       -0.0002
     11 C           1.3950    1.5741   24.8410 C.ar    1  UNL1       -0.0014
     12 C           1.0304    1.5435   23.3863 C.ar    1  UNL1        0.0118
     13 H          -0.5814    3.7975   21.6094 H       1  UNL1        0.1243
     14 C          -0.3989    2.0276   27.0010 C.ar    1  UNL1       -0.0224
     15 C           0.5487    3.0789   27.4981 C.ar    1  UNL1       -0.0043
     16 C           1.2903    3.9424   26.5213 C.ar    1  UNL1       -0.0006
     17 C           1.0845    3.7548   25.0474 C.ar    1  UNL1       -0.0026
     18 C           0.1369    2.7036   24.5503 C.ar    1  UNL1       -0.0022
     19 C          -0.6048    1.8400   25.5271 C.ar    1  UNL1       -0.0069
     20 C          -1.1406    1.1641   27.9779 C.3     1  UNL1        0.0263
     21 C          -0.5279   -0.1162   28.4629 C.3     1  UNL1        0.0047
     22 C           2.0236   -0.5355   28.7167 C.3     1  UNL1        0.0000
     23 C           0.7174   -0.0825   29.2985 C.3     1  UNL1        0.0003
     24 C          -1.0766    3.5718   23.4224 C.3     1  UNL1        0.2256
     25 C          -0.7568    5.0187   23.1896 C.2     1  UNL1        0.0920
     26 O           0.2122    5.4089   22.1131 O.co2   1  UNL1       -0.5455
     27 O          -1.4060    6.0754   24.0334 O.co2   1  UNL1       -0.5455
     28 O          -2.4040    3.1808   24.0012 O.3     1  UNL1       -0.4426
     29 C          -3.6671    3.4774   23.2484 C.ar    1  UNL1        0.3196
     30 N          -3.7068    3.3175   21.7574 N.ar    1  UNL1       -0.1986
     31 C          -4.9697    3.6141   21.0046 C.ar    1  UNL1        0.0652
     32 C          -5.0093    3.4542   19.5136 C.3     1  UNL1        0.0523
     33 C          -6.1932    4.0707   21.7427 C.ar    1  UNL1        0.0297
     34 C          -6.1535    4.2306   23.2336 C.ar    1  UNL1        0.0652
     35 C          -7.3770    4.6872   23.9717 C.3     1  UNL1        0.0523
     36 N          -4.8906    3.9340   23.9865 N.ar    1  UNL1       -0.1986
     37 C           2.4252   -0.5929   20.3228 C.3     1  UNL1        0.1292
     38 C           3.4534   -0.1592   19.3204 C.ar    1  UNL1        0.0531
     39 C           3.6915   -0.9797   18.0875 C.ar    1  UNL1        0.1422
     40 F           3.3783   -1.6550   17.8026 F       1  UNL1       -0.2043
     41 C           4.7197   -0.5460   17.0851 C.ar    1  UNL1        0.0591
     42 C           5.5097    0.7081   17.3157 C.ar    1  UNL1        0.1446
     43 F           6.5379    1.1418   16.3134 F       1  UNL1       -0.2040
     44 C           5.2715    1.5286   18.5487 C.ar    1  UNL1        0.0591
     45 C           4.2433    1.0949   19.5511 C.ar    1  UNL1        0.1422
     46 F           4.0051    1.9153   20.7839 F       1  UNL1       -0.2043
@<TRIPOS>UNITY_ATOM_ATTR
26 1
charge -1
@<TRIPOS>BOND
     1    22    23    1
     2    23    21    1
     3    21    20    1
     4    20    14    1
     5    14    15   ar
     6    15    16   ar
     7    16    17   ar
     8    17    18   ar
     9     1    18    1
    10     1    24    1
    11    24    28    1
    12    28    29    1
    13    29    30   ar
    14    30    31   ar
    15    31    32    1
    16    31    33   ar
    17    33    34   ar
    18    34    35    1
    19    34    36   ar
    20    24    25    1
    21    25    26   ar
    22    25    27   ar
    23     1     2    1
    24     2     3    1
    25     3     4    1
    26     4     5    2
    27     4     6   am
    28     6    37    1
    29    37    38    1
    30    38    39   ar
    31    39    40    1
    32    39    41   ar
    33    41    42   ar
    34    42    43    1
    35    42    44   ar
    36    44    45   ar
    37    45    46    1
    38     6     7    1
    39     7     8   ar
    40     8     9   ar
    41     9    10   ar
    42    10    11   ar
    43    11    12   ar
    44    18    19   ar
    45    19    14   ar
    46    12     1    1
    47    36    29   ar
    48    45    38   ar
    49    12     7   ar
    50     2    13    1
@<TRIPOS>MOLECULE
*****
 46 50 0 0 0
SMALL
GASTEIGER

@<TRIPOS>ATOM
      1 C           4.8807   -1.9023   22.5248 C.3     1  UNL1        0.1244
      2 N           5.3225   -1.8442   23.9570 N.3     1  UNL1       -0.2823
      3 C           4.6635   -1.1493   25.1115 C.3     1  UNL1        0.1560
      4 C           3.4000   -0.3409   25.1189 C.2     1  UNL1        0.2457
      5 O           3.0002    0.2298   26.4472 O.2     1  UNL1       -0.2730
      6 N           2.4834   -0.0278   23.9735 N.am    1  UNL1       -0.2533
      7 C           2.6039   -0.4457   22.5379 C.ar    1  UNL1        0.0518
      8 C           1.4672    0.0847   21.7155 C.ar    1  UNL1        0.0146
      9 C           1.3974   -0.2192   20.2483 C.ar    1  UNL1        0.0013
     10 C           2.4643   -1.0535   19.6035 C.ar    1  UNL1       -0.0002
     11 C           3.6010   -1.5838   20.4260 C.ar    1  UNL1       -0.0014
     12 C           3.6709   -1.2800   21.8932 C.ar    1  UNL1        0.0118
     13 H           6.2600   -1.4440   23.9192 H       1  UNL1        0.1243
     14 C           5.8244   -1.8496   18.6703 C.ar    1  UNL1       -0.0224
     15 C           5.2424   -3.1562   18.2181 C.ar    1  UNL1       -0.0043
     16 C           4.5399   -4.0446   19.2014 C.ar    1  UNL1       -0.0006
     17 C           4.4193   -3.6267   20.6369 C.ar    1  UNL1       -0.0026
     18 C           5.0013   -2.3203   21.0891 C.ar    1  UNL1       -0.0022
     19 C           5.7038   -1.4317   20.1058 C.ar    1  UNL1       -0.0069
     20 C           6.5269   -0.9611   17.6869 C.3     1  UNL1        0.0263
     21 C           5.7826    0.1596   17.0238 C.3     1  UNL1        0.0047
     22 C           4.2575    1.8188   18.3165 C.3     1  UNL1        0.0000
     23 C           5.5963    1.4640   17.7408 C.3     1  UNL1        0.0003
     24 C           6.1443   -2.7107   22.5174 C.3     1  UNL1        0.2256
     25 C           7.4718   -2.0261   22.3802 C.2     1  UNL1        0.0920
     26 O           7.6765   -0.6618   22.9692 O.co2   1  UNL1       -0.5455
     27 O           8.5947   -2.7057   21.6541 O.co2   1  UNL1       -0.5455
     28 O           6.0802   -4.2037   22.6472 O.3     1  UNL1       -0.4426
     29 C           6.8346   -4.8941   23.7446 C.ar    1  UNL1        0.3196
     30 N           7.8032   -5.9908   23.4140 N.ar    1  UNL1       -0.1986
     31 C           8.5575   -6.6812   24.5114 C.ar    1  UNL1        0.0652
     32 C           9.5261   -7.7778   24.1807 C.3     1  UNL1        0.0523
     33 C           8.3433   -6.2750   25.9393 C.ar    1  UNL1        0.0297
     34 C           7.3747   -5.1784   26.2700 C.ar    1  UNL1        0.0652
     35 C           7.1604   -4.7722   27.6979 C.3     1  UNL1        0.0523
     36 N           6.6203   -4.4880   25.1726 N.ar    1  UNL1       -0.1986
     37 C           1.2882    0.8146   24.3079 C.3     1  UNL1        0.1292
     38 C           1.4551    2.2816   24.5733 C.ar    1  UNL1        0.0531
     39 C           2.3109    3.1151   23.6662 C.ar    1  UNL1        0.1422
     40 F           2.7421    2.9594   23.0141 F       1  UNL1       -0.2043
     41 C           2.4778    4.5820   23.9315 C.ar    1  UNL1        0.0591
     42 C           1.7889    5.2153   25.1039 C.ar    1  UNL1        0.1446
     43 F           1.9557    6.6822   25.3692 F       1  UNL1       -0.2040
     44 C           0.9330    4.3817   26.0109 C.ar    1  UNL1        0.0591
     45 C           0.7661    2.9148   25.7456 C.ar    1  UNL1        0.1422
     46 F          -0.0896    2.0812   26.6526 F       1  UNL1       -0.2043
@<TRIPOS>UNITY_ATOM_ATTR
26 1
charge -1
@<TRIPOS>BOND
     1    22    23    1
     2    23    21    1
     3    21    20    1
     4    20    14    1
     5    14    15   ar
     6    15    16   ar
     7    16    17   ar
     8    17    18   ar
     9     1    18    1
    10     1    24    1
    11    24    28    1
    12    28    29    1
    13    29    30   ar
    14    30    31   ar
    15    31    32    1
    16    31    33   ar
    17    33    34   ar
    18    34    35    1
    19    34    36   ar
    20    24    25    1
    21    25    26   ar
    22    25    27   ar
    23     1     2    1
    24     2     3    1
    25     3     4    1
    26     4     5    2
    27     4     6   am
    28     6    37    1
    29    37    38    1
    30    38    39   ar
    31    39    40    1
    32    39    41   ar
    33    41    42   ar
    34    42    43    1
    35    42    44   ar
    36    44    45   ar
    37    45    46    1
    38     6     7    1
    39     7     8   ar
    40     8     9   ar
    41     9    10   ar
    42    10    11   ar
    43    11    12   ar
    44    18    19   ar
    45    19    14   ar
    46    12     1    1
    47    36    29   ar
    48    45    38   ar
    49    12     7   ar
    50     2    13    1
@<TRIPOS>MOLECULE
*****
 46 50 0 0 0
SMALL
GASTEIGER

@<TRIPOS>ATOM
      1 C           5.4588   -1.7684   26.1591 C.3     1  UNL1        0.1244
      2 N           4.3457   -0.8310   25.7955 N.3     1  UNL1       -0.2823
      3 C           3.5814   -0.7416   24.5079 C.3     1  UNL1        0.1560
      4 C           3.7414   -1.5676   23.2660 C.2     1  UNL1        0.2457
      5 O           2.8151   -1.2295   22.1357 O.2     1  UNL1       -0.2730
      6 N           4.7053   -2.6869   23.0051 N.am    1  UNL1       -0.2533
      7 C           5.7472   -3.2567   23.9214 C.ar    1  UNL1        0.0518
      8 C           6.5019   -4.3746   23.2652 C.ar    1  UNL1        0.0146
      9 C           7.5921   -5.0837   24.0126 C.ar    1  UNL1        0.0013
     10 C           7.9274   -4.6749   25.4164 C.ar    1  UNL1       -0.0002
     11 C           7.1727   -3.5571   26.0726 C.ar    1  UNL1       -0.0014
     12 C           6.0825   -2.8480   25.3251 C.ar    1  UNL1        0.0118
     13 H           4.7440    0.0996   25.9214 H       1  UNL1        0.1243
     14 C           7.1940   -4.0406   28.9118 C.ar    1  UNL1       -0.0224
     15 C           8.5845   -3.4779   28.9083 C.ar    1  UNL1       -0.0043
     16 C           8.9330   -2.3455   27.9886 C.ar    1  UNL1       -0.0006
     17 C           7.8912   -1.7757   27.0722 C.ar    1  UNL1       -0.0026
     18 C           6.5007   -2.3383   27.0756 C.ar    1  UNL1       -0.0022
     19 C           6.1521   -3.4707   27.9953 C.ar    1  UNL1       -0.0069
     20 C           6.8454   -5.1730   29.8315 C.3     1  UNL1        0.0263
     21 C           7.0614   -5.0328   31.3092 C.3     1  UNL1        0.0047
     22 C           7.5634   -2.7312   32.4052 C.3     1  UNL1        0.0000
     23 C           6.5854   -3.8025   32.0234 C.3     1  UNL1        0.0003
     24 C           5.2988   -0.9425   27.4011 C.3     1  UNL1        0.2256
     25 C           6.0017    0.3773   27.5197 C.2     1  UNL1        0.0920
     26 O           6.5106    0.8388   28.8532 O.co2   1  UNL1       -0.5455
     27 O           6.1958    1.2355   26.3050 O.co2   1  UNL1       -0.5455
     28 O           4.4360   -1.4364   28.5242 O.3     1  UNL1       -0.4426
     29 C           3.3087   -0.5875   29.0330 C.ar    1  UNL1        0.3196
     30 N           3.3700   -0.0096   30.4159 N.ar    1  UNL1       -0.1986
     31 C           2.2429    0.8392   30.9247 C.ar    1  UNL1        0.0652
     32 C           2.3042    1.4170   32.3076 C.3     1  UNL1        0.0523
     33 C           1.0543    1.1101   30.0507 C.ar    1  UNL1        0.0297
     34 C           0.9930    0.5323   28.6678 C.ar    1  UNL1        0.0652
     35 C          -0.1955    0.8032   27.7937 C.3     1  UNL1        0.0523
     36 N           2.1202   -0.3165   28.1590 N.ar    1  UNL1       -0.1986
     37 C           4.6154   -3.3201   21.6482 C.3     1  UNL1        0.1292
     38 C           5.1022   -2.5766   20.4397 C.ar    1  UNL1        0.0531
     39 C           6.3606   -1.7640   20.5159 C.ar    1  UNL1        0.1422
     40 F           6.8881   -1.6127   21.0941 F       1  UNL1       -0.2043
     41 C           6.8476   -1.0205   19.3075 C.ar    1  UNL1        0.0591
     42 C           6.0760   -1.0897   18.0230 C.ar    1  UNL1        0.1446
     43 F           6.5628   -0.3463   16.8146 F       1  UNL1       -0.2040
     44 C           4.8175   -1.9025   17.9469 C.ar    1  UNL1        0.0591
     45 C           4.3306   -2.6459   19.1553 C.ar    1  UNL1        0.1422
     46 F           3.0722   -3.4586   19.0793 F       1  UNL1       -0.2043
@<TRIPOS>UNITY_ATOM_ATTR
26 1
charge -1
@<TRIPOS>BOND
     1    22    23    1
     2    23    21    1
     3    21    20    1
     4    20    14    1
     5    14    15   ar
     6    15    16   ar
     7    16    17   ar
     8    17    18   ar
     9     1    18    1
    10     1    24    1
    11    24    28    1
    12    28    29    1
    13    29    30   ar
    14    30    31   ar
    15    31    32    1
    16    31    33   ar
    17    33    34   ar
    18    34    35    1
    19    34    36   ar
    20    24    25    1
    21    25    26   ar
    22    25    27   ar
    23     1     2    1
    24     2     3    1
    25     3     4    1
    26     4     5    2
    27     4     6   am
    28     6    37    1
    29    37    38    1
    30    38    39   ar
    31    39    40    1
    32    39    41   ar
    33    41    42   ar
    34    42    43    1
    35    42    44   ar
    36    44    45   ar
    37    45    46    1
    38     6     7    1
    39     7     8   ar
    40     8     9   ar
    41     9    10   ar
    42    10    11   ar
    43    11    12   ar
    44    18    19   ar
    45    19    14   ar
    46    12     1    1
    47    36    29   ar
    48    45    38   ar
    49    12     7   ar
    50     2    13    1
@<TRIPOS>MOLECULE
*****
 46 50 0 0 0
SMALL
GASTEIGER

@<TRIPOS>ATOM
      1 C         -15.4683   -2.7006   18.9631 C.3     1  UNL1        0.1244
      2 N         -16.6900   -3.0550   19.7579 N.3     1  UNL1       -0.2823
      3 C         -17.7393   -2.1407   20.3176 C.3     1  UNL1        0.1560
      4 C         -17.8258   -0.6463   20.2208 C.2     1  UNL1        0.2457
      5 O         -19.0103   -0.0180   20.8933 O.2     1  UNL1       -0.2730
      6 N         -16.8845    0.3028   19.5403 N.am    1  UNL1       -0.2533
      7 C         -15.6242   -0.0079   18.7886 C.ar    1  UNL1        0.0518
      8 C         -14.9786    1.2394   18.2618 C.ar    1  UNL1        0.0146
      9 C         -13.7027    1.1499   17.4782 C.ar    1  UNL1        0.0013
     10 C         -13.0724   -0.1868   17.2213 C.ar    1  UNL1       -0.0002
     11 C         -13.7180   -1.4340   17.7481 C.ar    1  UNL1       -0.0014
     12 C         -14.9939   -1.3446   18.5317 C.ar    1  UNL1        0.0118
     13 H         -16.3302   -3.5579   20.5691 H       1  UNL1        0.1243
     14 C         -11.6360   -3.3788   18.1856 C.ar    1  UNL1       -0.0224
     15 C         -11.6873   -3.6330   16.7081 C.ar    1  UNL1       -0.0043
     16 C         -12.9988   -3.5764   15.9824 C.ar    1  UNL1       -0.0006
     17 C         -14.2591   -3.2656   16.7340 C.ar    1  UNL1       -0.0026
     18 C         -14.2079   -3.0114   18.2114 C.ar    1  UNL1       -0.0022
     19 C         -12.8964   -3.0680   18.9372 C.ar    1  UNL1       -0.0069
     20 C         -10.3245   -3.4354   18.9113 C.3     1  UNL1        0.0263
     21 C          -9.5398   -4.7132   18.9436 C.3     1  UNL1        0.0047
     22 C          -9.5236   -7.2966   18.6679 C.3     1  UNL1        0.0000
     23 C         -10.2541   -6.0308   19.0054 C.3     1  UNL1        0.0003
     24 C         -15.3817   -4.1950   19.0600 C.3     1  UNL1        0.2256
     25 C         -14.5410   -4.8299   20.1278 C.2     1  UNL1        0.0920
     26 O         -14.5413   -4.2651   21.5174 O.co2   1  UNL1       -0.5455
     27 O         -13.7001   -6.0296   19.8060 O.co2   1  UNL1       -0.5455
     28 O         -16.1357   -5.0544   18.0890 O.3     1  UNL1       -0.4426
     29 C         -16.6118   -6.4150   18.5044 C.ar    1  UNL1        0.3196
     30 N         -15.8812   -7.6396   18.0389 N.ar    1  UNL1       -0.1986
     31 C         -16.3572   -9.0001   18.4542 C.ar    1  UNL1        0.0652
     32 C         -15.6266  -10.2247   17.9887 C.3     1  UNL1        0.0523
     33 C         -17.5637   -9.1360   19.3350 C.ar    1  UNL1        0.0297
     34 C         -18.2942   -7.9113   19.8005 C.ar    1  UNL1        0.0652
     35 C         -19.5007   -8.0472   20.6814 C.3     1  UNL1        0.0523
     36 N         -17.8183   -6.5509   19.3852 N.ar    1  UNL1       -0.1986
     37 C         -17.2521    1.7548   19.6223 C.3     1  UNL1        0.1292
     38 C         -16.7615    2.5892   20.7683 C.ar    1  UNL1        0.0531
     39 C         -17.1747    2.2542   22.1707 C.ar    1  UNL1        0.1422
     40 F         -17.6351    1.6883   22.4923 F       1  UNL1       -0.2043
     41 C         -16.6841    3.0885   23.3167 C.ar    1  UNL1        0.0591
     42 C         -15.7803    4.2578   23.0602 C.ar    1  UNL1        0.1446
     43 F         -15.2896    5.0921   24.2060 F       1  UNL1       -0.2040
     44 C         -15.3670    4.5927   21.6576 C.ar    1  UNL1        0.0591
     45 C         -15.8576    3.7584   20.5116 C.ar    1  UNL1        0.1422
     46 F         -15.4444    4.0933   19.1092 F       1  UNL1       -0.2043
@<TRIPOS>UNITY_ATOM_ATTR
26 1
charge -1
@<TRIPOS>BOND
     1    22    23    1
     2    23    21    1
     3    21    20    1
     4    20    14    1
     5    14    15   ar
     6    15    16   ar
     7    16    17   ar
     8    17    18   ar
     9     1    18    1
    10     1    24    1
    11    24    28    1
    12    28    29    1
    13    29    30   ar
    14    30    31   ar
    15    31    32    1
    16    31    33   ar
    17    33    34   ar
    18    34    35    1
    19    34    36   ar
    20    24    25    1
    21    25    26   ar
    22    25    27   ar
    23     1     2    1
    24     2     3    1
    25     3     4    1
    26     4     5    2
    27     4     6   am
    28     6    37    1
    29    37    38    1
    30    38    39   ar
    31    39    40    1
    32    39    41   ar
    33    41    42   ar
    34    42    43    1
    35    42    44   ar
    36    44    45   ar
    37    45    46    1
    38     6     7    1
    39     7     8   ar
    40     8     9   ar
    41     9    10   ar
    42    10    11   ar
    43    11    12   ar
    44    18    19   ar
    45    19    14   ar
    46    12     1    1
    47    36    29   ar
    48    45    38   ar
    49    12     7   ar
    50     2    13    1
