@<TRIPOS>MOLECULE
*****
 23 25 0 0 0
SMALL
GASTEIGER

@<TRIPOS>ATOM
      1 C          -4.9015  -19.7402   20.7759 C.3     1  UNL1        0.0838
      2 C          -5.8483  -19.9455   19.6308 C.3     1  UNL1        0.0437
      3 C          -7.2385  -19.6738   20.1243 C.ar    1  UNL1       -0.0247
      4 C          -8.5728  -19.7181   19.4405 C.ar    1  UNL1       -0.0045
      5 C          -9.8195  -19.3891   20.2069 C.ar    1  UNL1       -0.0003
      6 C          -9.7319  -19.0160   21.6571 C.ar    1  UNL1        0.0012
      7 C          -8.3976  -18.9718   22.3409 C.ar    1  UNL1       -0.0045
      8 C          -7.1509  -19.3007   21.5745 C.ar    1  UNL1       -0.0247
      9 C          -5.7066  -19.3417   21.9772 C.3     1  UNL1        0.0437
     10 C         -10.9788  -18.6871   22.4236 C.ar    1  UNL1        0.0192
     11 C         -12.1243  -18.0057   21.7355 C.ar    1  UNL1        0.0031
     12 C         -13.3711  -17.6768   22.5019 C.ar    1  UNL1        0.0207
     13 C         -13.4723  -18.0293   23.9564 C.ar    1  UNL1        0.0989
     14 N         -12.3267  -18.7107   24.6445 N.ar    1  UNL1       -0.2423
     15 C         -11.0800  -19.0396   23.8780 C.ar    1  UNL1        0.0988
     16 N          -3.4113  -19.9046   20.7282 N.3     1  UNL1       -0.1841
     17 H          -3.1550  -20.4975   21.5176 H       1  UNL1        0.1484
     18 S          -2.5215  -18.6984   20.7859 S.O2    1  UNL1        0.0390
     19 O          -3.3590  -18.0303   19.7361 O.2     1  UNL1       -0.1576
     20 O          -1.6839  -19.3665   21.8357 O.2     1  UNL1       -0.1576
     21 C          -2.0356  -16.3006   21.6601 C.3     1  UNL1        0.0270
     22 C          -1.6316  -17.4922   20.8436 C.3     1  UNL1        0.1457
     23 C          -0.3379  -17.4777   20.0846 C.3     1  UNL1        0.0270
@<TRIPOS>BOND
     1    21    22    1
     2    22    23    1
     3    22    18    1
     4    18    19    2
     5    18    20    2
     6    18    16    1
     7    16     1    1
     8     1     2    1
     9     2     3    1
    10     3     4   ar
    11     4     5   ar
    12     5     6   ar
    13     6    10    1
    14    10    11   ar
    15    11    12   ar
    16    12    13   ar
    17    13    14   ar
    18    14    15   ar
    19     6     7   ar
    20     7     8   ar
    21     8     9    1
    22     9     1    1
    23     8     3   ar
    24    15    10   ar
    25    16    17    1
@<TRIPOS>MOLECULE
*****
 23 25 0 0 0
SMALL
GASTEIGER

@<TRIPOS>ATOM
      1 C          -3.9944  -17.3801   23.1427 C.3     1  UNL1        0.0838
      2 C          -4.4818  -16.1770   23.8943 C.3     1  UNL1        0.0437
      3 C          -5.9815  -16.2079   23.8964 C.ar    1  UNL1       -0.0247
      4 C          -7.0037  -15.2811   24.4846 C.ar    1  UNL1       -0.0045
      5 C          -8.4653  -15.5764   24.3225 C.ar    1  UNL1       -0.0003
      6 C          -8.9048  -16.7986   23.5721 C.ar    1  UNL1        0.0012
      7 C          -7.8826  -17.7255   22.9839 C.ar    1  UNL1       -0.0045
      8 C          -6.4210  -17.4302   23.1461 C.ar    1  UNL1       -0.0247
      9 C          -5.1929  -18.1546   22.6802 C.3     1  UNL1        0.0437
     10 C         -10.3665  -17.0940   23.4100 C.ar    1  UNL1        0.0192
     11 C         -11.0042  -18.1882   24.2137 C.ar    1  UNL1        0.0031
     12 C         -12.4659  -18.4835   24.0516 C.ar    1  UNL1        0.0207
     13 C         -13.2899  -17.6846   23.0857 C.ar    1  UNL1        0.0989
     14 N         -12.6521  -16.5903   22.2820 N.ar    1  UNL1       -0.2423
     15 C         -11.1904  -16.2950   22.4442 C.ar    1  UNL1        0.0988
     16 N          -2.5603  -17.7447   22.8967 N.3     1  UNL1       -0.1841
     17 H          -1.9932  -17.0050   23.3108 H       1  UNL1        0.1484
     18 S          -2.0651  -17.9360   21.4938 S.O2    1  UNL1        0.0390
     19 O          -2.3976  -16.5070   21.1816 O.2     1  UNL1       -0.1576
     20 O          -1.7327  -19.3650   21.8059 O.2     1  UNL1       -0.1576
     21 C          -0.1244  -17.8913   19.7670 C.3     1  UNL1        0.0270
     22 C          -1.5699  -18.1272   20.0908 C.3     1  UNL1        0.1457
     23 C          -2.5203  -18.5543   19.0117 C.3     1  UNL1        0.0270
@<TRIPOS>BOND
     1    21    22    1
     2    22    23    1
     3    22    18    1
     4    18    19    2
     5    18    20    2
     6    18    16    1
     7    16     1    1
     8     1     2    1
     9     2     3    1
    10     3     4   ar
    11     4     5   ar
    12     5     6   ar
    13     6    10    1
    14    10    11   ar
    15    11    12   ar
    16    12    13   ar
    17    13    14   ar
    18    14    15   ar
    19     6     7   ar
    20     7     8   ar
    21     8     9    1
    22     9     1    1
    23     8     3   ar
    24    15    10   ar
    25    16    17    1
@<TRIPOS>MOLECULE
*****
 23 25 0 0 0
SMALL
GASTEIGER

@<TRIPOS>ATOM
      1 C          -8.8555  -18.3510   23.5373 C.3     1  UNL1        0.0838
      2 C          -8.6779  -19.6491   22.8070 C.3     1  UNL1        0.0437
      3 C          -7.3378  -19.6227   22.1337 C.ar    1  UNL1       -0.0247
      4 C          -6.6259  -20.6257   21.2752 C.ar    1  UNL1       -0.0045
      5 C          -5.2634  -20.3143   20.7308 C.ar    1  UNL1       -0.0003
      6 C          -4.6127  -18.9998   21.0450 C.ar    1  UNL1        0.0012
      7 C          -5.3245  -17.9968   21.9035 C.ar    1  UNL1       -0.0045
      8 C          -6.6870  -18.3082   22.4479 C.ar    1  UNL1       -0.0247
      9 C          -7.6250  -17.5223   23.3154 C.3     1  UNL1        0.0437
     10 C          -3.2500  -18.6884   20.5005 C.ar    1  UNL1        0.0192
     11 C          -3.1029  -18.1612   19.1040 C.ar    1  UNL1        0.0031
     12 C          -1.7403  -17.8497   18.5595 C.ar    1  UNL1        0.0207
     13 C          -0.5248  -18.0655   19.4117 C.ar    1  UNL1        0.0989
     14 N          -0.6720  -18.5928   20.8083 N.ar    1  UNL1       -0.2423
     15 C          -2.0346  -18.9042   21.3527 C.ar    1  UNL1        0.0988
     16 N         -10.0531  -17.9517   24.3474 N.3     1  UNL1       -0.1841
     17 H         -10.1052  -18.5984   25.1344 H       1  UNL1        0.1484
     18 S         -11.4129  -17.9293   23.7146 S.O2    1  UNL1        0.0390
     19 O         -11.8344  -19.0800   24.5796 O.2     1  UNL1       -0.1576
     20 O         -10.9915  -16.7786   22.8497 O.2     1  UNL1       -0.1576
     21 C         -13.9997  -18.0275   23.9364 C.3     1  UNL1        0.0270
     22 C         -12.7728  -17.9069   23.0819 C.3     1  UNL1        0.1457
     23 C         -12.9057  -17.7640   21.5946 C.3     1  UNL1        0.0270
@<TRIPOS>BOND
     1    21    22    1
     2    22    23    1
     3    22    18    1
     4    18    19    2
     5    18    20    2
     6    18    16    1
     7    16     1    1
     8     1     2    1
     9     2     3    1
    10     3     4   ar
    11     4     5   ar
    12     5     6   ar
    13     6    10    1
    14    10    11   ar
    15    11    12   ar
    16    12    13   ar
    17    13    14   ar
    18    14    15   ar
    19     6     7   ar
    20     7     8   ar
    21     8     9    1
    22     9     1    1
    23     8     3   ar
    24    15    10   ar
    25    16    17    1
@<TRIPOS>MOLECULE
*****
 23 25 0 0 0
SMALL
GASTEIGER

@<TRIPOS>ATOM
      1 C         -11.1195   -2.7912   18.7914 C.3     1  UNL1        0.0838
      2 C         -11.2935   -1.3957   18.2694 C.3     1  UNL1        0.0437
      3 C         -12.6844   -0.9453   18.6048 C.ar    1  UNL1       -0.0247
      4 C         -13.4151    0.3377   18.3403 C.ar    1  UNL1       -0.0045
      5 C         -14.8315    0.5036   18.8052 C.ar    1  UNL1       -0.0003
      6 C         -15.5172   -0.6134   19.5345 C.ar    1  UNL1        0.0012
      7 C         -14.7865   -1.8964   19.7990 C.ar    1  UNL1       -0.0045
      8 C         -13.3701   -2.0624   19.3341 C.ar    1  UNL1       -0.0247
      9 C         -12.4030   -3.2031   19.4495 C.3     1  UNL1        0.0437
     10 C         -16.9338   -0.4475   19.9994 C.ar    1  UNL1        0.0192
     11 C         -17.9682   -1.4697   19.6322 C.ar    1  UNL1        0.0031
     12 C         -19.3848   -1.3037   20.0971 C.ar    1  UNL1        0.0207
     13 C         -19.7667   -0.1155   20.9291 C.ar    1  UNL1        0.0989
     14 N         -18.7321    0.9068   21.2962 N.ar    1  UNL1       -0.2423
     15 C         -17.3157    0.7407   20.8314 C.ar    1  UNL1        0.0988
     16 N          -9.8799   -3.6277   18.6758 N.3     1  UNL1       -0.1841
     17 H          -9.3256   -3.2295   17.9177 H       1  UNL1        0.1484
     18 S          -9.9904   -5.0989   18.4048 S.O2    1  UNL1        0.0390
     19 O          -9.2715   -5.3893   19.6888 O.2     1  UNL1       -0.1576
     20 O         -10.7093   -4.8084   17.1208 O.2     1  UNL1       -0.1576
     21 C          -9.2716   -7.5418   18.9200 C.3     1  UNL1        0.0270
     22 C         -10.1009   -6.5701   18.1339 C.3     1  UNL1        0.1457
     23 C         -11.0408   -7.0695   17.0769 C.3     1  UNL1        0.0270
@<TRIPOS>BOND
     1    21    22    1
     2    22    23    1
     3    22    18    1
     4    18    19    2
     5    18    20    2
     6    18    16    1
     7    16     1    1
     8     1     2    1
     9     2     3    1
    10     3     4   ar
    11     4     5   ar
    12     5     6   ar
    13     6    10    1
    14    10    11   ar
    15    11    12   ar
    16    12    13   ar
    17    13    14   ar
    18    14    15   ar
    19     6     7   ar
    20     7     8   ar
    21     8     9    1
    22     9     1    1
    23     8     3   ar
    24    15    10   ar
    25    16    17    1
@<TRIPOS>MOLECULE
*****
 23 25 0 0 0
SMALL
GASTEIGER

@<TRIPOS>ATOM
      1 C           3.9023    1.3900   36.2401 C.3     1  UNL1        0.0838
      2 C           3.3465    1.7640   34.8980 C.3     1  UNL1        0.0437
      3 C           3.8691    0.7835   33.8903 C.ar    1  UNL1       -0.0247
      4 C           3.6583    0.6564   32.4107 C.ar    1  UNL1       -0.0045
      5 C           4.3262   -0.4507   31.6503 C.ar    1  UNL1       -0.0003
      6 C           5.2049   -1.4308   32.3696 C.ar    1  UNL1        0.0012
      7 C           5.4156   -1.3037   33.8493 C.ar    1  UNL1       -0.0045
      8 C           4.7477   -0.1966   34.6096 C.ar    1  UNL1       -0.0247
      9 C           4.7682    0.1783   36.0619 C.3     1  UNL1        0.0437
     10 C           5.8728   -2.5379   31.6092 C.ar    1  UNL1        0.0192
     11 C           6.3373   -3.7687   32.3298 C.ar    1  UNL1        0.0031
     12 C           7.0052   -4.8759   31.5694 C.ar    1  UNL1        0.0207
     13 C           7.2086   -4.7522   30.0884 C.ar    1  UNL1        0.0989
     14 N           6.7440   -3.5213   29.3678 N.ar    1  UNL1       -0.2423
     15 C           6.0761   -2.4142   30.1282 C.ar    1  UNL1        0.0988
     16 N           3.6383    2.1026   37.5334 N.3     1  UNL1       -0.1841
     17 H           4.4664    1.9738   38.1149 H       1  UNL1        0.1484
     18 S           2.4559    1.7195   38.3731 S.O2    1  UNL1        0.0390
     19 O           1.5711    2.5782   37.5188 O.2     1  UNL1       -0.1576
     20 O           3.3406    0.8608   39.2273 O.2     1  UNL1       -0.1576
     21 C           1.1829   -0.0424   39.7962 C.3     1  UNL1        0.0270
     22 C           1.2733    1.3365   39.2127 C.3     1  UNL1        0.1457
     23 C           0.1812    2.3323   39.4687 C.3     1  UNL1        0.0270
@<TRIPOS>BOND
     1    21    22    1
     2    22    23    1
     3    22    18    1
     4    18    19    2
     5    18    20    2
     6    18    16    1
     7    16     1    1
     8     1     2    1
     9     2     3    1
    10     3     4   ar
    11     4     5   ar
    12     5     6   ar
    13     6    10    1
    14    10    11   ar
    15    11    12   ar
    16    12    13   ar
    17    13    14   ar
    18    14    15   ar
    19     6     7   ar
    20     7     8   ar
    21     8     9    1
    22     9     1    1
    23     8     3   ar
    24    15    10   ar
    25    16    17    1
@<TRIPOS>MOLECULE
*****
 23 25 0 0 0
SMALL
GASTEIGER

@<TRIPOS>ATOM
      1 C          -0.8916    3.4537   19.0156 C.3     1  UNL1        0.0838
      2 C          -0.9130    2.6762   20.2982 C.3     1  UNL1        0.0437
      3 C           0.1089    1.5830   20.1947 C.ar    1  UNL1       -0.0247
      4 C           0.5292    0.5080   21.1526 C.ar    1  UNL1       -0.0045
      5 C           1.6025   -0.4651   20.7640 C.ar    1  UNL1       -0.0003
      6 C           2.2555   -0.3632   19.4175 C.ar    1  UNL1        0.0012
      7 C           1.8352    0.7118   18.4595 C.ar    1  UNL1       -0.0045
      8 C           0.7619    1.6849   18.8481 C.ar    1  UNL1       -0.0247
      9 C           0.1435    2.8410   18.1194 C.3     1  UNL1        0.0437
     10 C           3.3288   -1.3364   19.0289 C.ar    1  UNL1        0.0192
     11 C           3.4599   -2.6396   19.7597 C.ar    1  UNL1        0.0031
     12 C           4.5333   -3.6128   19.3711 C.ar    1  UNL1        0.0207
     13 C           5.4755   -3.2826   18.2517 C.ar    1  UNL1        0.0989
     14 N           5.3443   -1.9793   17.5208 N.ar    1  UNL1       -0.2423
     15 C           4.2710   -1.0062   17.9094 C.ar    1  UNL1        0.0988
     16 N          -1.7540    4.6362   18.6869 N.3     1  UNL1       -0.1841
     17 H          -1.7017    5.2696   19.4847 H       1  UNL1        0.1484
     18 S          -3.2099    4.4414   18.3834 S.O2    1  UNL1        0.0390
     19 O          -2.8609    3.9986   16.9934 O.2     1  UNL1       -0.1576
     20 O          -3.5589    4.8843   19.7733 O.2     1  UNL1       -0.1576
     21 C          -5.5195    3.4216   18.9967 C.3     1  UNL1        0.0270
     22 C          -4.6660    4.2466   18.0798 C.3     1  UNL1        0.1457
     23 C          -5.2685    4.8769   16.8592 C.3     1  UNL1        0.0270
@<TRIPOS>BOND
     1    21    22    1
     2    22    23    1
     3    22    18    1
     4    18    19    2
     5    18    20    2
     6    18    16    1
     7    16     1    1
     8     1     2    1
     9     2     3    1
    10     3     4   ar
    11     4     5   ar
    12     5     6   ar
    13     6    10    1
    14    10    11   ar
    15    11    12   ar
    16    12    13   ar
    17    13    14   ar
    18    14    15   ar
    19     6     7   ar
    20     7     8   ar
    21     8     9    1
    22     9     1    1
    23     8     3   ar
    24    15    10   ar
    25    16    17    1
@<TRIPOS>MOLECULE
*****
 23 25 0 0 0
SMALL
GASTEIGER

@<TRIPOS>ATOM
      1 C           1.2664    1.3992   25.0333 C.3     1  UNL1        0.0838
      2 C           0.4366    1.6168   23.8028 C.3     1  UNL1        0.0437
      3 C           1.0673    0.8521   22.6771 C.ar    1  UNL1       -0.0247
      4 C           0.6886    0.6951   21.2342 C.ar    1  UNL1       -0.0045
      5 C           1.5297   -0.1521   20.3260 C.ar    1  UNL1       -0.0003
      6 C           2.7494   -0.8423   20.8607 C.ar    1  UNL1        0.0012
      7 C           3.1281   -0.6853   22.3035 C.ar    1  UNL1       -0.0045
      8 C           2.2871    0.1619   23.2117 C.ar    1  UNL1       -0.0247
      9 C           2.4101    0.5000   24.6679 C.3     1  UNL1        0.0437
     10 C           3.5904   -1.6896   19.9524 C.ar    1  UNL1        0.0192
     11 C           3.9915   -3.0719   20.3745 C.ar    1  UNL1        0.0031
     12 C           4.8325   -3.9191   19.4663 C.ar    1  UNL1        0.0207
     13 C           5.2725   -3.3840   18.1358 C.ar    1  UNL1        0.0989
     14 N           4.8714   -2.0015   17.7137 N.ar    1  UNL1       -0.2423
     15 C           4.0304   -1.1544   18.6219 C.ar    1  UNL1        0.0988
     16 N           0.9995    1.9790   26.3907 N.3     1  UNL1       -0.1841
     17 H           1.8222    2.5262   26.6441 H       1  UNL1        0.1484
     18 S           0.7088    1.0722   27.5496 S.O2    1  UNL1        0.0390
     19 O           2.1257    1.2186   28.0196 O.2     1  UNL1       -0.1576
     20 O          -0.7081    0.9259   27.0796 O.2     1  UNL1       -0.1576
     21 C           1.5186   -0.2245   29.6503 C.3     1  UNL1        0.0270
     22 C           0.4180    0.1654   28.7086 C.3     1  UNL1        0.1457
     23 C          -0.9732   -0.3515   28.9259 C.3     1  UNL1        0.0270
@<TRIPOS>BOND
     1    21    22    1
     2    22    23    1
     3    22    18    1
     4    18    19    2
     5    18    20    2
     6    18    16    1
     7    16     1    1
     8     1     2    1
     9     2     3    1
    10     3     4   ar
    11     4     5   ar
    12     5     6   ar
    13     6    10    1
    14    10    11   ar
    15    11    12   ar
    16    12    13   ar
    17    13    14   ar
    18    14    15   ar
    19     6     7   ar
    20     7     8   ar
    21     8     9    1
    22     9     1    1
    23     8     3   ar
    24    15    10   ar
    25    16    17    1
@<TRIPOS>MOLECULE
*****
 23 25 0 0 0
SMALL
GASTEIGER

@<TRIPOS>ATOM
      1 C           4.1075   -1.5990   18.3175 C.3     1  UNL1        0.0838
      2 C           3.2214   -1.9083   19.4875 C.3     1  UNL1        0.0437
      3 C           2.2043   -0.8116   19.6015 C.ar    1  UNL1       -0.0247
      4 C           1.0770   -0.5844   20.5645 C.ar    1  UNL1       -0.0045
      5 C           0.2073    0.6300   20.4279 C.ar    1  UNL1       -0.0003
      6 C           0.4649    1.6172   19.3283 C.ar    1  UNL1        0.0012
      7 C           1.5922    1.3899   18.3653 C.ar    1  UNL1       -0.0045
      8 C           2.4619    0.1755   18.5019 C.ar    1  UNL1       -0.0247
      9 C           3.6382   -0.3111   17.7083 C.3     1  UNL1        0.0437
     10 C          -0.4049    2.8317   19.1917 C.ar    1  UNL1        0.0192
     11 C          -0.2737    3.7166   17.9877 C.ar    1  UNL1        0.0031
     12 C          -1.1435    4.9311   17.8511 C.ar    1  UNL1        0.0207
     13 C          -2.1445    5.2605   18.9185 C.ar    1  UNL1        0.0989
     14 N          -2.2758    4.3755   20.1225 N.ar    1  UNL1       -0.2423
     15 C          -1.4060    3.1611   20.2591 C.ar    1  UNL1        0.0988
     16 N           5.2606   -2.4313   17.8403 N.3     1  UNL1       -0.1841
     17 H           5.0612   -3.3940   18.1123 H       1  UNL1        0.1484
     18 S           6.6513   -2.1271   18.3127 S.O2    1  UNL1        0.0390
     19 O           6.8319   -1.1749   17.1679 O.2     1  UNL1       -0.1576
     20 O           6.4707   -3.0793   19.4576 O.2     1  UNL1       -0.1576
     21 C           9.0257   -2.9370   18.9884 C.3     1  UNL1        0.0270
     22 C           8.0422   -1.8229   18.7851 C.3     1  UNL1        0.1457
     23 C           8.4493   -0.4045   19.0542 C.3     1  UNL1        0.0270
@<TRIPOS>BOND
     1    21    22    1
     2    22    23    1
     3    22    18    1
     4    18    19    2
     5    18    20    2
     6    18    16    1
     7    16     1    1
     8     1     2    1
     9     2     3    1
    10     3     4   ar
    11     4     5   ar
    12     5     6   ar
    13     6    10    1
    14    10    11   ar
    15    11    12   ar
    16    12    13   ar
    17    13    14   ar
    18    14    15   ar
    19     6     7   ar
    20     7     8   ar
    21     8     9    1
    22     9     1    1
    23     8     3   ar
    24    15    10   ar
    25    16    17    1
