@<TRIPOS>MOLECULE
*****
 28 31 0 0 0
SMALL
GASTEIGER

@<TRIPOS>ATOM
      1 C          -0.9772    2.2709   26.2091 C.ar    1  UNL1        0.1547
      2 C          -0.0317    1.4211   25.4131 C.ar    1  UNL1        0.0384
      3 C           0.1850    1.7035   23.9559 C.ar    1  UNL1        0.0032
      4 C          -0.5438    2.8357   23.2948 C.ar    1  UNL1        0.0017
      5 C          -1.4893    3.6855   24.0910 C.ar    1  UNL1        0.0206
      6 C          -1.7061    3.4031   25.5481 C.ar    1  UNL1        0.0994
      7 N          -2.6516    4.2529   26.3442 N.ar    1  UNL1       -0.2839
      8 C          -4.0999    3.9579   26.6002 C.ar    1  UNL1        0.1826
      9 N          -4.6583    5.0696   27.4384 N.ar    1  UNL1       -0.2280
     10 C          -3.5550    6.0517   27.7003 C.ar    1  UNL1        0.0786
     11 C          -3.6715    7.3163   28.4983 C.3     1  UNL1        0.0538
     12 C          -2.3149    5.5469   27.0241 C.ar    1  UNL1        0.0963
     13 C          -0.9250    0.6176   28.2126 C.3     1  UNL1        0.2525
     14 O          -1.1940    1.9885   27.6663 O.3     1  UNL1       -0.4700
     15 C           1.1306    0.8537   23.1598 C.2     1  UNL1        0.0032
     16 C           1.0458    0.8385   21.6623 C.2     1  UNL1        0.0371
     17 C           1.9914   -0.0113   20.8661 C.ar    1  UNL1        0.1461
     18 N           2.7876   -1.0857   21.5455 N.ar    1  UNL1       -0.2280
     19 C           3.7331   -1.9356   20.7493 C.ar    1  UNL1        0.0875
     20 C           4.5293   -3.0100   21.4287 C.ar    1  UNL1        0.0193
     21 C           5.4748   -3.8597   20.6325 C.ar    1  UNL1        0.0015
     22 C           5.6241   -3.6350   19.1570 C.ar    1  UNL1        0.0003
     23 C           4.8279   -2.5606   18.4776 C.ar    1  UNL1        0.0063
     24 C           3.8824   -1.7109   19.2738 C.ar    1  UNL1        0.0739
     25 C           3.0862   -0.6364   18.5944 C.ar    1  UNL1        0.2634
     26 O           3.2354   -0.4117   17.1189 O.2     1  UNL1       -0.2669
     27 N           2.1407    0.2134   19.3906 N.ar    1  UNL1       -0.2786
     28 C           1.3444    1.2879   18.7112 C.3     1  UNL1        0.1350
@<TRIPOS>BOND
     1    13    14    1
     2    14     1    1
     3     1     2   ar
     4     2     3   ar
     5     3    15    1
     6    15    16    2
     7    16    17    1
     8    17    18   ar
     9    18    19   ar
    10    19    20   ar
    11    20    21   ar
    12    21    22   ar
    13    22    23   ar
    14    23    24   ar
    15    24    25   ar
    16    25    26    2
    17    25    27   ar
    18    27    28    1
    19     3     4   ar
    20     4     5   ar
    21     5     6   ar
    22     6     7    1
    23     7     8   ar
    24     8     9   ar
    25     9    10   ar
    26    10    11    1
    27    10    12   ar
    28     6     1   ar
    29    12     7   ar
    30    27    17   ar
    31    24    19   ar
@<TRIPOS>MOLECULE
*****
 28 31 0 0 0
SMALL
GASTEIGER

@<TRIPOS>ATOM
      1 C           3.2497   -2.0782   19.9486 C.ar    1  UNL1        0.1547
      2 C           2.0004   -1.2860   19.7005 C.ar    1  UNL1        0.0384
      3 C           1.4973   -0.3327   20.7437 C.ar    1  UNL1        0.0032
      4 C           2.2435   -0.1716   22.0349 C.ar    1  UNL1        0.0017
      5 C           3.4929   -0.9638   22.2829 C.ar    1  UNL1        0.0206
      6 C           3.9960   -1.9171   21.2398 C.ar    1  UNL1        0.0994
      7 N           5.2453   -2.7093   21.4878 N.ar    1  UNL1       -0.2839
      8 C           5.3753   -3.8847   22.4106 C.ar    1  UNL1        0.1826
      9 N           6.7945   -4.3670   22.3498 N.ar    1  UNL1       -0.2280
     10 C           7.5415   -3.4896   21.3894 C.ar    1  UNL1        0.0786
     11 C           8.9912   -3.6148   21.0256 C.3     1  UNL1        0.0538
     12 C           6.5841   -2.4651   20.8567 C.ar    1  UNL1        0.0963
     13 C           3.4421   -4.4948   19.0145 C.3     1  UNL1        0.2525
     14 O           3.7528   -3.0314   18.9055 O.3     1  UNL1       -0.4700
     15 C           0.2479    0.4595   20.4956 C.2     1  UNL1        0.0032
     16 C           0.3378    1.9248   20.1876 C.2     1  UNL1        0.0371
     17 C          -0.9116    2.7170   19.9395 C.ar    1  UNL1        0.1461
     18 N          -2.0888    2.5679   20.8570 N.ar    1  UNL1       -0.2280
     19 C          -3.3382    3.3602   20.6089 C.ar    1  UNL1        0.0875
     20 C          -4.5154    3.2110   21.5264 C.ar    1  UNL1        0.0193
     21 C          -5.7647    4.0033   21.2783 C.ar    1  UNL1        0.0015
     22 C          -5.8368    4.9447   20.1127 C.ar    1  UNL1        0.0003
     23 C          -4.6595    5.0938   19.1952 C.ar    1  UNL1        0.0063
     24 C          -3.4102    4.3016   19.4433 C.ar    1  UNL1        0.0739
     25 C          -2.2329    4.4507   18.5258 C.ar    1  UNL1        0.2634
     26 O          -2.3049    5.3920   17.3602 O.2     1  UNL1       -0.2669
     27 N          -0.9836    3.6584   18.7739 N.ar    1  UNL1       -0.2786
     28 C           0.1937    3.8075   17.8564 C.3     1  UNL1        0.1350
@<TRIPOS>BOND
     1    13    14    1
     2    14     1    1
     3     1     2   ar
     4     2     3   ar
     5     3    15    1
     6    15    16    2
     7    16    17    1
     8    17    18   ar
     9    18    19   ar
    10    19    20   ar
    11    20    21   ar
    12    21    22   ar
    13    22    23   ar
    14    23    24   ar
    15    24    25   ar
    16    25    26    2
    17    25    27   ar
    18    27    28    1
    19     3     4   ar
    20     4     5   ar
    21     5     6   ar
    22     6     7    1
    23     7     8   ar
    24     8     9   ar
    25     9    10   ar
    26    10    11    1
    27    10    12   ar
    28     6     1   ar
    29    12     7   ar
    30    27    17   ar
    31    24    19   ar
@<TRIPOS>MOLECULE
*****
 28 31 0 0 0
SMALL
GASTEIGER

@<TRIPOS>ATOM
      1 C          -1.5068    3.8724   24.0468 C.ar    1  UNL1        0.1547
      2 C          -0.5191    3.0788   23.2441 C.ar    1  UNL1        0.0384
      3 C           0.2070    1.9274   23.8744 C.ar    1  UNL1        0.0032
      4 C          -0.0548    1.5697   25.3074 C.ar    1  UNL1        0.0017
      5 C          -1.0426    2.3634   26.1101 C.ar    1  UNL1        0.0206
      6 C          -1.7686    3.5147   25.4798 C.ar    1  UNL1        0.0994
      7 N          -2.7564    4.3084   26.2825 N.ar    1  UNL1       -0.2839
      8 C          -4.1779    3.9209   26.5640 C.ar    1  UNL1        0.1826
      9 N          -4.7962    5.0020   27.4002 N.ar    1  UNL1       -0.2280
     10 C          -3.7567    6.0576   27.6355 C.ar    1  UNL1        0.0786
     11 C          -3.9449    7.3201   28.4232 C.3     1  UNL1        0.0538
     12 C          -2.4961    5.6290   26.9448 C.ar    1  UNL1        0.0963
     13 C          -1.4595    6.1334   22.7678 C.3     1  UNL1        0.2525
     14 O          -2.2328    5.0238   23.4165 O.3     1  UNL1       -0.4700
     15 C           1.1947    1.1337   23.0717 C.2     1  UNL1        0.0032
     16 C           0.8591    0.7155   21.6708 C.2     1  UNL1        0.0371
     17 C           1.8469   -0.0782   20.8680 C.ar    1  UNL1        0.1461
     18 N           2.6615   -1.1503   21.5290 N.ar    1  UNL1       -0.2280
     19 C           3.6493   -1.9440   20.7262 C.ar    1  UNL1        0.0875
     20 C           4.4640   -3.0161   21.3871 C.ar    1  UNL1        0.0193
     21 C           5.4517   -3.8098   20.5843 C.ar    1  UNL1        0.0015
     22 C           5.6248   -3.5313   19.1206 C.ar    1  UNL1        0.0003
     23 C           4.8101   -2.4592   18.4596 C.ar    1  UNL1        0.0063
     24 C           3.8224   -1.6655   19.2624 C.ar    1  UNL1        0.0739
     25 C           3.0077   -0.5934   18.6015 C.ar    1  UNL1        0.2634
     26 O           3.1807   -0.3149   17.1378 O.2     1  UNL1       -0.2669
     27 N           2.0199    0.2003   19.4043 N.ar    1  UNL1       -0.2786
     28 C           1.2052    1.2724   18.7434 C.3     1  UNL1        0.1350
@<TRIPOS>BOND
     1    13    14    1
     2    14     1    1
     3     1     2   ar
     4     2     3   ar
     5     3    15    1
     6    15    16    2
     7    16    17    1
     8    17    18   ar
     9    18    19   ar
    10    19    20   ar
    11    20    21   ar
    12    21    22   ar
    13    22    23   ar
    14    23    24   ar
    15    24    25   ar
    16    25    26    2
    17    25    27   ar
    18    27    28    1
    19     3     4   ar
    20     4     5   ar
    21     5     6   ar
    22     6     7    1
    23     7     8   ar
    24     8     9   ar
    25     9    10   ar
    26    10    11    1
    27    10    12   ar
    28     6     1   ar
    29    12     7   ar
    30    27    17   ar
    31    24    19   ar
@<TRIPOS>MOLECULE
*****
 28 31 0 0 0
SMALL
GASTEIGER

@<TRIPOS>ATOM
      1 C          -0.4440    1.8397   27.5714 C.ar    1  UNL1        0.1547
      2 C          -1.2769    2.1820   26.3718 C.ar    1  UNL1        0.0384
      3 C          -1.4207    3.6119   25.9418 C.ar    1  UNL1        0.0032
      4 C          -0.7315    4.6994   26.7114 C.ar    1  UNL1        0.0017
      5 C           0.1015    4.3571   27.9111 C.ar    1  UNL1        0.0206
      6 C           0.2452    2.9273   28.3410 C.ar    1  UNL1        0.0994
      7 N           1.0781    2.5850   29.5406 N.ar    1  UNL1       -0.2839
      8 C           2.4877    2.0724   29.5181 C.ar    1  UNL1        0.1826
      9 N           2.9285    1.8658   30.9370 N.ar    1  UNL1       -0.2280
     10 C           1.7913    2.2506   31.8364 C.ar    1  UNL1        0.0786
     11 C           1.7968    2.1999   33.3354 C.3     1  UNL1        0.0538
     12 C           0.6478    2.6951   30.9734 C.ar    1  UNL1        0.0963
     13 C          -1.3545   -0.2250   28.8589 C.3     1  UNL1        0.2525
     14 O          -0.3002    0.4099   28.0014 O.3     1  UNL1       -0.4700
     15 C          -2.2536    3.9542   24.7423 C.2     1  UNL1        0.0032
     16 C          -3.6290    3.3744   24.5941 C.2     1  UNL1        0.0371
     17 C          -4.4620    3.7167   23.3945 C.ar    1  UNL1        0.1461
     18 N          -3.9489    3.4217   22.0162 N.ar    1  UNL1       -0.2280
     19 C          -4.7820    3.7640   20.8166 C.ar    1  UNL1        0.0875
     20 C          -4.2689    3.4691   19.4383 C.ar    1  UNL1        0.0193
     21 C          -5.1019    3.8113   18.2388 C.ar    1  UNL1        0.0015
     22 C          -6.4480    4.4486   18.4175 C.ar    1  UNL1        0.0003
     23 C          -6.9611    4.7436   19.7958 C.ar    1  UNL1        0.0063
     24 C          -6.1281    4.4013   20.9953 C.ar    1  UNL1        0.0739
     25 C          -6.6411    4.6962   22.3737 C.ar    1  UNL1        0.2634
     26 O          -7.9872    5.3335   22.5524 O.2     1  UNL1       -0.2669
     27 N          -5.8081    4.3539   23.5732 N.ar    1  UNL1       -0.2786
     28 C          -6.3212    4.6489   24.9516 C.3     1  UNL1        0.1350
@<TRIPOS>BOND
     1    13    14    1
     2    14     1    1
     3     1     2   ar
     4     2     3   ar
     5     3    15    1
     6    15    16    2
     7    16    17    1
     8    17    18   ar
     9    18    19   ar
    10    19    20   ar
    11    20    21   ar
    12    21    22   ar
    13    22    23   ar
    14    23    24   ar
    15    24    25   ar
    16    25    26    2
    17    25    27   ar
    18    27    28    1
    19     3     4   ar
    20     4     5   ar
    21     5     6   ar
    22     6     7    1
    23     7     8   ar
    24     8     9   ar
    25     9    10   ar
    26    10    11    1
    27    10    12   ar
    28     6     1   ar
    29    12     7   ar
    30    27    17   ar
    31    24    19   ar
@<TRIPOS>MOLECULE
*****
 28 31 0 0 0
SMALL
GASTEIGER

@<TRIPOS>ATOM
      1 C           3.6397    0.8834   18.9563 C.ar    1  UNL1        0.1547
      2 C           2.3092    1.4735   19.3190 C.ar    1  UNL1        0.0384
      3 C           1.2603    0.6178   19.9653 C.ar    1  UNL1        0.0032
      4 C           1.5420   -0.8280   20.2488 C.ar    1  UNL1        0.0017
      5 C           2.8725   -1.4181   19.8860 C.ar    1  UNL1        0.0206
      6 C           3.9213   -0.5624   19.2398 C.ar    1  UNL1        0.0994
      7 N           5.2518   -1.1525   18.8770 N.ar    1  UNL1       -0.2839
      8 C           5.5566   -1.9472   17.6419 C.ar    1  UNL1        0.1826
      9 N           7.0043   -2.3374   17.6872 N.ar    1  UNL1       -0.2280
     10 C           7.5942   -1.7838   18.9504 C.ar    1  UNL1        0.0786
     11 C           9.0173   -1.9358   19.3994 C.3     1  UNL1        0.0538
     12 C           6.5112   -1.0515   19.6857 C.ar    1  UNL1        0.0963
     13 C           5.5384    2.6462   19.1496 C.3     1  UNL1        0.2525
     14 O           4.6885    1.7391   18.3100 O.3     1  UNL1       -0.4700
     15 C          -0.0701    1.2078   20.3281 C.2     1  UNL1        0.0032
     16 C          -0.1386    2.4091   21.2238 C.2     1  UNL1        0.0371
     17 C          -1.4691    2.9992   21.5866 C.ar    1  UNL1        0.1461
     18 N          -2.6035    2.9507   20.6065 N.ar    1  UNL1       -0.2280
     19 C          -3.9340    3.5408   20.9693 C.ar    1  UNL1        0.0875
     20 C          -5.0684    3.4923   19.9891 C.ar    1  UNL1        0.0193
     21 C          -6.3988    4.0824   20.3519 C.ar    1  UNL1        0.0015
     22 C          -6.5948    4.7211   21.6949 C.ar    1  UNL1        0.0003
     23 C          -5.4605    4.7696   22.6751 C.ar    1  UNL1        0.0063
     24 C          -4.1300    4.1795   22.3123 C.ar    1  UNL1        0.0739
     25 C          -2.9956    4.2280   23.2925 C.ar    1  UNL1        0.2634
     26 O          -3.1916    4.8667   24.6355 O.2     1  UNL1       -0.2669
     27 N          -1.6652    3.6379   22.9296 N.ar    1  UNL1       -0.2786
     28 C          -0.5307    3.6864   23.9098 C.3     1  UNL1        0.1350
@<TRIPOS>BOND
     1    13    14    1
     2    14     1    1
     3     1     2   ar
     4     2     3   ar
     5     3    15    1
     6    15    16    2
     7    16    17    1
     8    17    18   ar
     9    18    19   ar
    10    19    20   ar
    11    20    21   ar
    12    21    22   ar
    13    22    23   ar
    14    23    24   ar
    15    24    25   ar
    16    25    26    2
    17    25    27   ar
    18    27    28    1
    19     3     4   ar
    20     4     5   ar
    21     5     6   ar
    22     6     7    1
    23     7     8   ar
    24     8     9   ar
    25     9    10   ar
    26    10    11    1
    27    10    12   ar
    28     6     1   ar
    29    12     7   ar
    30    27    17   ar
    31    24    19   ar
@<TRIPOS>MOLECULE
*****
 28 31 0 0 0
SMALL
GASTEIGER

@<TRIPOS>ATOM
      1 C         -14.1376   -5.4574   19.6310 C.ar    1  UNL1        0.1547
      2 C         -14.0941   -3.9978   19.9737 C.ar    1  UNL1        0.0384
      3 C         -15.3496   -3.1783   19.9253 C.ar    1  UNL1        0.0032
      4 C         -16.6485   -3.8185   19.5343 C.ar    1  UNL1        0.0017
      5 C         -16.6920   -5.2782   19.1915 C.ar    1  UNL1        0.0206
      6 C         -15.4365   -6.0976   19.2399 C.ar    1  UNL1        0.0994
      7 N         -15.4800   -7.5573   18.8972 N.ar    1  UNL1       -0.2839
      8 C         -14.3862   -8.3400   18.2330 C.ar    1  UNL1        0.1826
      9 N         -14.8552   -9.7571   18.0838 N.ar    1  UNL1       -0.2280
     10 C         -16.2388   -9.8501   18.6558 C.ar    1  UNL1        0.0786
     11 C         -17.0871  -11.0856   18.7147 C.3     1  UNL1        0.0538
     12 C         -16.6249   -8.4906   19.1585 C.ar    1  UNL1        0.0963
     13 C         -11.6671   -5.8329   18.9201 C.3     1  UNL1        0.2525
     14 O         -12.8822   -6.2768   19.6793 O.3     1  UNL1       -0.4700
     15 C         -15.3061   -1.7186   20.2680 C.2     1  UNL1        0.0032
     16 C         -16.4957   -0.8477   19.9918 C.2     1  UNL1        0.0371
     17 C         -16.4522    0.6121   20.3345 C.ar    1  UNL1        0.1461
     18 N         -17.2071    1.1258   21.5245 N.ar    1  UNL1       -0.2280
     19 C         -17.1636    2.5856   21.8672 C.ar    1  UNL1        0.0875
     20 C         -17.9184    3.0993   23.0573 C.ar    1  UNL1        0.0193
     21 C         -17.8750    4.5590   23.3999 C.ar    1  UNL1        0.0015
     22 C         -17.0767    5.5049   22.5525 C.ar    1  UNL1        0.0003
     23 C         -16.3219    4.9911   21.3625 C.ar    1  UNL1        0.0063
     24 C         -16.3653    3.5315   21.0199 C.ar    1  UNL1        0.0739
     25 C         -15.6105    3.0176   19.8298 C.ar    1  UNL1        0.2634
     26 O         -14.8122    3.9635   18.9824 O.2     1  UNL1       -0.2669
     27 N         -15.6540    1.5580   19.4871 N.ar    1  UNL1       -0.2786
     28 C         -14.8991    1.0441   18.2970 C.3     1  UNL1        0.1350
@<TRIPOS>BOND
     1    13    14    1
     2    14     1    1
     3     1     2   ar
     4     2     3   ar
     5     3    15    1
     6    15    16    2
     7    16    17    1
     8    17    18   ar
     9    18    19   ar
    10    19    20   ar
    11    20    21   ar
    12    21    22   ar
    13    22    23   ar
    14    23    24   ar
    15    24    25   ar
    16    25    26    2
    17    25    27   ar
    18    27    28    1
    19     3     4   ar
    20     4     5   ar
    21     5     6   ar
    22     6     7    1
    23     7     8   ar
    24     8     9   ar
    25     9    10   ar
    26    10    11    1
    27    10    12   ar
    28     6     1   ar
    29    12     7   ar
    30    27    17   ar
    31    24    19   ar
@<TRIPOS>MOLECULE
*****
 28 31 0 0 0
SMALL
GASTEIGER

@<TRIPOS>ATOM
      1 C           3.3473   -2.0646   20.1355 C.ar    1  UNL1        0.1547
      2 C           2.0971   -1.2432   20.0253 C.ar    1  UNL1        0.0384
      3 C           1.7357   -0.2774   21.1147 C.ar    1  UNL1        0.0032
      4 C           2.6247   -0.1331   22.3143 C.ar    1  UNL1        0.0017
      5 C           3.8749   -0.9546   22.4244 C.ar    1  UNL1        0.0206
      6 C           4.2362   -1.9203   21.3350 C.ar    1  UNL1        0.0994
      7 N           5.4864   -2.7417   21.4452 N.ar    1  UNL1       -0.2839
      8 C           5.6937   -3.9138   22.3581 C.ar    1  UNL1        0.1826
      9 N           7.0844   -4.4318   22.1389 N.ar    1  UNL1       -0.2280
     10 C           7.7365   -3.5799   21.0906 C.ar    1  UNL1        0.0786
     11 C           9.1312   -3.7437   20.5635 C.3     1  UNL1        0.0538
     12 C           6.7489   -2.5354   20.6618 C.ar    1  UNL1        0.0963
     13 C           3.3123   -4.4725   19.1605 C.3     1  UNL1        0.2525
     14 O           3.7085   -3.0303   19.0461 O.3     1  UNL1       -0.4700
     15 C           0.4855    0.5440   21.0045 C.2     1  UNL1        0.0032
     16 C           0.4530    1.9381   21.5572 C.2     1  UNL1        0.0371
     17 C          -0.7973    2.7596   21.4471 C.ar    1  UNL1        0.1461
     18 N          -1.4309    2.9850   20.1063 N.ar    1  UNL1       -0.2280
     19 C          -2.6811    3.8065   19.9961 C.ar    1  UNL1        0.0875
     20 C          -3.3147    4.0319   18.6554 C.ar    1  UNL1        0.0193
     21 C          -4.5649    4.8534   18.5453 C.ar    1  UNL1        0.0015
     22 C          -5.1815    5.4495   19.7759 C.ar    1  UNL1        0.0003
     23 C          -4.5479    5.2241   21.1167 C.ar    1  UNL1        0.0063
     24 C          -3.2977    4.4026   21.2268 C.ar    1  UNL1        0.0739
     25 C          -2.6640    4.1771   22.5676 C.ar    1  UNL1        0.2634
     26 O          -3.2806    4.7732   23.7983 O.2     1  UNL1       -0.2669
     27 N          -1.4139    3.3557   22.6777 N.ar    1  UNL1       -0.2786
     28 C          -0.7802    3.1302   24.0185 C.3     1  UNL1        0.1350
@<TRIPOS>BOND
     1    13    14    1
     2    14     1    1
     3     1     2   ar
     4     2     3   ar
     5     3    15    1
     6    15    16    2
     7    16    17    1
     8    17    18   ar
     9    18    19   ar
    10    19    20   ar
    11    20    21   ar
    12    21    22   ar
    13    22    23   ar
    14    23    24   ar
    15    24    25   ar
    16    25    26    2
    17    25    27   ar
    18    27    28    1
    19     3     4   ar
    20     4     5   ar
    21     5     6   ar
    22     6     7    1
    23     7     8   ar
    24     8     9   ar
    25     9    10   ar
    26    10    11    1
    27    10    12   ar
    28     6     1   ar
    29    12     7   ar
    30    27    17   ar
    31    24    19   ar
@<TRIPOS>MOLECULE
*****
 28 31 0 0 0
SMALL
GASTEIGER

@<TRIPOS>ATOM
      1 C           5.3324   -0.2715   30.4419 C.ar    1  UNL1        0.1547
      2 C           5.1682   -0.6864   29.0098 C.ar    1  UNL1        0.0384
      3 C           3.7948   -0.8520   28.4297 C.ar    1  UNL1        0.0032
      4 C           2.5857   -0.6026   29.2817 C.ar    1  UNL1        0.0017
      5 C           2.7500   -0.1877   30.7138 C.ar    1  UNL1        0.0206
      6 C           4.1233   -0.0221   31.2939 C.ar    1  UNL1        0.0994
      7 N           4.2875    0.3928   32.7259 N.ar    1  UNL1       -0.2839
      8 C           4.2824    1.8013   33.2419 C.ar    1  UNL1        0.1826
      9 N           4.4775    1.7511   34.7284 N.ar    1  UNL1       -0.2280
     10 C           4.6031    0.3115   35.1311 C.ar    1  UNL1        0.0786
     11 C           4.8098   -0.1989   36.5263 C.3     1  UNL1        0.0538
     12 C           4.4857   -0.5279   33.8935 C.ar    1  UNL1        0.0963
     13 C           7.7567    0.6445   30.2589 C.3     1  UNL1        0.2525
     14 O           6.7057   -0.1060   31.0219 O.3     1  UNL1       -0.4700
     15 C           3.6306   -1.2670   26.9977 C.2     1  UNL1        0.0032
     16 C           4.8373   -1.4383   26.1234 C.2     1  UNL1        0.0371
     17 C           4.6731   -1.8532   24.6912 C.ar    1  UNL1        0.1461
     18 N           3.6981   -1.1321   23.8085 N.ar    1  UNL1       -0.2280
     19 C           3.5339   -1.5470   22.3764 C.ar    1  UNL1        0.0875
     20 C           2.5589   -0.8259   21.4936 C.ar    1  UNL1        0.0193
     21 C           2.3948   -1.2408   20.0616 C.ar    1  UNL1        0.0015
     22 C           3.2056   -2.3770   19.5123 C.ar    1  UNL1        0.0003
     23 C           4.1806   -3.0981   20.3950 C.ar    1  UNL1        0.0063
     24 C           4.3448   -2.6831   21.8271 C.ar    1  UNL1        0.0739
     25 C           5.3198   -3.4043   22.7099 C.ar    1  UNL1        0.2634
     26 O           6.1307   -4.5404   22.1606 O.2     1  UNL1       -0.2669
     27 N           5.4840   -2.9893   24.1419 N.ar    1  UNL1       -0.2786
     28 C           6.4590   -3.7105   25.0247 C.3     1  UNL1        0.1350
@<TRIPOS>BOND
     1    13    14    1
     2    14     1    1
     3     1     2   ar
     4     2     3   ar
     5     3    15    1
     6    15    16    2
     7    16    17    1
     8    17    18   ar
     9    18    19   ar
    10    19    20   ar
    11    20    21   ar
    12    21    22   ar
    13    22    23   ar
    14    23    24   ar
    15    24    25   ar
    16    25    26    2
    17    25    27   ar
    18    27    28    1
    19     3     4   ar
    20     4     5   ar
    21     5     6   ar
    22     6     7    1
    23     7     8   ar
    24     8     9   ar
    25     9    10   ar
    26    10    11    1
    27    10    12   ar
    28     6     1   ar
    29    12     7   ar
    30    27    17   ar
    31    24    19   ar
@<TRIPOS>MOLECULE
*****
 28 31 0 0 0
SMALL
GASTEIGER

@<TRIPOS>ATOM
      1 C          -3.0066    3.5455   20.9374 C.ar    1  UNL1        0.1547
      2 C          -1.7253    2.9035   20.4946 C.ar    1  UNL1        0.0384
      3 C          -0.6351    2.6400   21.4907 C.ar    1  UNL1        0.0032
      4 C          -0.8263    3.0184   22.9295 C.ar    1  UNL1        0.0017
      5 C          -2.1077    3.6604   23.3723 C.ar    1  UNL1        0.0206
      6 C          -3.1978    3.9239   22.3762 C.ar    1  UNL1        0.0994
      7 N          -4.4791    4.5658   22.8190 N.ar    1  UNL1       -0.2839
      8 C          -4.7020    6.0337   23.0328 C.ar    1  UNL1        0.1826
      9 N          -6.1232    6.2277   23.4717 N.ar    1  UNL1       -0.2280
     10 C          -6.7787    4.8797   23.5291 C.ar    1  UNL1        0.0786
     11 C          -8.2005    4.6067   23.9211 C.3     1  UNL1        0.0538
     12 C          -5.7626    3.8526   23.1258 C.ar    1  UNL1        0.0963
     13 C          -3.7609    3.9789   18.4893 C.3     1  UNL1        0.2525
     14 O          -4.0967    3.8090   19.9414 O.3     1  UNL1       -0.4700
     15 C           0.6463    1.9980   21.0479 C.2     1  UNL1        0.0032
     16 C           0.7018    1.2540   19.7467 C.2     1  UNL1        0.0371
     17 C           1.9831    0.6120   19.3038 C.ar    1  UNL1        0.1461
     18 N           2.2124   -0.8503   19.5466 N.ar    1  UNL1       -0.2280
     19 C           3.4938   -1.4923   19.1038 C.ar    1  UNL1        0.0875
     20 C           3.7230   -2.9546   19.3466 C.ar    1  UNL1        0.0193
     21 C           5.0043   -3.5965   18.9038 C.ar    1  UNL1        0.0015
     22 C           6.0564   -2.7761   18.2181 C.ar    1  UNL1        0.0003
     23 C           5.8271   -1.3138   17.9753 C.ar    1  UNL1        0.0063
     24 C           4.5458   -0.6719   18.4181 C.ar    1  UNL1        0.0739
     25 C           4.3165    0.7905   18.1753 C.ar    1  UNL1        0.2634
     26 O           5.3685    1.6109   17.4897 O.2     1  UNL1       -0.2669
     27 N           3.0352    1.4324   18.6182 N.ar    1  UNL1       -0.2786
     28 C           2.8059    2.8948   18.3753 C.3     1  UNL1        0.1350
@<TRIPOS>BOND
     1    13    14    1
     2    14     1    1
     3     1     2   ar
     4     2     3   ar
     5     3    15    1
     6    15    16    2
     7    16    17    1
     8    17    18   ar
     9    18    19   ar
    10    19    20   ar
    11    20    21   ar
    12    21    22   ar
    13    22    23   ar
    14    23    24   ar
    15    24    25   ar
    16    25    26    2
    17    25    27   ar
    18    27    28    1
    19     3     4   ar
    20     4     5   ar
    21     5     6   ar
    22     6     7    1
    23     7     8   ar
    24     8     9   ar
    25     9    10   ar
    26    10    11    1
    27    10    12   ar
    28     6     1   ar
    29    12     7   ar
    30    27    17   ar
    31    24    19   ar
