@<TRIPOS>MOLECULE
*****
 22 23 0 0 0
SMALL
GASTEIGER

@<TRIPOS>ATOM
      1 C          -6.7735  -18.6269   21.8542 C.ar    1  UNL1        0.1262
      2 C          -7.0014  -19.6485   20.7798 C.ar    1  UNL1        0.1430
      3 N          -5.8392  -20.3986   20.1994 N.ar    1  UNL1       -0.1405
      4 N          -4.4492  -20.1271   20.6935 N.ar    1  UNL1       -0.0915
      5 C          -4.2213  -19.1054   21.7680 C.ar    1  UNL1        0.3383
      6 N          -5.3834  -18.3554   22.3483 N.ar    1  UNL1       -0.1898
      7 C          -8.8812  -16.1688   24.1489 C.ar    1  UNL1        0.3382
      8 N         -10.2597  -16.3766   23.5954 N.ar    1  UNL1       -0.0915
      9 N         -10.4762  -17.3344   22.4616 N.ar    1  UNL1       -0.1405
     10 C          -9.3142  -18.0845   21.8812 C.ar    1  UNL1        0.1430
     11 C          -7.9356  -17.8768   22.4346 C.ar    1  UNL1        0.1262
     12 N          -7.7191  -16.9189   23.5685 N.ar    1  UNL1       -0.1898
     13 O          -8.6647  -15.2109   25.2827 O.3     1  UNL1       -0.4457
     14 C          -8.3239  -15.7298   26.6482 C.3     1  UNL1        0.2087
     15 C          -5.8086  -15.2312   26.2299 C.3     1  UNL1        0.0040
     16 C          -6.9168  -15.6308   27.1585 C.3     1  UNL1        0.0475
     17 O          -2.8313  -18.8339   22.2620 O.3     1  UNL1       -0.4442
     18 C          -2.3486  -17.4208   22.4043 C.3     1  UNL1        0.2260
     19 C          -1.9908  -16.6241   21.1848 C.3     1  UNL1        0.1202
     20 N          -1.4095  -17.3105   19.9845 N.3     1  UNL1       -0.2672
     21 C           0.0398  -17.6972   19.9702 C.3     1  UNL1        0.0898
     22 C          -2.2774  -17.6102   18.7984 C.3     1  UNL1        0.0898
@<TRIPOS>BOND
     1    15    16    1
     2    16    14    1
     3    14    13    1
     4    13     7    1
     5     7     8   ar
     6     8     9   ar
     7     9    10   ar
     8    10    11   ar
     9    11     1    1
    10     1     2   ar
    11     2     3   ar
    12     3     4   ar
    13     4     5   ar
    14     5    17    1
    15    17    18    1
    16    18    19    1
    17    19    20    1
    18    20    21    1
    19    20    22    1
    20     5     6   ar
    21    11    12   ar
    22    12     7   ar
    23     6     1   ar
@<TRIPOS>MOLECULE
*****
 22 23 0 0 0
SMALL
GASTEIGER

@<TRIPOS>ATOM
      1 C          -7.5825  -17.7558   22.7139 C.ar    1  UNL1        0.1262
      2 C          -7.1201  -16.4689   23.3303 C.ar    1  UNL1        0.1430
      3 N          -8.0918  -15.6025   24.0755 N.ar    1  UNL1       -0.1405
      4 N          -9.5259  -16.0230   24.2042 N.ar    1  UNL1       -0.0915
      5 C          -9.9883  -17.3100   23.5877 C.ar    1  UNL1        0.3383
      6 N          -9.0166  -18.1763   22.8426 N.ar    1  UNL1       -0.1898
      7 C          -4.1689  -19.3740   21.4979 C.ar    1  UNL1        0.3382
      8 N          -4.6675  -20.3549   20.4785 N.ar    1  UNL1       -0.0915
      9 N          -6.1378  -20.4695   20.2042 N.ar    1  UNL1       -0.1405
     10 C          -7.1094  -19.6031   20.9493 C.ar    1  UNL1        0.1430
     11 C          -6.6108  -18.6222   21.9687 C.ar    1  UNL1        0.1262
     12 N          -5.1406  -18.5077   22.2430 N.ar    1  UNL1       -0.1898
     13 O          -2.6987  -19.2595   21.7722 O.3     1  UNL1       -0.4457
     14 C          -1.9636  -18.0034   21.4092 C.3     1  UNL1        0.2087
     15 C          -1.8956  -18.0198   18.8120 C.3     1  UNL1        0.0040
     16 C          -2.2361  -17.3272   20.0983 C.3     1  UNL1        0.0475
     17 O         -11.4223  -17.7305   23.7164 O.3     1  UNL1       -0.4442
     18 C         -12.1238  -18.3692   22.5544 C.3     1  UNL1        0.2260
     19 C         -12.5998  -17.5250   21.4096 C.3     1  UNL1        0.1202
     20 N         -11.6923  -17.2596   20.2452 N.3     1  UNL1       -0.2672
     21 C         -11.6721  -15.9039   19.6037 C.3     1  UNL1        0.0898
     22 C         -10.8049  -18.3500   19.7223 C.3     1  UNL1        0.0898
@<TRIPOS>BOND
     1    15    16    1
     2    16    14    1
     3    14    13    1
     4    13     7    1
     5     7     8   ar
     6     8     9   ar
     7     9    10   ar
     8    10    11   ar
     9    11     1    1
    10     1     2   ar
    11     2     3   ar
    12     3     4   ar
    13     4     5   ar
    14     5    17    1
    15    17    18    1
    16    18    19    1
    17    19    20    1
    18    20    21    1
    19    20    22    1
    20     5     6   ar
    21    11    12   ar
    22    12     7   ar
    23     6     1   ar
@<TRIPOS>MOLECULE
*****
 22 23 0 0 0
SMALL
GASTEIGER

@<TRIPOS>ATOM
      1 C          -7.0938  -17.8996   22.1603 C.ar    1  UNL1        0.1262
      2 C          -6.8508  -16.6962   23.0222 C.ar    1  UNL1        0.1430
      3 N          -5.5111  -16.4924   23.6653 N.ar    1  UNL1       -0.1405
      4 N          -4.4143  -17.4921   23.4466 N.ar    1  UNL1       -0.0915
      5 C          -4.6574  -18.6955   22.5847 C.ar    1  UNL1        0.3383
      6 N          -5.9971  -18.8992   21.9416 N.ar    1  UNL1       -0.1898
      7 C         -10.8959  -17.3547   21.1617 C.ar    1  UNL1        0.3382
      8 N         -11.1130  -18.5108   20.2310 N.ar    1  UNL1       -0.0915
      9 N          -9.9904  -19.4632   19.9434 N.ar    1  UNL1       -0.1405
     10 C          -8.6507  -19.2595   20.5865 C.ar    1  UNL1        0.1430
     11 C          -8.4336  -18.1034   21.5172 C.ar    1  UNL1        0.1262
     12 N          -9.5562  -17.1510   21.8048 N.ar    1  UNL1       -0.1898
     13 O         -12.0185  -16.4024   21.4493 O.3     1  UNL1       -0.4457
     14 C         -12.8335  -16.5591   22.6988 C.3     1  UNL1        0.2087
     15 C         -13.9847  -18.0905   24.4537 C.3     1  UNL1        0.0040
     16 C         -13.2474  -17.9259   23.1578 C.3     1  UNL1        0.0475
     17 O          -3.5606  -19.6952   22.3660 O.3     1  UNL1       -0.4442
     18 C          -2.7754  -19.6794   21.0879 C.3     1  UNL1        0.2260
     19 C          -2.6671  -18.4140   20.2898 C.3     1  UNL1        0.1202
     20 N          -1.5640  -17.4387   20.5762 N.3     1  UNL1       -0.2672
     21 C          -0.2019  -17.6523   19.9855 C.3     1  UNL1        0.0898
     22 C          -1.8231  -16.2498   21.4533 C.3     1  UNL1        0.0898
@<TRIPOS>BOND
     1    15    16    1
     2    16    14    1
     3    14    13    1
     4    13     7    1
     5     7     8   ar
     6     8     9   ar
     7     9    10   ar
     8    10    11   ar
     9    11     1    1
    10     1     2   ar
    11     2     3   ar
    12     3     4   ar
    13     4     5   ar
    14     5    17    1
    15    17    18    1
    16    18    19    1
    17    19    20    1
    18    20    21    1
    19    20    22    1
    20     5     6   ar
    21    11    12   ar
    22    12     7   ar
    23     6     1   ar
@<TRIPOS>MOLECULE
*****
 22 23 0 0 0
SMALL
GASTEIGER

@<TRIPOS>ATOM
      1 C          -8.4530  -18.7956   21.7846 C.ar    1  UNL1        0.1262
      2 C          -9.5116  -18.8954   20.7267 C.ar    1  UNL1        0.1430
      3 N          -9.1251  -19.1574   19.3012 N.ar    1  UNL1       -0.1405
      4 N          -7.6799  -19.3195   18.9337 N.ar    1  UNL1       -0.0915
      5 C          -6.6212  -19.2196   19.9917 C.ar    1  UNL1        0.3383
      6 N          -7.0078  -18.9577   21.4171 N.ar    1  UNL1       -0.1898
      7 C          -8.9961  -16.9173   25.2382 C.ar    1  UNL1        0.3382
      8 N          -9.6124  -18.0095   26.0610 N.ar    1  UNL1       -0.0915
      9 N          -9.8423  -19.3638   25.4584 N.ar    1  UNL1       -0.1405
     10 C          -9.4558  -19.6258   24.0330 C.ar    1  UNL1        0.1430
     11 C          -8.8395  -18.5336   23.2101 C.ar    1  UNL1        0.1262
     12 N          -8.6096  -17.1793   23.8128 N.ar    1  UNL1       -0.1898
     13 O          -8.7662  -15.5630   25.8408 O.3     1  UNL1       -0.4457
     14 C          -8.1075  -15.4413   27.1829 C.3     1  UNL1        0.2087
     15 C          -5.7704  -15.2863   26.0585 C.3     1  UNL1        0.0040
     16 C          -6.6113  -15.4601   27.2885 C.3     1  UNL1        0.0475
     17 O          -5.1760  -19.3817   19.6241 O.3     1  UNL1       -0.4442
     18 C          -4.1308  -19.4396   20.6985 C.3     1  UNL1        0.2260
     19 C          -3.0695  -18.3819   20.7702 C.3     1  UNL1        0.1202
     20 N          -3.0380  -17.4283   21.9276 N.3     1  UNL1       -0.2672
     21 C          -2.1639  -16.2106   21.8724 C.3     1  UNL1        0.0898
     22 C          -3.8805  -17.6925   23.1401 C.3     1  UNL1        0.0898
@<TRIPOS>BOND
     1    15    16    1
     2    16    14    1
     3    14    13    1
     4    13     7    1
     5     7     8   ar
     6     8     9   ar
     7     9    10   ar
     8    10    11   ar
     9    11     1    1
    10     1     2   ar
    11     2     3   ar
    12     3     4   ar
    13     4     5   ar
    14     5    17    1
    15    17    18    1
    16    18    19    1
    17    19    20    1
    18    20    21    1
    19    20    22    1
    20     5     6   ar
    21    11    12   ar
    22    12     7   ar
    23     6     1   ar
@<TRIPOS>MOLECULE
*****
 22 23 0 0 0
SMALL
GASTEIGER

@<TRIPOS>ATOM
      1 C          -7.1504  -17.8083   22.3463 C.ar    1  UNL1        0.1262
      2 C          -6.6561  -16.9355   23.4616 C.ar    1  UNL1        0.1430
      3 N          -7.5956  -15.9849   24.1427 N.ar    1  UNL1       -0.1405
      4 N          -9.0293  -15.9072   23.7086 N.ar    1  UNL1       -0.0915
      5 C          -9.5235  -16.7802   22.5933 C.ar    1  UNL1        0.3383
      6 N          -8.5841  -17.7307   21.9122 N.ar    1  UNL1       -0.1898
      7 C          -3.7895  -19.5007   21.0852 C.ar    1  UNL1        0.3382
      8 N          -4.3320  -20.6599   20.3030 N.ar    1  UNL1       -0.0915
      9 N          -5.8139  -20.8686   20.2019 N.ar    1  UNL1       -0.1405
     10 C          -6.7534  -19.9181   20.8830 C.ar    1  UNL1        0.1430
     11 C          -6.2109  -18.7589   21.6652 C.ar    1  UNL1        0.1262
     12 N          -4.7289  -18.5502   21.7663 N.ar    1  UNL1       -0.1898
     13 O          -2.3075  -19.2919   21.1863 O.3     1  UNL1       -0.4457
     14 C          -1.5879  -18.5016   20.1339 C.3     1  UNL1        0.2087
     15 C          -1.8626  -16.3100   21.5020 C.3     1  UNL1        0.0040
     16 C          -1.1918  -17.0801   20.4033 C.3     1  UNL1        0.0475
     17 O         -10.9572  -16.7026   22.1591 O.3     1  UNL1       -0.4442
     18 C         -12.0177  -17.4190   22.9416 C.3     1  UNL1        0.2260
     19 C         -11.6315  -18.4657   23.9443 C.3     1  UNL1        0.1202
     20 N         -10.8460  -19.6673   23.5095 N.3     1  UNL1       -0.2672
     21 C          -9.8472  -20.2876   24.4409 C.3     1  UNL1        0.0898
     22 C         -11.0594  -20.2486   22.1433 C.3     1  UNL1        0.0898
@<TRIPOS>BOND
     1    15    16    1
     2    16    14    1
     3    14    13    1
     4    13     7    1
     5     7     8   ar
     6     8     9   ar
     7     9    10   ar
     8    10    11   ar
     9    11     1    1
    10     1     2   ar
    11     2     3   ar
    12     3     4   ar
    13     4     5   ar
    14     5    17    1
    15    17    18    1
    16    18    19    1
    17    19    20    1
    18    20    21    1
    19    20    22    1
    20     5     6   ar
    21    11    12   ar
    22    12     7   ar
    23     6     1   ar
@<TRIPOS>MOLECULE
*****
 22 23 0 0 0
SMALL
GASTEIGER

@<TRIPOS>ATOM
      1 C          -9.0451  -18.9469   20.6417 C.ar    1  UNL1        0.1262
      2 C          -9.6035  -19.6505   19.4404 C.ar    1  UNL1        0.1430
      3 N          -8.7424  -20.5975   18.6583 N.ar    1  UNL1       -0.1405
      4 N          -7.3229  -20.8409   19.0775 N.ar    1  UNL1       -0.0915
      5 C          -6.7645  -20.1373   20.2789 C.ar    1  UNL1        0.3383
      6 N          -7.6256  -19.1904   21.0610 N.ar    1  UNL1       -0.1898
      7 C         -10.2049  -16.3393   23.3994 C.ar    1  UNL1        0.3382
      8 N         -11.6284  -16.1059   22.9881 N.ar    1  UNL1       -0.0915
      9 N         -12.1908  -16.8196   21.7946 N.ar    1  UNL1       -0.1405
     10 C         -11.3297  -17.7666   21.0125 C.ar    1  UNL1        0.1430
     11 C          -9.9063  -17.9999   21.4238 C.ar    1  UNL1        0.1262
     12 N          -9.3438  -17.2862   22.6173 N.ar    1  UNL1       -0.1898
     13 O          -9.6425  -15.6256   24.5929 O.3     1  UNL1       -0.4457
     14 C          -8.4379  -16.1761   25.2970 C.3     1  UNL1        0.2087
     15 C          -6.7833  -15.5769   27.2085 C.3     1  UNL1        0.0040
     16 C          -8.1841  -15.8269   26.7336 C.3     1  UNL1        0.0475
     17 O          -5.3450  -20.3807   20.6981 O.3     1  UNL1       -0.4442
     18 C          -4.2431  -19.5244   20.1480 C.3     1  UNL1        0.2260
     19 C          -3.4440  -18.6486   21.0669 C.3     1  UNL1        0.1202
     20 N          -2.5758  -17.5636   20.5021 N.3     1  UNL1       -0.2672
     21 C          -2.0253  -16.4982   21.4030 C.3     1  UNL1        0.0898
     22 C          -2.2581  -17.5441   19.0362 C.3     1  UNL1        0.0898
@<TRIPOS>BOND
     1    15    16    1
     2    16    14    1
     3    14    13    1
     4    13     7    1
     5     7     8   ar
     6     8     9   ar
     7     9    10   ar
     8    10    11   ar
     9    11     1    1
    10     1     2   ar
    11     2     3   ar
    12     3     4   ar
    13     4     5   ar
    14     5    17    1
    15    17    18    1
    16    18    19    1
    17    19    20    1
    18    20    21    1
    19    20    22    1
    20     5     6   ar
    21    11    12   ar
    22    12     7   ar
    23     6     1   ar
@<TRIPOS>MOLECULE
*****
 22 23 0 0 0
SMALL
GASTEIGER

@<TRIPOS>ATOM
      1 C          -8.2675  -17.0193   23.2362 C.ar    1  UNL1        0.1262
      2 C          -9.2122  -16.0087   23.8158 C.ar    1  UNL1        0.1430
      3 N         -10.6869  -16.2831   23.8318 N.ar    1  UNL1       -0.1405
      4 N         -11.2167  -17.5682   23.2680 N.ar    1  UNL1       -0.0915
      5 C         -10.2719  -18.5788   22.6883 C.ar    1  UNL1        0.3383
      6 N          -8.7973  -18.3044   22.6724 N.ar    1  UNL1       -0.1898
      7 C          -4.3583  -17.5526   22.8074 C.ar    1  UNL1        0.3382
      8 N          -3.8437  -16.1962   23.1884 N.ar    1  UNL1       -0.0915
      9 N          -4.8037  -15.1141   23.5853 N.ar    1  UNL1       -0.1405
     10 C          -6.2782  -15.3885   23.6013 C.ar    1  UNL1        0.1430
     11 C          -6.7929  -16.7449   23.2203 C.ar    1  UNL1        0.1262
     12 N          -5.8329  -17.8270   22.8233 N.ar    1  UNL1       -0.1898
     13 O          -3.3983  -18.6347   22.4104 O.3     1  UNL1       -0.4457
     14 C          -2.5403  -18.4660   21.1917 C.3     1  UNL1        0.2087
     15 C          -3.9777  -20.2282   19.9352 C.3     1  UNL1        0.0040
     16 C          -2.8424  -19.2478   19.9477 C.3     1  UNL1        0.0475
     17 O         -10.8017  -19.8639   22.1246 O.3     1  UNL1       -0.4442
     18 C         -11.0665  -19.9846   20.6530 C.3     1  UNL1        0.2260
     19 C         -10.2065  -19.2430   19.6730 C.3     1  UNL1        0.1202
     20 N          -8.9385  -19.8646   19.1674 N.3     1  UNL1       -0.2672
     21 C          -7.6177  -19.4498   19.7449 C.3     1  UNL1        0.0898
     22 C          -8.9912  -20.9010   18.0843 C.3     1  UNL1        0.0898
@<TRIPOS>BOND
     1    15    16    1
     2    16    14    1
     3    14    13    1
     4    13     7    1
     5     7     8   ar
     6     8     9   ar
     7     9    10   ar
     8    10    11   ar
     9    11     1    1
    10     1     2   ar
    11     2     3   ar
    12     3     4   ar
    13     4     5   ar
    14     5    17    1
    15    17    18    1
    16    18    19    1
    17    19    20    1
    18    20    21    1
    19    20    22    1
    20     5     6   ar
    21    11    12   ar
    22    12     7   ar
    23     6     1   ar
@<TRIPOS>MOLECULE
*****
 22 23 0 0 0
SMALL
GASTEIGER

@<TRIPOS>ATOM
      1 C          -8.8395  -18.7963   20.6833 C.ar    1  UNL1        0.1262
      2 C          -8.5293  -19.7509   19.5686 C.ar    1  UNL1        0.1430
      3 N          -7.1492  -20.3229   19.4332 N.ar    1  UNL1       -0.1405
      4 N          -6.0794  -19.9404   20.4126 N.ar    1  UNL1       -0.0915
      5 C          -6.3897  -18.9858   21.5274 C.ar    1  UNL1        0.3383
      6 N          -7.7697  -18.4138   21.6627 N.ar    1  UNL1       -0.1898
      7 C         -12.3758  -17.8582   22.2209 C.ar    1  UNL1        0.3382
      8 N         -12.9795  -17.0803   21.0895 N.ar    1  UNL1       -0.0915
      9 N         -12.2033  -16.8743   19.8226 N.ar    1  UNL1       -0.1405
     10 C         -10.8233  -17.4463   19.6872 C.ar    1  UNL1        0.1430
     11 C         -10.2196  -18.2243   20.8187 C.ar    1  UNL1        0.1262
     12 N         -10.9958  -18.4302   22.0855 N.ar    1  UNL1       -0.1898
     13 O         -13.1521  -18.0642   23.4878 O.3     1  UNL1       -0.4457
     14 C         -12.4962  -18.7082   24.6731 C.3     1  UNL1        0.2087
     15 C          -9.9708  -18.6176   25.2767 C.3     1  UNL1        0.0040
     16 C         -11.1103  -19.2690   24.5505 C.3     1  UNL1        0.0475
     17 O          -5.3199  -18.6033   22.5067 O.3     1  UNL1       -0.4442
     18 C          -3.9936  -19.3035   22.4802 C.3     1  UNL1        0.2260
     19 C          -2.7256  -18.5056   22.4055 C.3     1  UNL1        0.1202
     20 N          -2.5014  -17.5588   21.2640 N.3     1  UNL1       -0.2672
     21 C          -2.7734  -18.0024   19.8571 C.3     1  UNL1        0.0898
     22 C          -2.0052  -16.1683   21.5293 C.3     1  UNL1        0.0898
@<TRIPOS>BOND
     1    15    16    1
     2    16    14    1
     3    14    13    1
     4    13     7    1
     5     7     8   ar
     6     8     9   ar
     7     9    10   ar
     8    10    11   ar
     9    11     1    1
    10     1     2   ar
    11     2     3   ar
    12     3     4   ar
    13     4     5   ar
    14     5    17    1
    15    17    18    1
    16    18    19    1
    17    19    20    1
    18    20    21    1
    19    20    22    1
    20     5     6   ar
    21    11    12   ar
    22    12     7   ar
    23     6     1   ar
@<TRIPOS>MOLECULE
*****
 22 23 0 0 0
SMALL
GASTEIGER

@<TRIPOS>ATOM
      1 C           8.1742  -10.2750   27.8167 C.ar    1  UNL1        0.1262
      2 C           9.4938  -10.9845   27.8888 C.ar    1  UNL1        0.1430
      3 N           9.5360  -12.4750   28.0526 N.ar    1  UNL1       -0.1405
      4 N           8.2586  -13.2559   28.1443 N.ar    1  UNL1       -0.0915
      5 C           6.9389  -12.5463   28.0722 C.ar    1  UNL1        0.3383
      6 N           6.8968  -11.0559   27.9084 N.ar    1  UNL1       -0.1898
      7 C           8.6896   -6.4069   28.5395 C.ar    1  UNL1        0.3382
      8 N           8.0476   -5.8037   27.3255 N.ar    1  UNL1       -0.0915
      9 N           7.4478   -6.6909   26.2752 N.ar    1  UNL1       -0.1405
     10 C           7.4900   -8.1813   26.4389 C.ar    1  UNL1        0.1430
     11 C           8.1320   -8.7845   27.6529 C.ar    1  UNL1        0.1262
     12 N           8.7318   -7.8973   28.7032 N.ar    1  UNL1       -0.1898
     13 O           9.2895   -5.5197   29.5898 O.3     1  UNL1       -0.4457
     14 C           8.7096   -5.4970   30.9729 C.3     1  UNL1        0.2087
     15 C           6.6682   -4.2493   31.9860 C.3     1  UNL1        0.0040
     16 C           7.2269   -5.3719   31.1626 C.3     1  UNL1        0.0475
     17 O           5.6615  -13.3272   28.1639 O.3     1  UNL1       -0.4442
     18 C           4.5854  -13.1279   27.1381 C.3     1  UNL1        0.2260
     19 C           3.2953  -13.8854   27.2476 C.3     1  UNL1        0.1202
     20 N           2.2721  -13.4807   28.2670 N.3     1  UNL1       -0.2672
     21 C           2.6509  -12.5512   29.3817 C.3     1  UNL1        0.0898
     22 C           0.8702  -14.0054   28.1716 C.3     1  UNL1        0.0898
@<TRIPOS>BOND
     1    15    16    1
     2    16    14    1
     3    14    13    1
     4    13     7    1
     5     7     8   ar
     6     8     9   ar
     7     9    10   ar
     8    10    11   ar
     9    11     1    1
    10     1     2   ar
    11     2     3   ar
    12     3     4   ar
    13     4     5   ar
    14     5    17    1
    15    17    18    1
    16    18    19    1
    17    19    20    1
    18    20    21    1
    19    20    22    1
    20     5     6   ar
    21    11    12   ar
    22    12     7   ar
    23     6     1   ar
