@<TRIPOS>MOLECULE
*****
 36 39 0 0 0
SMALL
GASTEIGER

@<TRIPOS>ATOM
      1 C           8.5441   -5.0506   25.6277 C.ar    1  UNL1       -0.0231
      2 C           8.6835   -5.7266   26.9595 C.ar    1  UNL1       -0.0246
      3 C           8.5081   -7.2124   27.0684 C.ar    1  UNL1       -0.0045
      4 C           8.1935   -8.0221   25.8456 C.ar    1  UNL1       -0.0002
      5 C           8.0542   -7.3461   24.5138 C.ar    1  UNL1        0.0027
      6 C           8.2295   -5.8603   24.4049 C.ar    1  UNL1        0.0322
      7 C           8.0901   -5.1843   23.0731 C.ar    1  UNL1        0.1700
      8 N           9.1331   -5.1345   21.9962 N.ar    1  UNL1       -0.1885
      9 S           8.5709   -4.3588   20.8420 S.2     1  UNL1        0.0341
     10 C           7.1804   -3.9293   21.2055 C.ar    1  UNL1        0.1299
     11 N           6.8833   -4.4394   22.5844 N.ar    1  UNL1       -0.2181
     12 C           6.2504   -3.1299   20.3418 C.ar    1  UNL1        0.0259
     13 C           4.7663   -3.2947   20.4848 C.ar    1  UNL1        0.0018
     14 C           3.8363   -2.4953   19.6211 C.ar    1  UNL1       -0.0035
     15 C           4.3903   -1.5312   18.6143 C.ar    1  UNL1       -0.0126
     16 C           5.8744   -1.3664   18.4713 C.ar    1  UNL1        0.0645
     17 C           6.8044   -2.1658   19.3350 C.ar    1  UNL1        0.0120
     18 C           6.4284   -0.4023   17.4645 C.1     1  UNL1        0.1001
     19 N           6.9824    0.5618   16.4578 N.1     1  UNL1       -0.1908
     20 C           3.4603   -0.7318   17.7506 C.3     1  UNL1        0.0270
     21 C           2.8214    0.5139   18.2890 C.3     1  UNL1        0.0044
     22 C           1.3268    0.6392   18.3149 C.3     1  UNL1        0.0003
     23 C           3.6769    1.6344   18.8016 C.3     1  UNL1        0.0003
     24 C           7.5525   -2.6526   25.7555 C.3     1  UNL1        0.0050
     25 C           8.7194   -3.5649   25.5188 C.3     1  UNL1        0.0261
     26 C           8.9981   -4.9169   28.1824 C.3     1  UNL1        0.0433
     27 C           8.4395   -5.3219   29.5142 C.3     1  UNL1        0.0768
     28 N           7.5220   -4.3954   30.2558 N.3     1  UNL1       -0.2724
     29 C           7.0560   -3.1248   29.6089 C.3     1  UNL1        0.0725
     30 C           6.1385   -2.1984   30.3505 C.3     1  UNL1        0.0229
     31 C           5.6871   -2.5425   31.7390 C.3     1  UNL1        0.0393
     32 C           6.1531   -3.8131   32.3858 C.3     1  UNL1        0.0229
     33 C           7.0705   -4.7395   31.6442 C.3     1  UNL1        0.0725
     34 C           4.7696   -1.6160   32.4805 C.2     1  UNL1        0.0501
     35 O           4.7724   -0.1489   32.1681 O.co2   1  UNL1       -0.5492
     36 O           3.8493   -2.1566   33.5345 O.co2   1  UNL1       -0.5492
@<TRIPOS>UNITY_ATOM_ATTR
35 1
charge -1
@<TRIPOS>BOND
     1    24    25    1
     2    25     1    1
     3     1     2   ar
     4     2    26    1
     5    26    27    1
     6    27    28    1
     7    28    29    1
     8    29    30    1
     9    30    31    1
    10    31    34    1
    11    34    35   ar
    12    34    36   ar
    13    31    32    1
    14    32    33    1
    15     2     3   ar
    16     3     4   ar
    17     4     5   ar
    18     5     6   ar
    19     6     7    1
    20     7     8   ar
    21     8     9   ar
    22     9    10   ar
    23    10    12    1
    24    12    13   ar
    25    13    14   ar
    26    14    15   ar
    27    15    20    1
    28    20    21    1
    29    21    22    1
    30    21    23    1
    31    15    16   ar
    32    16    18    1
    33    18    19    3
    34    16    17   ar
    35    10    11   ar
    36     6     1   ar
    37    11     7   ar
    38    33    28    1
    39    17    12   ar
@<TRIPOS>MOLECULE
*****
 36 39 0 0 0
SMALL
GASTEIGER

@<TRIPOS>ATOM
      1 C           4.0813   -1.9033   21.4860 C.ar    1  UNL1       -0.0231
      2 C           4.6032   -3.2547   21.8749 C.ar    1  UNL1       -0.0246
      3 C           4.5264   -4.3961   20.9046 C.ar    1  UNL1       -0.0045
      4 C           3.9277   -4.1860   19.5454 C.ar    1  UNL1       -0.0002
      5 C           3.4058   -2.8346   19.1566 C.ar    1  UNL1        0.0027
      6 C           3.4825   -1.6933   20.1269 C.ar    1  UNL1        0.0322
      7 C           2.9606   -0.3418   19.7380 C.ar    1  UNL1        0.1700
      8 N           3.7787    0.8039   19.2203 N.ar    1  UNL1       -0.1885
      9 S           2.8526    1.9549   18.9609 S.2     1  UNL1        0.0341
     10 C           1.4620    1.5207   19.3183 C.ar    1  UNL1        0.1299
     11 N           1.5287    0.1012   19.7985 N.ar    1  UNL1       -0.2181
     12 C           0.2223    2.3587   19.2137 C.ar    1  UNL1        0.0259
     13 C          -0.0988    3.0659   17.9305 C.ar    1  UNL1        0.0018
     14 C          -1.3385    3.9039   17.8259 C.ar    1  UNL1       -0.0035
     15 C          -2.2570    4.0347   19.0046 C.ar    1  UNL1       -0.0126
     16 C          -1.9358    3.3275   20.2879 C.ar    1  UNL1        0.0645
     17 C          -0.6962    2.4895   20.3924 C.ar    1  UNL1        0.0120
     18 C          -2.8543    3.4584   21.4666 C.1     1  UNL1        0.1001
     19 N          -3.7728    3.5892   22.6452 N.1     1  UNL1       -0.1908
     20 C          -3.4966    4.8728   18.9001 C.3     1  UNL1        0.0270
     21 C          -4.6788    4.3699   18.1257 C.3     1  UNL1        0.0044
     22 C          -4.8648    4.7753   16.6935 C.3     1  UNL1        0.0003
     23 C          -5.6750    3.4615   18.7834 C.3     1  UNL1        0.0003
     24 C           3.0257   -0.5081   23.4068 C.3     1  UNL1        0.0050
     25 C           4.1581   -0.7620   22.4564 C.3     1  UNL1        0.0261
     26 C           5.2020   -3.4649   23.2341 C.3     1  UNL1        0.0433
     27 C           6.6461   -3.8482   23.3663 C.3     1  UNL1        0.0768
     28 N           7.0558   -4.8985   24.3560 N.3     1  UNL1       -0.2724
     29 C           7.8107   -6.1098   23.8948 C.3     1  UNL1        0.0725
     30 C           8.2203   -7.1599   24.8845 C.3     1  UNL1        0.0229
     31 C           7.8749   -6.9987   26.3352 C.3     1  UNL1        0.0393
     32 C           7.1200   -5.7874   26.7964 C.3     1  UNL1        0.0229
     33 C           6.7104   -4.7373   25.8068 C.3     1  UNL1        0.0725
     34 C           8.2846   -8.0490   27.3249 C.2     1  UNL1        0.0501
     35 O           7.6818   -9.4208   27.2553 O.co2   1  UNL1       -0.5492
     36 O           9.2969   -7.7273   28.3840 O.co2   1  UNL1       -0.5492
@<TRIPOS>UNITY_ATOM_ATTR
35 1
charge -1
@<TRIPOS>BOND
     1    24    25    1
     2    25     1    1
     3     1     2   ar
     4     2    26    1
     5    26    27    1
     6    27    28    1
     7    28    29    1
     8    29    30    1
     9    30    31    1
    10    31    34    1
    11    34    35   ar
    12    34    36   ar
    13    31    32    1
    14    32    33    1
    15     2     3   ar
    16     3     4   ar
    17     4     5   ar
    18     5     6   ar
    19     6     7    1
    20     7     8   ar
    21     8     9   ar
    22     9    10   ar
    23    10    12    1
    24    12    13   ar
    25    13    14   ar
    26    14    15   ar
    27    15    20    1
    28    20    21    1
    29    21    22    1
    30    21    23    1
    31    15    16   ar
    32    16    18    1
    33    18    19    3
    34    16    17   ar
    35    10    11   ar
    36     6     1   ar
    37    11     7   ar
    38    33    28    1
    39    17    12   ar
@<TRIPOS>MOLECULE
*****
 36 39 0 0 0
SMALL
GASTEIGER

@<TRIPOS>ATOM
      1 C           4.4961    0.8937   28.9642 C.ar    1  UNL1       -0.0231
      2 C           4.8709    0.7158   30.4057 C.ar    1  UNL1       -0.0246
      3 C           3.9830   -0.0759   31.3193 C.ar    1  UNL1       -0.0045
      4 C           2.7203   -0.6898   30.7915 C.ar    1  UNL1       -0.0002
      5 C           2.3455   -0.5119   29.3500 C.ar    1  UNL1        0.0027
      6 C           3.2334    0.2798   28.4364 C.ar    1  UNL1        0.0322
      7 C           2.8585    0.4577   26.9949 C.ar    1  UNL1        0.1700
      8 N           1.9734    1.5344   26.4404 N.ar    1  UNL1       -0.1885
      9 S           1.8708    1.3322   24.9577 S.2     1  UNL1        0.0341
     10 C           2.6925    0.1306   24.5957 C.ar    1  UNL1        0.1299
     11 N           3.3029   -0.4098   25.8548 N.ar    1  UNL1       -0.2181
     12 C           2.8722   -0.4318   23.2168 C.ar    1  UNL1        0.0259
     13 C           3.8164   -1.5752   22.9903 C.ar    1  UNL1        0.0018
     14 C           3.9961   -2.1375   21.6114 C.ar    1  UNL1       -0.0035
     15 C           3.2317   -1.5565   20.4590 C.ar    1  UNL1       -0.0126
     16 C           2.2875   -0.4132   20.6854 C.ar    1  UNL1        0.0645
     17 C           2.1078    0.1492   22.0643 C.ar    1  UNL1        0.0120
     18 C           1.5231    0.1678   19.5330 C.1     1  UNL1        0.1001
     19 N           0.7587    0.7487   18.3806 N.1     1  UNL1       -0.1908
     20 C           3.4114   -2.1189   19.0801 C.3     1  UNL1        0.0270
     21 C           4.2288   -3.3601   18.8770 C.3     1  UNL1        0.0044
     22 C           5.6572   -3.2529   18.4314 C.3     1  UNL1        0.0003
     23 C           3.6181   -4.7085   19.1195 C.3     1  UNL1        0.0003
     24 C           6.4605    0.9949   27.2670 C.3     1  UNL1        0.0050
     25 C           5.3840    1.6855   28.0506 C.3     1  UNL1        0.0261
     26 C           6.1337    1.3297   30.9336 C.3     1  UNL1        0.0433
     27 C           7.3682    0.4915   31.0866 C.3     1  UNL1        0.0768
     28 N           7.2741   -1.0035   31.0082 N.3     1  UNL1       -0.2724
     29 C           7.0690   -1.6736   29.6820 C.3     1  UNL1        0.0725
     30 C           6.9749   -3.1686   29.6037 C.3     1  UNL1        0.0229
     31 C           7.0859   -3.9935   30.8516 C.3     1  UNL1        0.0393
     32 C           7.2910   -3.3234   32.1778 C.3     1  UNL1        0.0229
     33 C           7.3850   -1.8284   32.2561 C.3     1  UNL1        0.0725
     34 C           6.9918   -5.4885   30.7733 C.2     1  UNL1        0.0501
     35 O           7.2709   -6.1907   29.4775 O.co2   1  UNL1       -0.5492
     36 O           6.6186   -6.2813   31.9907 O.co2   1  UNL1       -0.5492
@<TRIPOS>UNITY_ATOM_ATTR
35 1
charge -1
@<TRIPOS>BOND
     1    24    25    1
     2    25     1    1
     3     1     2   ar
     4     2    26    1
     5    26    27    1
     6    27    28    1
     7    28    29    1
     8    29    30    1
     9    30    31    1
    10    31    34    1
    11    34    35   ar
    12    34    36   ar
    13    31    32    1
    14    32    33    1
    15     2     3   ar
    16     3     4   ar
    17     4     5   ar
    18     5     6   ar
    19     6     7    1
    20     7     8   ar
    21     8     9   ar
    22     9    10   ar
    23    10    12    1
    24    12    13   ar
    25    13    14   ar
    26    14    15   ar
    27    15    20    1
    28    20    21    1
    29    21    22    1
    30    21    23    1
    31    15    16   ar
    32    16    18    1
    33    18    19    3
    34    16    17   ar
    35    10    11   ar
    36     6     1   ar
    37    11     7   ar
    38    33    28    1
    39    17    12   ar
@<TRIPOS>MOLECULE
*****
 36 39 0 0 0
SMALL
GASTEIGER

@<TRIPOS>ATOM
      1 C           8.3131   -5.0720   25.9249 C.ar    1  UNL1       -0.0231
      2 C           8.8016   -5.8786   27.0913 C.ar    1  UNL1       -0.0246
      3 C           8.9592   -7.3647   26.9622 C.ar    1  UNL1       -0.0045
      4 C           8.6283   -8.0442   25.6665 C.ar    1  UNL1       -0.0002
      5 C           8.1397   -7.2376   24.5001 C.ar    1  UNL1        0.0027
      6 C           7.9821   -5.7515   24.6293 C.ar    1  UNL1        0.0322
      7 C           7.4935   -4.9448   23.4627 C.ar    1  UNL1        0.1700
      8 N           8.2830   -4.6046   22.2336 N.ar    1  UNL1       -0.1885
      9 S           7.4070   -3.7864   21.3318 S.2     1  UNL1        0.0341
     10 C           6.0761   -3.6209   22.0037 C.ar    1  UNL1        0.1299
     11 N           6.1296   -4.3369   23.3206 N.ar    1  UNL1       -0.2181
     12 C           4.8986   -2.8711   21.4549 C.ar    1  UNL1        0.0259
     13 C           4.3502   -3.2213   20.1033 C.ar    1  UNL1        0.0018
     14 C           3.1726   -2.4715   19.5545 C.ar    1  UNL1       -0.0035
     15 C           2.5435   -1.3716   20.3573 C.ar    1  UNL1       -0.0126
     16 C           3.0919   -1.0214   21.7088 C.ar    1  UNL1        0.0645
     17 C           4.2694   -1.7712   22.2576 C.ar    1  UNL1        0.0120
     18 C           2.4627    0.0785   22.5116 C.1     1  UNL1        0.1001
     19 N           1.8336    1.1783   23.3143 N.1     1  UNL1       -0.1908
     20 C           1.3659   -0.6218   19.8085 C.3     1  UNL1        0.0270
     21 C           1.5798    0.6285   19.0080 C.3     1  UNL1        0.0044
     22 C           2.8066    0.7736   18.1569 C.3     1  UNL1        0.0003
     23 C           0.5671    1.7339   19.0583 C.3     1  UNL1        0.0003
     24 C           9.3144   -2.6804   25.7597 C.3     1  UNL1        0.0050
     25 C           8.1554   -3.5859   26.0541 C.3     1  UNL1        0.0261
     26 C           9.1326   -5.1991   28.3871 C.3     1  UNL1        0.0433
     27 C           8.3490   -5.5218   29.6247 C.3     1  UNL1        0.0768
     28 N           7.4991   -4.4678   30.2704 N.3     1  UNL1       -0.2724
     29 C           7.0931   -4.6081   31.7075 C.3     1  UNL1        0.0725
     30 C           6.2433   -3.5541   32.3531 C.3     1  UNL1        0.0229
     31 C           5.7993   -2.3598   31.5615 C.3     1  UNL1        0.0393
     32 C           6.2052   -2.2195   30.1244 C.3     1  UNL1        0.0229
     33 C           7.0551   -3.2735   29.4788 C.3     1  UNL1        0.0725
     34 C           4.9494   -1.3058   32.2072 C.2     1  UNL1        0.0501
     35 O           3.5709   -1.6463   32.6908 O.co2   1  UNL1       -0.5492
     36 O           5.4779    0.0885   32.3692 O.co2   1  UNL1       -0.5492
@<TRIPOS>UNITY_ATOM_ATTR
35 1
charge -1
@<TRIPOS>BOND
     1    24    25    1
     2    25     1    1
     3     1     2   ar
     4     2    26    1
     5    26    27    1
     6    27    28    1
     7    28    29    1
     8    29    30    1
     9    30    31    1
    10    31    34    1
    11    34    35   ar
    12    34    36   ar
    13    31    32    1
    14    32    33    1
    15     2     3   ar
    16     3     4   ar
    17     4     5   ar
    18     5     6   ar
    19     6     7    1
    20     7     8   ar
    21     8     9   ar
    22     9    10   ar
    23    10    12    1
    24    12    13   ar
    25    13    14   ar
    26    14    15   ar
    27    15    20    1
    28    20    21    1
    29    21    22    1
    30    21    23    1
    31    15    16   ar
    32    16    18    1
    33    18    19    3
    34    16    17   ar
    35    10    11   ar
    36     6     1   ar
    37    11     7   ar
    38    33    28    1
    39    17    12   ar
@<TRIPOS>MOLECULE
*****
 36 39 0 0 0
SMALL
GASTEIGER

@<TRIPOS>ATOM
      1 C           2.5605    0.9410   29.0398 C.ar    1  UNL1       -0.0231
      2 C           3.0558    1.3103   30.4067 C.ar    1  UNL1       -0.0246
      3 C           3.8921    2.5413   30.5940 C.ar    1  UNL1       -0.0045
      4 C           4.2332    3.4030   29.4146 C.ar    1  UNL1       -0.0002
      5 C           3.7379    3.0337   28.0478 C.ar    1  UNL1        0.0027
      6 C           2.9015    1.8026   27.8604 C.ar    1  UNL1        0.0322
      7 C           2.4062    1.4333   26.4935 C.ar    1  UNL1        0.1700
      8 N           1.1010    1.8535   25.8853 N.ar    1  UNL1       -0.1885
      9 S           1.0174    1.2589   24.5108 S.2     1  UNL1        0.0341
     10 C           2.2709    0.4711   24.2694 C.ar    1  UNL1        0.1299
     11 N           3.1292    0.5790   25.4948 N.ar    1  UNL1       -0.2181
     12 C           2.6070   -0.2906   23.0217 C.ar    1  UNL1        0.0259
     13 C           1.9166    0.0405   21.7319 C.ar    1  UNL1        0.0018
     14 C           2.2527   -0.7212   20.4843 C.ar    1  UNL1       -0.0035
     15 C           3.2792   -1.8142   20.5264 C.ar    1  UNL1       -0.0126
     16 C           3.9696   -2.1454   21.8162 C.ar    1  UNL1        0.0645
     17 C           3.6335   -1.3836   23.0639 C.ar    1  UNL1        0.0120
     18 C           4.9961   -3.2383   21.8584 C.1     1  UNL1        0.1001
     19 N           6.0226   -4.3312   21.9005 N.1     1  UNL1       -0.1908
     20 C           3.6153   -2.5760   19.2787 C.3     1  UNL1        0.0270
     21 C           4.5350   -1.9746   18.2577 C.3     1  UNL1        0.0044
     22 C           5.9944   -2.3211   18.2662 C.3     1  UNL1        0.0003
     23 C           3.9953   -1.0266   17.2280 C.3     1  UNL1        0.0003
     24 C           0.2282   -0.1961   28.9082 C.3     1  UNL1        0.0050
     25 C           1.7241   -0.2901   28.8525 C.3     1  UNL1        0.0261
     26 C           2.7147    0.4486   31.5862 C.3     1  UNL1        0.0433
     27 C           3.8085   -0.1200   32.4408 C.3     1  UNL1        0.0768
     28 N           3.9181    0.2794   33.8826 N.3     1  UNL1       -0.2724
     29 C           4.6161   -0.6202   34.8590 C.3     1  UNL1        0.0725
     30 C           4.7257   -0.2207   36.3007 C.3     1  UNL1        0.0229
     31 C           4.1374    1.0783   36.7659 C.3     1  UNL1        0.0393
     32 C           3.4395    1.9779   35.7894 C.3     1  UNL1        0.0229
     33 C           3.3298    1.5785   34.3477 C.3     1  UNL1        0.0725
     34 C           4.2471    1.4777   38.2076 C.2     1  UNL1        0.0501
     35 O           3.3292    0.8696   39.2262 O.co2   1  UNL1       -0.5492
     36 O           5.2746    2.4853   38.6306 O.co2   1  UNL1       -0.5492
@<TRIPOS>UNITY_ATOM_ATTR
35 1
charge -1
@<TRIPOS>BOND
     1    24    25    1
     2    25     1    1
     3     1     2   ar
     4     2    26    1
     5    26    27    1
     6    27    28    1
     7    28    29    1
     8    29    30    1
     9    30    31    1
    10    31    34    1
    11    34    35   ar
    12    34    36   ar
    13    31    32    1
    14    32    33    1
    15     2     3   ar
    16     3     4   ar
    17     4     5   ar
    18     5     6   ar
    19     6     7    1
    20     7     8   ar
    21     8     9   ar
    22     9    10   ar
    23    10    12    1
    24    12    13   ar
    25    13    14   ar
    26    14    15   ar
    27    15    20    1
    28    20    21    1
    29    21    22    1
    30    21    23    1
    31    15    16   ar
    32    16    18    1
    33    18    19    3
    34    16    17   ar
    35    10    11   ar
    36     6     1   ar
    37    11     7   ar
    38    33    28    1
    39    17    12   ar
@<TRIPOS>MOLECULE
*****
 36 39 0 0 0
SMALL
GASTEIGER

@<TRIPOS>ATOM
      1 C           6.2522   -3.4783   19.9968 C.ar    1  UNL1       -0.0231
      2 C           6.0449   -2.6076   18.7931 C.ar    1  UNL1       -0.0246
      3 C           7.1653   -1.7480   18.2873 C.ar    1  UNL1       -0.0045
      4 C           8.4930   -1.7592   18.9851 C.ar    1  UNL1       -0.0002
      5 C           8.7003   -2.6299   20.1887 C.ar    1  UNL1        0.0027
      6 C           7.5800   -3.4894   20.6946 C.ar    1  UNL1        0.0322
      7 C           7.7874   -4.3602   21.8983 C.ar    1  UNL1        0.1700
      8 N           8.4390   -5.7112   21.9075 N.ar    1  UNL1       -0.1885
      9 S           8.4339   -6.2187   23.3190 S.2     1  UNL1        0.0341
     10 C           7.7791   -5.1813   24.1822 C.ar    1  UNL1        0.1299
     11 N           7.3795   -4.0327   23.3042 N.ar    1  UNL1       -0.2181
     12 C           7.5619   -5.2760   25.6634 C.ar    1  UNL1        0.0259
     13 C           7.8797   -6.5503   26.3880 C.ar    1  UNL1        0.0018
     14 C           7.6625   -6.6449   27.8692 C.ar    1  UNL1       -0.0035
     15 C           7.1277   -5.4653   28.6257 C.ar    1  UNL1       -0.0126
     16 C           6.8100   -4.1909   27.9011 C.ar    1  UNL1        0.0645
     17 C           7.0271   -4.0963   26.4199 C.ar    1  UNL1        0.0120
     18 C           6.2752   -3.0112   28.6576 C.1     1  UNL1        0.1001
     19 N           5.7404   -1.8316   29.4141 N.1     1  UNL1       -0.1908
     20 C           6.9106   -5.5599   30.1069 C.3     1  UNL1        0.0270
     21 C           8.0535   -5.3232   31.0491 C.3     1  UNL1        0.0044
     22 C           9.0236   -6.4287   31.3442 C.3     1  UNL1        0.0003
     23 C           8.2266   -3.9810   31.6962 C.3     1  UNL1        0.0003
     24 C           4.3117   -3.8877   21.6750 C.3     1  UNL1        0.0050
     25 C           5.1319   -4.3379   20.5026 C.3     1  UNL1        0.0261
     26 C           4.7171   -2.5965   18.0952 C.3     1  UNL1        0.0433
     27 C           4.1008   -1.2946   17.6765 C.3     1  UNL1        0.0768
     28 N           3.1134   -0.6093   18.5739 N.3     1  UNL1       -0.2724
     29 C           2.7743   -1.2039   19.9086 C.3     1  UNL1        0.0725
     30 C           1.7869   -0.5185   20.8059 C.3     1  UNL1        0.0229
     31 C           1.1385    0.7615   20.3685 C.3     1  UNL1        0.0393
     32 C           1.4776    1.3561   19.0338 C.3     1  UNL1        0.0229
     33 C           2.4650    0.6707   18.1365 C.3     1  UNL1        0.0725
     34 C           0.1511    1.4469   21.2659 C.2     1  UNL1        0.0501
     35 O           0.3788    1.4756   22.7482 O.co2   1  UNL1       -0.5492
     36 O          -1.0641    2.1035   20.6809 O.co2   1  UNL1       -0.5492
@<TRIPOS>UNITY_ATOM_ATTR
35 1
charge -1
@<TRIPOS>BOND
     1    24    25    1
     2    25     1    1
     3     1     2   ar
     4     2    26    1
     5    26    27    1
     6    27    28    1
     7    28    29    1
     8    29    30    1
     9    30    31    1
    10    31    34    1
    11    34    35   ar
    12    34    36   ar
    13    31    32    1
    14    32    33    1
    15     2     3   ar
    16     3     4   ar
    17     4     5   ar
    18     5     6   ar
    19     6     7    1
    20     7     8   ar
    21     8     9   ar
    22     9    10   ar
    23    10    12    1
    24    12    13   ar
    25    13    14   ar
    26    14    15   ar
    27    15    20    1
    28    20    21    1
    29    21    22    1
    30    21    23    1
    31    15    16   ar
    32    16    18    1
    33    18    19    3
    34    16    17   ar
    35    10    11   ar
    36     6     1   ar
    37    11     7   ar
    38    33    28    1
    39    17    12   ar
@<TRIPOS>MOLECULE
*****
 36 39 0 0 0
SMALL
GASTEIGER

@<TRIPOS>ATOM
      1 C           7.0976   -5.0821   26.3746 C.ar    1  UNL1       -0.0231
      2 C           7.4708   -6.3078   27.1546 C.ar    1  UNL1       -0.0246
      3 C           8.0169   -7.5111   26.4448 C.ar    1  UNL1       -0.0045
      4 C           8.1897   -7.4888   24.9550 C.ar    1  UNL1       -0.0002
      5 C           7.8164   -6.2631   24.1750 C.ar    1  UNL1        0.0027
      6 C           7.2704   -5.0598   24.8848 C.ar    1  UNL1        0.0322
      7 C           6.8972   -3.8341   24.1048 C.ar    1  UNL1        0.1700
      8 N           7.7141   -2.5817   23.9862 N.ar    1  UNL1       -0.1885
      9 S           6.9633   -1.6193   23.1145 S.2     1  UNL1        0.0341
     10 C           5.6822   -2.2768   22.6942 C.ar    1  UNL1        0.1299
     11 N           5.6414   -3.6457   23.3063 N.ar    1  UNL1       -0.2181
     12 C           4.6273   -1.6718   21.8162 C.ar    1  UNL1        0.0259
     13 C           3.4022   -1.0600   22.4285 C.ar    1  UNL1        0.0018
     14 C           2.3473   -0.4550   21.5504 C.ar    1  UNL1       -0.0035
     15 C           2.5174   -0.4617   20.0601 C.ar    1  UNL1       -0.0126
     16 C           3.7425   -1.0734   19.4478 C.ar    1  UNL1        0.0645
     17 C           4.7975   -1.6785   20.3259 C.ar    1  UNL1        0.0120
     18 C           3.9127   -1.0801   17.9575 C.1     1  UNL1        0.1001
     19 N           4.0829   -1.0868   16.4673 N.1     1  UNL1       -0.1908
     20 C           1.4625    0.1434   19.1820 C.3     1  UNL1        0.0270
     21 C           1.5008    1.6089   18.8647 C.3     1  UNL1        0.0044
     22 C           0.2215    2.3697   18.6784 C.3     1  UNL1        0.0003
     23 C           2.8184    2.3139   18.7338 C.3     1  UNL1        0.0003
     24 C           7.4852   -2.8228   27.5974 C.3     1  UNL1        0.0050
     25 C           6.5516   -3.8788   27.0845 C.3     1  UNL1        0.0261
     26 C           7.2980   -6.3302   28.6445 C.3     1  UNL1        0.0433
     27 C           8.4442   -5.9590   29.5381 C.3     1  UNL1        0.0768
     28 N           8.3126   -4.8040   30.4861 N.3     1  UNL1       -0.2724
     29 C           9.5106   -3.9632   30.8146 C.3     1  UNL1        0.0725
     30 C           9.3790   -2.8082   31.7625 C.3     1  UNL1        0.0229
     31 C           8.0495   -2.4940   32.3820 C.3     1  UNL1        0.0393
     32 C           6.8516   -3.3348   32.0535 C.3     1  UNL1        0.0229
     33 C           6.9831   -4.4898   31.1056 C.3     1  UNL1        0.0725
     34 C           7.9180   -1.3389   33.3299 C.2     1  UNL1        0.0501
     35 O           9.0029   -1.0601   34.3275 O.co2   1  UNL1       -0.5492
     36 O           6.7015   -0.4627   33.2803 O.co2   1  UNL1       -0.5492
@<TRIPOS>UNITY_ATOM_ATTR
35 1
charge -1
@<TRIPOS>BOND
     1    24    25    1
     2    25     1    1
     3     1     2   ar
     4     2    26    1
     5    26    27    1
     6    27    28    1
     7    28    29    1
     8    29    30    1
     9    30    31    1
    10    31    34    1
    11    34    35   ar
    12    34    36   ar
    13    31    32    1
    14    32    33    1
    15     2     3   ar
    16     3     4   ar
    17     4     5   ar
    18     5     6   ar
    19     6     7    1
    20     7     8   ar
    21     8     9   ar
    22     9    10   ar
    23    10    12    1
    24    12    13   ar
    25    13    14   ar
    26    14    15   ar
    27    15    20    1
    28    20    21    1
    29    21    22    1
    30    21    23    1
    31    15    16   ar
    32    16    18    1
    33    18    19    3
    34    16    17   ar
    35    10    11   ar
    36     6     1   ar
    37    11     7   ar
    38    33    28    1
    39    17    12   ar
@<TRIPOS>MOLECULE
*****
 36 39 0 0 0
SMALL
GASTEIGER

@<TRIPOS>ATOM
      1 C           5.0822   -2.1747   20.5234 C.ar    1  UNL1       -0.0231
      2 C           5.9444   -3.3935   20.3780 C.ar    1  UNL1       -0.0246
      3 C           5.4148   -4.6070   19.6732 C.ar    1  UNL1       -0.0045
      4 C           4.0231   -4.6018   19.1137 C.ar    1  UNL1       -0.0002
      5 C           3.1609   -3.3830   19.2591 C.ar    1  UNL1        0.0027
      6 C           3.6905   -2.1695   19.9639 C.ar    1  UNL1        0.0322
      7 C           2.8283   -0.9506   20.1093 C.ar    1  UNL1        0.1700
      8 N           2.4552    0.0014   19.0119 N.ar    1  UNL1       -0.1885
      9 S           1.5841    1.0705   19.6020 S.2     1  UNL1        0.0341
     10 C           1.4188    0.7792   21.0642 C.ar    1  UNL1        0.1299
     11 N           2.1878   -0.4699   21.3777 N.ar    1  UNL1       -0.2181
     12 C           0.6241    1.5940   22.0412 C.ar    1  UNL1        0.0259
     13 C          -0.1505    2.7878   21.5670 C.ar    1  UNL1        0.0018
     14 C          -0.9451    3.6026   22.5440 C.ar    1  UNL1       -0.0035
     15 C          -0.9652    3.2235   23.9952 C.ar    1  UNL1       -0.0126
     16 C          -0.1907    2.0297   24.4694 C.ar    1  UNL1        0.0645
     17 C           0.6040    1.2150   23.4924 C.ar    1  UNL1        0.0120
     18 C          -0.2108    1.6507   25.9206 C.1     1  UNL1        0.1001
     19 N          -0.2309    1.2717   27.3717 N.1     1  UNL1       -0.1908
     20 C          -1.7599    4.0383   24.9723 C.3     1  UNL1        0.0270
     21 C          -3.2047    3.7172   25.2163 C.3     1  UNL1        0.0044
     22 C          -3.7710    3.8146   26.6019 C.3     1  UNL1        0.0003
     23 C          -4.0833    3.2989   24.0748 C.3     1  UNL1        0.0003
     24 C           6.2841    0.1274   20.4451 C.3     1  UNL1        0.0050
     25 C           5.6118   -0.9611   21.2282 C.3     1  UNL1        0.0261
     26 C           7.3362   -3.3987   20.9375 C.3     1  UNL1        0.0433
     27 C           8.0447   -4.6996   21.1736 C.3     1  UNL1        0.0768
     28 N           7.9854   -5.3518   22.5231 N.3     1  UNL1       -0.2724
     29 C           7.2677   -4.6743   23.6526 C.3     1  UNL1        0.0725
     30 C           7.2084   -5.3265   25.0021 C.3     1  UNL1        0.0229
     31 C           7.8667   -6.6563   25.2220 C.3     1  UNL1        0.0393
     32 C           8.5844   -7.3338   24.0924 C.3     1  UNL1        0.0229
     33 C           8.6437   -6.6815   22.7430 C.3     1  UNL1        0.0725
     34 C           7.8074   -7.3085   26.5715 C.2     1  UNL1        0.0501
     35 O           7.4840   -8.7688   26.6851 O.co2   1  UNL1       -0.5492
     36 O           8.0714   -6.5004   27.8073 O.co2   1  UNL1       -0.5492
@<TRIPOS>UNITY_ATOM_ATTR
35 1
charge -1
@<TRIPOS>BOND
     1    24    25    1
     2    25     1    1
     3     1     2   ar
     4     2    26    1
     5    26    27    1
     6    27    28    1
     7    28    29    1
     8    29    30    1
     9    30    31    1
    10    31    34    1
    11    34    35   ar
    12    34    36   ar
    13    31    32    1
    14    32    33    1
    15     2     3   ar
    16     3     4   ar
    17     4     5   ar
    18     5     6   ar
    19     6     7    1
    20     7     8   ar
    21     8     9   ar
    22     9    10   ar
    23    10    12    1
    24    12    13   ar
    25    13    14   ar
    26    14    15   ar
    27    15    20    1
    28    20    21    1
    29    21    22    1
    30    21    23    1
    31    15    16   ar
    32    16    18    1
    33    18    19    3
    34    16    17   ar
    35    10    11   ar
    36     6     1   ar
    37    11     7   ar
    38    33    28    1
    39    17    12   ar
@<TRIPOS>MOLECULE
*****
 36 39 0 0 0
SMALL
GASTEIGER

@<TRIPOS>ATOM
      1 C           6.2903   -2.9854   20.2676 C.ar    1  UNL1       -0.0231
      2 C           5.6700   -2.7693   18.9191 C.ar    1  UNL1       -0.0246
      3 C           4.3487   -3.3993   18.5916 C.ar    1  UNL1       -0.0045
      4 C           3.6477   -4.2455   19.6125 C.ar    1  UNL1       -0.0002
      5 C           4.2680   -4.4617   20.9610 C.ar    1  UNL1        0.0027
      6 C           5.5893   -3.8317   21.2886 C.ar    1  UNL1        0.0322
      7 C           6.2095   -4.0479   22.6371 C.ar    1  UNL1        0.1700
      8 N           7.2752   -5.0506   22.9670 N.ar    1  UNL1       -0.1885
      9 S           7.5972   -4.9217   24.4263 S.2     1  UNL1        0.0341
     10 C           6.7306   -3.8393   24.9984 C.ar    1  UNL1        0.1299
     11 N           5.8729   -3.2992   23.8927 N.ar    1  UNL1       -0.2181
     12 C           6.7229   -3.3780   26.4257 C.ar    1  UNL1        0.0259
     13 C           6.6693   -1.9122   26.7398 C.ar    1  UNL1        0.0018
     14 C           6.6617   -1.4509   28.1671 C.ar    1  UNL1       -0.0035
     15 C           6.7077   -2.4553   29.2802 C.ar    1  UNL1       -0.0126
     16 C           6.7613   -3.9210   28.9661 C.ar    1  UNL1        0.0645
     17 C           6.7689   -4.3824   27.5388 C.ar    1  UNL1        0.0120
     18 C           6.8072   -4.9255   30.0792 C.1     1  UNL1        0.1001
     19 N           6.8532   -5.9298   31.1923 N.1     1  UNL1       -0.1908
     20 C           6.7000   -1.9940   30.7075 C.3     1  UNL1        0.0270
     21 C           5.4008   -1.8572   31.4445 C.3     1  UNL1        0.0044
     22 C           4.3736   -0.8691   30.9767 C.3     1  UNL1        0.0003
     23 C           5.1285   -2.7083   32.6492 C.3     1  UNL1        0.0003
     24 C           8.8870   -3.0687   20.2570 C.3     1  UNL1        0.0050
     25 C           7.6115   -2.3554   20.5951 C.3     1  UNL1        0.0261
     26 C           6.3710   -1.9230   17.8980 C.3     1  UNL1        0.0433
     27 C           5.9464   -0.5004   17.6837 C.3     1  UNL1        0.0768
     28 N           4.6906    0.0121   18.3243 N.3     1  UNL1       -0.2724
     29 C           4.7442    0.6340   19.6882 C.3     1  UNL1        0.0725
     30 C           3.4883    1.1464   20.3286 C.3     1  UNL1        0.0229
     31 C           2.1789    1.0370   19.6052 C.3     1  UNL1        0.0393
     32 C           2.1253    0.4151   18.2413 C.3     1  UNL1        0.0229
     33 C           3.3811   -0.0974   17.6008 C.3     1  UNL1        0.0725
     34 C           0.9230    1.5495   20.2457 C.2     1  UNL1        0.0501
     35 O          -0.1794    0.5970   20.6027 O.co2   1  UNL1       -0.5492
     36 O           0.7696    3.0144   20.5292 O.co2   1  UNL1       -0.5492
@<TRIPOS>UNITY_ATOM_ATTR
35 1
charge -1
@<TRIPOS>BOND
     1    24    25    1
     2    25     1    1
     3     1     2   ar
     4     2    26    1
     5    26    27    1
     6    27    28    1
     7    28    29    1
     8    29    30    1
     9    30    31    1
    10    31    34    1
    11    34    35   ar
    12    34    36   ar
    13    31    32    1
    14    32    33    1
    15     2     3   ar
    16     3     4   ar
    17     4     5   ar
    18     5     6   ar
    19     6     7    1
    20     7     8   ar
    21     8     9   ar
    22     9    10   ar
    23    10    12    1
    24    12    13   ar
    25    13    14   ar
    26    14    15   ar
    27    15    20    1
    28    20    21    1
    29    21    22    1
    30    21    23    1
    31    15    16   ar
    32    16    18    1
    33    18    19    3
    34    16    17   ar
    35    10    11   ar
    36     6     1   ar
    37    11     7   ar
    38    33    28    1
    39    17    12   ar
