@<TRIPOS>MOLECULE
*****
 34 35 0 0 0
SMALL
GASTEIGER

@<TRIPOS>ATOM
      1 C           7.9820   -5.3635   27.9786 C.ar    1  UNL1        0.1389
      2 N           7.9074   -6.8271   28.2986 N.ar    1  UNL1       -0.2229
      3 C           8.3486   -7.8400   27.2841 C.ar    1  UNL1        0.1740
      4 C           8.8644   -7.3895   25.9496 C.ar    1  UNL1        0.2130
      5 O           9.3056   -8.4025   24.9351 O.3     1  UNL1       -0.5006
      6 C           8.9390   -5.9259   25.6296 C.ar    1  UNL1        0.2973
      7 O           9.4549   -5.4753   24.2951 O.2     1  UNL1       -0.2636
      8 N           8.4978   -4.9130   26.6442 N.ar    1  UNL1       -0.2783
      9 C           8.5725   -3.4493   26.3241 C.3     1  UNL1        0.1349
     10 H           9.2589   -9.3167   25.1350 H       1  UNL1        0.2924
     11 C           8.2739   -9.3037   27.6041 C.2     1  UNL1        0.2671
     12 O           9.5285  -10.0730   27.8938 O.2     1  UNL1       -0.2684
     13 N           6.9445   -9.9979   27.6344 N.am    1  UNL1       -0.2956
     14 H           6.1211   -9.4929   27.4442 H       1  UNL1        0.1501
     15 C           6.8698  -11.4614   27.9544 C.3     1  UNL1        0.1166
     16 C           5.5407  -12.1561   27.9825 C.ar    1  UNL1       -0.0024
     17 C           5.1557  -13.0841   26.8687 C.ar    1  UNL1       -0.0003
     18 C           3.8266  -13.7788   26.8968 C.ar    1  UNL1        0.0294
     19 C           2.8824  -13.5455   28.0387 C.ar    1  UNL1        0.1401
     20 F           1.5533  -14.2402   28.0669 F       1  UNL1       -0.2042
     21 C           3.2674  -12.6175   29.1526 C.ar    1  UNL1        0.0294
     22 C           4.5965  -11.9228   29.1245 C.ar    1  UNL1       -0.0003
     23 C           7.5408   -4.3506   28.9931 C.3     1  UNL1        0.1078
     24 C           8.9414   -4.2727   29.5244 C.3     1  UNL1        0.0274
     25 C           6.1402   -4.4285   28.4618 C.3     1  UNL1        0.0274
     26 C           6.7164   -3.7778   31.3894 C.2     1  UNL1        0.3000
     27 O           6.7744   -5.2310   31.7567 O.2     1  UNL1       -0.2652
     28 N           7.0996   -3.3376   30.0076 N.am    1  UNL1       -0.2939
     29 H           7.0616   -2.3838   29.7666 H       1  UNL1        0.1502
     30 C           6.8196   -0.7650   33.9706 C.3     1  UNL1        0.1154
     31 N           7.2608   -1.7780   32.9561 N.am    1  UNL1       -0.2689
     32 C           8.6875   -1.8042   32.4938 C.3     1  UNL1        0.1154
     33 C           6.2752   -2.7648   32.4039 C.2     1  UNL1        0.3028
     34 O           4.8485   -2.7386   32.8662 O.2     1  UNL1       -0.2649
@<TRIPOS>BOND
     1    30    31    1
     2    31    32    1
     3    31    33   am
     4    33    34    2
     5    33    26    1
     6    26    27    2
     7    26    28   am
     8    28    23    1
     9    23    24    1
    10    23    25    1
    11    23     1    1
    12     1     2   ar
    13     2     3   ar
    14     3    11    1
    15    11    12    2
    16    11    13   am
    17    13    15    1
    18    15    16    1
    19    16    17   ar
    20    17    18   ar
    21    18    19   ar
    22    19    20    1
    23    19    21   ar
    24    21    22   ar
    25     3     4   ar
    26     4     5    1
    27     4     6   ar
    28     6     7    2
    29     6     8   ar
    30     8     9    1
    31     8     1   ar
    32    22    16   ar
    33    28    29    1
    34    13    14    1
    35     5    10    1
@<TRIPOS>MOLECULE
*****
 34 35 0 0 0
SMALL
GASTEIGER

@<TRIPOS>ATOM
      1 C          -2.7757    3.9481   20.3116 C.ar    1  UNL1        0.1389
      2 N          -1.9339    2.8460   20.8831 N.ar    1  UNL1       -0.2229
      3 C          -0.7076    2.3836   20.1534 C.ar    1  UNL1        0.1740
      4 C          -0.3232    3.0232   18.8523 C.ar    1  UNL1        0.2130
      5 O           0.9031    2.5607   18.1226 O.3     1  UNL1       -0.5006
      6 C          -1.1650    4.1253   18.2808 C.ar    1  UNL1        0.2973
      7 O          -0.7806    4.7649   16.9795 O.2     1  UNL1       -0.2636
      8 N          -2.3913    4.5877   19.0104 N.ar    1  UNL1       -0.2783
      9 C          -3.2332    5.6898   18.4388 C.3     1  UNL1        0.1349
     10 H           1.4290    1.8723   18.4797 H       1  UNL1        0.2924
     11 C           0.1343    1.2815   20.7250 C.2     1  UNL1        0.2671
     12 O           0.4020    1.2301   22.2000 O.2     1  UNL1       -0.2684
     13 N           0.7084    0.2307   19.8215 N.am    1  UNL1       -0.2956
     14 H           0.5327    0.2644   18.8534 H       1  UNL1        0.1501
     15 C           1.5503   -0.8714   20.3931 C.3     1  UNL1        0.1166
     16 C           2.8030   -1.3007   19.6885 C.ar    1  UNL1       -0.0024
     17 C           3.5572   -2.5057   20.1669 C.ar    1  UNL1       -0.0003
     18 C           4.8099   -2.9350   19.4624 C.ar    1  UNL1        0.0294
     19 C           5.3084   -2.1592   18.2793 C.ar    1  UNL1        0.1401
     20 F           6.5611   -2.5885   17.5747 F       1  UNL1       -0.2042
     21 C           4.5542   -0.9541   17.8008 C.ar    1  UNL1        0.0294
     22 C           3.3015   -0.5248   18.5054 C.ar    1  UNL1       -0.0003
     23 C          -4.0020    4.4106   21.0412 C.3     1  UNL1        0.1078
     24 C          -3.1724    5.3943   21.8119 C.3     1  UNL1        0.0274
     25 C          -4.8316    3.4268   20.2705 C.3     1  UNL1        0.0274
     26 C          -5.6548    4.1835   23.0328 C.2     1  UNL1        0.3000
     27 O          -4.8551    3.0315   23.5652 O.2     1  UNL1       -0.2652
     28 N          -5.2283    4.8730   21.7709 N.am    1  UNL1       -0.2939
     29 H          -5.7532    5.6291   21.4215 H       1  UNL1        0.1502
     30 C          -7.9831    6.0855   25.6235 C.3     1  UNL1        0.1154
     31 N          -6.7569    5.6231   24.8939 N.am    1  UNL1       -0.2689
     32 C          -5.4064    6.1376   25.2955 C.3     1  UNL1        0.1154
     33 C          -6.8811    4.6460   23.7625 C.2     1  UNL1        0.3028
     34 O          -8.2316    4.1314   23.3608 O.2     1  UNL1       -0.2649
@<TRIPOS>BOND
     1    30    31    1
     2    31    32    1
     3    31    33   am
     4    33    34    2
     5    33    26    1
     6    26    27    2
     7    26    28   am
     8    28    23    1
     9    23    24    1
    10    23    25    1
    11    23     1    1
    12     1     2   ar
    13     2     3   ar
    14     3    11    1
    15    11    12    2
    16    11    13   am
    17    13    15    1
    18    15    16    1
    19    16    17   ar
    20    17    18   ar
    21    18    19   ar
    22    19    20    1
    23    19    21   ar
    24    21    22   ar
    25     3     4   ar
    26     4     5    1
    27     4     6   ar
    28     6     7    2
    29     6     8   ar
    30     8     9    1
    31     8     1   ar
    32    22    16   ar
    33    28    29    1
    34    13    14    1
    35     5    10    1
@<TRIPOS>MOLECULE
*****
 34 35 0 0 0
SMALL
GASTEIGER

@<TRIPOS>ATOM
      1 C           4.5396   -1.9643   20.3433 C.ar    1  UNL1        0.1389
      2 N           3.4554   -1.2926   21.1328 N.ar    1  UNL1       -0.2229
      3 C           2.4218   -0.4620   20.4316 C.ar    1  UNL1        0.1740
      4 C           2.4724   -0.3030   18.9409 C.ar    1  UNL1        0.2130
      5 O           1.4388    0.5276   18.2397 O.3     1  UNL1       -0.5006
      6 C           3.5567   -0.9747   18.1515 C.ar    1  UNL1        0.2973
      7 O           3.6073   -0.8157   16.6607 O.2     1  UNL1       -0.2636
      8 N           4.5903   -1.8053   18.8527 N.ar    1  UNL1       -0.2783
      9 C           5.6745   -2.4770   18.0631 C.3     1  UNL1        0.1349
     10 H           0.7615    0.9472   18.7329 H       1  UNL1        0.2924
     11 C           1.3375    0.2097   21.2211 C.2     1  UNL1        0.2671
     12 O          -0.0751    0.1971   20.7168 O.2     1  UNL1       -0.2684
     13 N           1.6659    0.8938   22.5150 N.am    1  UNL1       -0.2956
     14 H           2.5931    0.9021   22.8460 H       1  UNL1        0.1501
     15 C           0.5818    1.5655   23.3045 C.3     1  UNL1        0.1166
     16 C           0.5863    1.4869   24.8024 C.ar    1  UNL1       -0.0024
     17 C           1.8129    1.0143   25.5250 C.ar    1  UNL1       -0.0003
     18 C           1.8174    0.9358   27.0229 C.ar    1  UNL1        0.0294
     19 C           0.5953    1.3299   27.7983 C.ar    1  UNL1        0.1401
     20 F           0.5999    1.2513   29.2963 F       1  UNL1       -0.2042
     21 C          -0.6313    1.8025   27.0758 C.ar    1  UNL1        0.0294
     22 C          -0.6359    1.8810   25.5778 C.ar    1  UNL1       -0.0003
     23 C           5.5732   -2.7949   21.0445 C.3     1  UNL1        0.1078
     24 C           6.4229   -1.5741   21.2384 C.3     1  UNL1        0.0274
     25 C           4.7236   -4.0158   20.8507 C.3     1  UNL1        0.0274
     26 C           6.4864   -3.8872   23.2178 C.2     1  UNL1        0.3000
     27 O           5.3323   -3.3181   23.9888 O.2     1  UNL1       -0.2652
     28 N           6.6069   -3.6256   21.7458 N.am    1  UNL1       -0.2939
     29 H           7.3643   -3.9991   21.2398 H       1  UNL1        0.1502
     30 C           9.5022   -4.9054   25.5882 C.3     1  UNL1        0.1154
     31 N           8.4686   -4.0748   24.8869 N.am    1  UNL1       -0.2689
     32 C           8.3835   -2.6012   25.1536 C.3     1  UNL1        0.1154
     33 C           7.5200   -4.7178   23.9190 C.2     1  UNL1        0.3028
     34 O           7.6051   -6.1914   23.6523 O.2     1  UNL1       -0.2649
@<TRIPOS>BOND
     1    30    31    1
     2    31    32    1
     3    31    33   am
     4    33    34    2
     5    33    26    1
     6    26    27    2
     7    26    28   am
     8    28    23    1
     9    23    24    1
    10    23    25    1
    11    23     1    1
    12     1     2   ar
    13     2     3   ar
    14     3    11    1
    15    11    12    2
    16    11    13   am
    17    13    15    1
    18    15    16    1
    19    16    17   ar
    20    17    18   ar
    21    18    19   ar
    22    19    20    1
    23    19    21   ar
    24    21    22   ar
    25     3     4   ar
    26     4     5    1
    27     4     6   ar
    28     6     7    2
    29     6     8   ar
    30     8     9    1
    31     8     1   ar
    32    22    16   ar
    33    28    29    1
    34    13    14    1
    35     5    10    1
@<TRIPOS>MOLECULE
*****
 34 35 0 0 0
SMALL
GASTEIGER

@<TRIPOS>ATOM
      1 C           3.9005   -0.2973   20.2080 C.ar    1  UNL1        0.1389
      2 N           5.1172   -1.0207   20.7044 N.ar    1  UNL1       -0.2229
      3 C           6.0257   -1.7144   19.7331 C.ar    1  UNL1        0.1740
      4 C           5.7175   -1.6847   18.2655 C.ar    1  UNL1        0.2130
      5 O           6.6260   -2.3784   17.2942 O.3     1  UNL1       -0.5006
      6 C           4.5009   -0.9614   17.7691 C.ar    1  UNL1        0.2973
      7 O           4.1927   -0.9317   16.3013 O.2     1  UNL1       -0.2636
      8 N           3.5924   -0.2677   18.7403 N.ar    1  UNL1       -0.2783
      9 C           2.3756    0.4557   18.2439 C.3     1  UNL1        0.1349
     10 H           7.3861   -2.8303   17.6043 H       1  UNL1        0.2924
     11 C           7.2424   -2.4378   20.2296 C.2     1  UNL1        0.2671
     12 O           8.5221   -2.3758   19.4496 O.2     1  UNL1       -0.2684
     13 N           7.1793   -3.2231   21.5061 N.am    1  UNL1       -0.2956
     14 H           6.3393   -3.2637   22.0180 H       1  UNL1        0.1501
     15 C           8.3959   -3.9464   22.0025 C.3     1  UNL1        0.1166
     16 C           8.2542   -5.0477   23.0111 C.ar    1  UNL1       -0.0024
     17 C           7.4694   -4.8170   24.2683 C.ar    1  UNL1       -0.0003
     18 C           7.3277   -5.9183   25.2768 C.ar    1  UNL1        0.0294
     19 C           7.9709   -7.2503   25.0281 C.ar    1  UNL1        0.1401
     20 F           7.8293   -8.3516   26.0366 F       1  UNL1       -0.2042
     21 C           8.7558   -7.4811   23.7708 C.ar    1  UNL1        0.0294
     22 C           8.8975   -6.3798   22.7623 C.ar    1  UNL1       -0.0003
     23 C           2.9920    0.3964   21.1793 C.3     1  UNL1        0.1078
     24 C           3.9065    1.5854   21.1855 C.3     1  UNL1        0.0274
     25 C           2.0775   -0.7926   21.1731 C.3     1  UNL1        0.0274
     26 C           2.2494    0.8657   23.6244 C.2     1  UNL1        0.3000
     27 O           3.3240   -0.0525   24.1269 O.2     1  UNL1       -0.2652
     28 N           2.0835    1.0901   22.1506 N.am    1  UNL1       -0.2939
     29 H           1.3783    1.6927   21.8208 H       1  UNL1        0.1502
     30 C           0.8095    3.5960   26.1188 C.3     1  UNL1        0.1154
     31 N           1.7180    2.9023   25.1475 N.am    1  UNL1       -0.2689
     32 C           3.0036    3.5514   24.7282 C.3     1  UNL1        0.1154
     33 C           1.3409    1.5594   24.5956 C.2     1  UNL1        0.3028
     34 O           0.0554    0.9103   25.0150 O.2     1  UNL1       -0.2649
@<TRIPOS>BOND
     1    30    31    1
     2    31    32    1
     3    31    33   am
     4    33    34    2
     5    33    26    1
     6    26    27    2
     7    26    28   am
     8    28    23    1
     9    23    24    1
    10    23    25    1
    11    23     1    1
    12     1     2   ar
    13     2     3   ar
    14     3    11    1
    15    11    12    2
    16    11    13   am
    17    13    15    1
    18    15    16    1
    19    16    17   ar
    20    17    18   ar
    21    18    19   ar
    22    19    20    1
    23    19    21   ar
    24    21    22   ar
    25     3     4   ar
    26     4     5    1
    27     4     6   ar
    28     6     7    2
    29     6     8   ar
    30     8     9    1
    31     8     1   ar
    32    22    16   ar
    33    28    29    1
    34    13    14    1
    35     5    10    1
@<TRIPOS>MOLECULE
*****
 34 35 0 0 0
SMALL
GASTEIGER

@<TRIPOS>ATOM
      1 C           6.8831   -2.9318   30.2826 C.ar    1  UNL1        0.1389
      2 N           6.3961   -2.0576   29.1653 N.ar    1  UNL1       -0.2229
      3 C           6.2039   -2.6318   27.7929 C.ar    1  UNL1        0.1740
      4 C           6.4988   -4.0802   27.5379 C.ar    1  UNL1        0.2130
      5 O           6.3066   -4.6544   26.1655 O.3     1  UNL1       -0.5006
      6 C           6.9859   -4.9544   28.6552 C.ar    1  UNL1        0.2973
      7 O           7.2808   -6.4029   28.4002 O.2     1  UNL1       -0.2636
      8 N           7.1780   -4.3802   30.0276 N.ar    1  UNL1       -0.2783
      9 C           7.6651   -5.2545   31.1449 C.3     1  UNL1        0.1349
     10 H           6.0024   -4.1082   25.4676 H       1  UNL1        0.2924
     11 C           5.7168   -1.7575   26.6756 C.2     1  UNL1        0.2671
     12 O           6.4622   -0.5041   26.3245 O.2     1  UNL1       -0.2684
     13 N           4.4842   -2.1366   25.9094 N.am    1  UNL1       -0.2956
     14 H           3.9950   -2.9593   26.1398 H       1  UNL1        0.1501
     15 C           3.9971   -1.2624   24.7921 C.3     1  UNL1        0.1166
     16 C           3.9734   -1.7853   23.3864 C.ar    1  UNL1       -0.0024
     17 C           4.6654   -3.0738   23.0537 C.ar    1  UNL1       -0.0003
     18 C           4.6417   -3.5968   21.6480 C.ar    1  UNL1        0.0294
     19 C           3.9259   -2.8311   20.5750 C.ar    1  UNL1        0.1401
     20 F           3.9022   -3.3540   19.1693 F       1  UNL1       -0.2042
     21 C           3.2339   -1.5425   20.9076 C.ar    1  UNL1        0.0294
     22 C           3.2576   -1.0196   22.3133 C.ar    1  UNL1       -0.0003
     23 C           7.0753   -2.3576   31.6550 C.3     1  UNL1        0.1078
     24 C           5.6649   -2.7274   32.0072 C.3     1  UNL1        0.0274
     25 C           8.4857   -1.9878   31.3028 C.3     1  UNL1        0.0274
     26 C           6.9280   -0.3468   33.2936 C.2     1  UNL1        0.3000
     27 O           6.3962    0.5156   32.1874 O.2     1  UNL1       -0.2652
     28 N           7.2675   -1.7834   33.0273 N.am    1  UNL1       -0.2939
     29 H           7.6165   -2.3495   33.7533 H       1  UNL1        0.1502
     30 C           6.2131    0.7010   37.0541 C.3     1  UNL1        0.1154
     31 N           6.0209    0.1268   35.6817 N.am    1  UNL1       -0.2689
     32 C           4.7296   -0.5479   35.3250 C.3     1  UNL1        0.1154
     33 C           7.1201    0.2273   34.6660 C.2     1  UNL1        0.3028
     34 O           8.4115    0.9020   35.0226 O.2     1  UNL1       -0.2649
@<TRIPOS>BOND
     1    30    31    1
     2    31    32    1
     3    31    33   am
     4    33    34    2
     5    33    26    1
     6    26    27    2
     7    26    28   am
     8    28    23    1
     9    23    24    1
    10    23    25    1
    11    23     1    1
    12     1     2   ar
    13     2     3   ar
    14     3    11    1
    15    11    12    2
    16    11    13   am
    17    13    15    1
    18    15    16    1
    19    16    17   ar
    20    17    18   ar
    21    18    19   ar
    22    19    20    1
    23    19    21   ar
    24    21    22   ar
    25     3     4   ar
    26     4     5    1
    27     4     6   ar
    28     6     7    2
    29     6     8   ar
    30     8     9    1
    31     8     1   ar
    32    22    16   ar
    33    28    29    1
    34    13    14    1
    35     5    10    1
@<TRIPOS>MOLECULE
*****
 34 35 0 0 0
SMALL
GASTEIGER

@<TRIPOS>ATOM
      1 C          -1.9749    3.6006   23.9492 C.ar    1  UNL1        0.1389
      2 N          -1.3479    3.4291   22.5974 N.ar    1  UNL1       -0.2229
      3 C          -0.1288    2.5695   22.4396 C.ar    1  UNL1        0.1740
      4 C           0.4633    1.8814   23.6337 C.ar    1  UNL1        0.2130
      5 O           1.6824    1.0219   23.4759 O.3     1  UNL1       -0.5006
      6 C          -0.1636    2.0529   24.9855 C.ar    1  UNL1        0.2973
      7 O           0.4285    1.3648   26.1797 O.2     1  UNL1       -0.2636
      8 N          -1.3827    2.9125   25.1433 N.ar    1  UNL1       -0.2783
      9 C          -2.0097    3.0839   26.4952 C.3     1  UNL1        0.1349
     10 H           2.0741    0.9148   22.6315 H       1  UNL1        0.2924
     11 C           0.4981    2.3981   21.0877 C.2     1  UNL1        0.2671
     12 O           1.0642    3.5858   20.3674 O.2     1  UNL1       -0.2684
     13 N           0.5591    1.0389   20.4562 N.am    1  UNL1       -0.2956
     14 H           0.1876    0.2593   20.9290 H       1  UNL1        0.1501
     15 C           1.1860    0.8674   19.1043 C.3     1  UNL1        0.1166
     16 C           2.2401   -0.1787   18.8937 C.ar    1  UNL1       -0.0024
     17 C           3.1018   -0.1388   17.6666 C.ar    1  UNL1       -0.0003
     18 C           4.1559   -1.1849   17.4559 C.ar    1  UNL1        0.0294
     19 C           4.3484   -2.2710   18.4725 C.ar    1  UNL1        0.1401
     20 F           5.4026   -3.3171   18.2618 F       1  UNL1       -0.2042
     21 C           3.4868   -2.3110   19.6997 C.ar    1  UNL1        0.0294
     22 C           2.4326   -1.2648   19.9103 C.ar    1  UNL1       -0.0003
     23 C          -3.1940    4.4602   24.1070 C.3     1  UNL1        0.1078
     24 C          -4.0468    3.3493   23.5697 C.3     1  UNL1        0.0274
     25 C          -2.3412    5.5710   24.6443 C.3     1  UNL1        0.0274
     26 C          -5.3263    5.1182   25.4376 C.2     1  UNL1        0.3000
     27 O          -5.0203    4.0570   26.4527 O.2     1  UNL1       -0.2652
     28 N          -4.4131    5.3197   24.2647 N.am    1  UNL1       -0.2939
     29 H          -4.6139    6.0162   23.5985 H       1  UNL1        0.1502
     30 C          -8.9951    6.5490   24.9453 C.3     1  UNL1        0.1154
     31 N          -7.7760    5.6894   24.7875 N.am    1  UNL1       -0.2689
     32 C          -7.7875    4.5415   23.8221 C.3     1  UNL1        0.1154
     33 C          -6.5454    5.9778   25.5953 C.2     1  UNL1        0.3028
     34 O          -6.5339    7.1257   26.5608 O.2     1  UNL1       -0.2649
@<TRIPOS>BOND
     1    30    31    1
     2    31    32    1
     3    31    33   am
     4    33    34    2
     5    33    26    1
     6    26    27    2
     7    26    28   am
     8    28    23    1
     9    23    24    1
    10    23    25    1
    11    23     1    1
    12     1     2   ar
    13     2     3   ar
    14     3    11    1
    15    11    12    2
    16    11    13   am
    17    13    15    1
    18    15    16    1
    19    16    17   ar
    20    17    18   ar
    21    18    19   ar
    22    19    20    1
    23    19    21   ar
    24    21    22   ar
    25     3     4   ar
    26     4     5    1
    27     4     6   ar
    28     6     7    2
    29     6     8   ar
    30     8     9    1
    31     8     1   ar
    32    22    16   ar
    33    28    29    1
    34    13    14    1
    35     5    10    1
@<TRIPOS>MOLECULE
*****
 34 35 0 0 0
SMALL
GASTEIGER

@<TRIPOS>ATOM
      1 C           1.1242    1.2829   28.1345 C.ar    1  UNL1        0.1389
      2 N           2.1056    0.6132   27.2189 N.ar    1  UNL1       -0.2229
      3 C           3.2241   -0.2075   27.7894 C.ar    1  UNL1        0.1740
      4 C           3.3612   -0.3585   29.2754 C.ar    1  UNL1        0.2130
      5 O           4.4796   -1.1792   29.8459 O.3     1  UNL1       -0.5006
      6 C           2.3798    0.3112   30.1910 C.ar    1  UNL1        0.2973
      7 O           2.5168    0.1602   31.6771 O.2     1  UNL1       -0.2636
      8 N           1.2613    1.1319   29.6205 N.ar    1  UNL1       -0.2783
      9 C           0.2799    1.8016   30.5362 C.3     1  UNL1        0.1349
     10 H           5.0927   -1.5976   29.2739 H       1  UNL1        0.2924
     11 C           4.2055   -0.8772   26.8737 C.2     1  UNL1        0.2671
     12 O           5.6601   -0.9224   27.2372 O.2     1  UNL1       -0.2684
     13 N           3.7323   -1.5016   25.5946 N.am    1  UNL1       -0.2956
     14 H           2.7776   -1.4719   25.3561 H       1  UNL1        0.1501
     15 C           4.7136   -2.1713   24.6790 C.3     1  UNL1        0.1166
     16 C           4.3814   -2.3536   23.2276 C.ar    1  UNL1       -0.0024
     17 C           3.6161   -1.2923   22.4943 C.ar    1  UNL1       -0.0003
     18 C           3.2839   -1.4746   21.0430 C.ar    1  UNL1        0.0294
     19 C           3.7170   -2.7183   20.3249 C.ar    1  UNL1        0.1401
     20 F           3.3848   -2.9006   18.8736 F       1  UNL1       -0.2042
     21 C           4.4823   -3.7798   21.0583 C.ar    1  UNL1        0.0294
     22 C           4.8146   -3.5974   22.5096 C.ar    1  UNL1       -0.0003
     23 C           0.0057    2.1037   27.5640 C.3     1  UNL1        0.1078
     24 C          -0.8961    0.9058   27.6088 C.3     1  UNL1        0.0274
     25 C           0.9075    3.3015   27.5192 C.3     1  UNL1        0.0274
     26 C          -1.2808    3.0328   25.5070 C.2     1  UNL1        0.3000
     27 O          -0.3303    2.3205   24.5908 O.2     1  UNL1       -0.2652
     28 N          -1.1127    2.9244   26.9935 N.am    1  UNL1       -0.2939
     29 H          -1.7365    3.3919   27.5948 H       1  UNL1        0.1502
     30 C          -3.3222    6.1412   24.1210 C.3     1  UNL1        0.1154
     31 N          -2.2037    5.3205   24.6915 N.am    1  UNL1       -0.2689
     32 C          -0.8897    5.9666   25.0169 C.3     1  UNL1        0.1154
     33 C          -2.3993    3.8535   24.9365 C.2     1  UNL1        0.3028
     34 O          -3.7132    3.2074   24.6111 O.2     1  UNL1       -0.2649
@<TRIPOS>BOND
     1    30    31    1
     2    31    32    1
     3    31    33   am
     4    33    34    2
     5    33    26    1
     6    26    27    2
     7    26    28   am
     8    28    23    1
     9    23    24    1
    10    23    25    1
    11    23     1    1
    12     1     2   ar
    13     2     3   ar
    14     3    11    1
    15    11    12    2
    16    11    13   am
    17    13    15    1
    18    15    16    1
    19    16    17   ar
    20    17    18   ar
    21    18    19   ar
    22    19    20    1
    23    19    21   ar
    24    21    22   ar
    25     3     4   ar
    26     4     5    1
    27     4     6   ar
    28     6     7    2
    29     6     8   ar
    30     8     9    1
    31     8     1   ar
    32    22    16   ar
    33    28    29    1
    34    13    14    1
    35     5    10    1
@<TRIPOS>MOLECULE
*****
 34 35 0 0 0
SMALL
GASTEIGER

@<TRIPOS>ATOM
      1 C           0.6319    3.1028   19.3284 C.ar    1  UNL1        0.1389
      2 N          -0.7725    3.0618   19.8536 N.ar    1  UNL1       -0.2229
      3 C          -1.7151    4.1920   19.5634 C.ar    1  UNL1        0.1740
      4 C          -1.2532    5.3632   18.7479 C.ar    1  UNL1        0.2130
      5 O          -2.1957    6.4934   18.4577 O.3     1  UNL1       -0.5006
      6 C           0.1512    5.4041   18.2227 C.ar    1  UNL1        0.2973
      7 O           0.6131    6.5753   17.4072 O.2     1  UNL1       -0.2636
      8 N           1.0938    4.2739   18.5129 N.ar    1  UNL1       -0.2783
      9 C           2.4982    4.3149   17.9876 C.3     1  UNL1        0.1349
     10 H          -3.0730    6.4678   18.7858 H       1  UNL1        0.2924
     11 C          -3.1195    4.1510   20.0887 C.2     1  UNL1        0.2671
     12 O          -3.9966    5.3630   19.9800 O.2     1  UNL1       -0.2684
     13 N          -3.6469    2.8980   20.7226 N.am    1  UNL1       -0.2956
     14 H          -3.0712    2.1026   20.7940 H       1  UNL1        0.1501
     15 C          -5.0512    2.8570   21.2479 C.3     1  UNL1        0.1166
     16 C          -5.3727    3.4709   22.5783 C.ar    1  UNL1       -0.0024
     17 C          -4.5319    3.1456   23.7771 C.ar    1  UNL1       -0.0003
     18 C          -4.8533    3.7594   25.1075 C.ar    1  UNL1        0.0294
     19 C          -6.0155    4.6986   25.2390 C.ar    1  UNL1        0.1401
     20 F          -6.3369    5.3125   26.5694 F       1  UNL1       -0.2042
     21 C          -6.8563    5.0240   24.0401 C.ar    1  UNL1        0.0294
     22 C          -6.5349    4.4101   22.7097 C.ar    1  UNL1       -0.0003
     23 C           1.5744    1.9726   19.6186 C.3     1  UNL1        0.1078
     24 C           1.1928    1.3214   18.3223 C.3     1  UNL1        0.0274
     25 C           1.9561    2.6237   20.9149 C.3     1  UNL1        0.0274
     26 C           1.9910   -0.4510   20.4571 C.2     1  UNL1        0.3000
     27 O           0.5223   -0.6141   20.7151 O.2     1  UNL1       -0.2652
     28 N           2.5170    0.8423   19.9088 N.am    1  UNL1       -0.2939
     29 H           3.4809    0.9494   19.7395 H       1  UNL1        0.1502
     30 C           4.4635   -2.8646   22.4092 C.3     1  UNL1        0.1154
     31 N           3.5210   -1.7344   22.1190 N.am    1  UNL1       -0.2689
     32 C           3.1659   -0.7574   23.2004 C.3     1  UNL1        0.1154
     33 C           2.9335   -1.5812   20.7473 C.2     1  UNL1        0.3028
     34 O           3.2886   -2.5581   19.6659 O.2     1  UNL1       -0.2649
@<TRIPOS>BOND
     1    30    31    1
     2    31    32    1
     3    31    33   am
     4    33    34    2
     5    33    26    1
     6    26    27    2
     7    26    28   am
     8    28    23    1
     9    23    24    1
    10    23    25    1
    11    23     1    1
    12     1     2   ar
    13     2     3   ar
    14     3    11    1
    15    11    12    2
    16    11    13   am
    17    13    15    1
    18    15    16    1
    19    16    17   ar
    20    17    18   ar
    21    18    19   ar
    22    19    20    1
    23    19    21   ar
    24    21    22   ar
    25     3     4   ar
    26     4     5    1
    27     4     6   ar
    28     6     7    2
    29     6     8   ar
    30     8     9    1
    31     8     1   ar
    32    22    16   ar
    33    28    29    1
    34    13    14    1
    35     5    10    1
@<TRIPOS>MOLECULE
*****
 34 35 0 0 0
SMALL
GASTEIGER

@<TRIPOS>ATOM
      1 C           1.7072    1.2096   26.4845 C.ar    1  UNL1        0.1389
      2 N           1.9479    1.1204   25.0067 N.ar    1  UNL1       -0.2229
      3 C           2.8397    0.0476   24.4555 C.ar    1  UNL1        0.1740
      4 C           3.4908   -0.9359   25.3821 C.ar    1  UNL1        0.2130
      5 O           4.3826   -2.0087   24.8308 O.3     1  UNL1       -0.5006
      6 C           3.2501   -0.8467   26.8599 C.ar    1  UNL1        0.2973
      7 O           3.9012   -1.8303   27.7866 O.2     1  UNL1       -0.2636
      8 N           2.3583    0.2261   27.4111 N.ar    1  UNL1       -0.2783
      9 C           2.1177    0.3153   28.8891 C.3     1  UNL1        0.1349
     10 H           4.5330   -2.0644   23.9077 H       1  UNL1        0.2924
     11 C           3.0804   -0.0416   22.9775 C.2     1  UNL1        0.2671
     12 O           1.9371    0.1210   22.0203 O.2     1  UNL1       -0.2684
     13 N           4.4645   -0.2933   22.4569 N.am    1  UNL1       -0.2956
     14 H           5.2149   -0.4000   23.0852 H       1  UNL1        0.1501
     15 C           4.7052   -0.3825   20.9791 C.3     1  UNL1        0.1166
     16 C           4.7348   -1.7214   20.3035 C.ar    1  UNL1       -0.0024
     17 C           4.1059   -2.9105   20.9672 C.ar    1  UNL1       -0.0003
     18 C           4.1355   -4.2494   20.2916 C.ar    1  UNL1        0.0294
     19 C           4.7941   -4.3993   18.9523 C.ar    1  UNL1        0.1401
     20 F           4.8238   -5.7382   18.2767 F       1  UNL1       -0.2042
     21 C           5.4231   -3.2102   18.2885 C.ar    1  UNL1        0.0294
     22 C           5.3935   -1.8712   18.9641 C.ar    1  UNL1       -0.0003
     23 C           0.8155    2.2824   27.0357 C.3     1  UNL1        0.1078
     24 C           1.9994    3.1920   27.1809 C.3     1  UNL1        0.0274
     25 C          -0.3684    1.3729   26.8906 C.3     1  UNL1        0.0274
     26 C          -0.7285    4.3379   26.6602 C.2     1  UNL1        0.3000
     27 O          -0.4889    4.2479   25.1822 O.2     1  UNL1       -0.2652
     28 N          -0.0763    3.3552   27.5870 N.am    1  UNL1       -0.2939
     29 H          -0.2336    3.4143   28.5570 H       1  UNL1        0.1502
     30 C          -4.0022    6.3173   27.7163 C.3     1  UNL1        0.1154
     31 N          -3.1104    5.2446   27.1650 N.am    1  UNL1       -0.2689
     32 C          -3.7086    4.0057   26.5674 C.3     1  UNL1        0.1154
     33 C          -1.6203    5.4107   27.2115 C.2     1  UNL1        0.3028
     34 O          -1.0220    6.6496   27.8091 O.2     1  UNL1       -0.2649
@<TRIPOS>BOND
     1    30    31    1
     2    31    32    1
     3    31    33   am
     4    33    34    2
     5    33    26    1
     6    26    27    2
     7    26    28   am
     8    28    23    1
     9    23    24    1
    10    23    25    1
    11    23     1    1
    12     1     2   ar
    13     2     3   ar
    14     3    11    1
    15    11    12    2
    16    11    13   am
    17    13    15    1
    18    15    16    1
    19    16    17   ar
    20    17    18   ar
    21    18    19   ar
    22    19    20    1
    23    19    21   ar
    24    21    22   ar
    25     3     4   ar
    26     4     5    1
    27     4     6   ar
    28     6     7    2
    29     6     8   ar
    30     8     9    1
    31     8     1   ar
    32    22    16   ar
    33    28    29    1
    34    13    14    1
    35     5    10    1
