@<TRIPOS>MOLECULE
*****
 21 23 0 0 0
SMALL
GASTEIGER

@<TRIPOS>ATOM
      1 C          -8.2461  -19.1288   22.1779 C.ar    1  UNL1        0.1733
      2 C          -8.3873  -20.1587   23.2593 C.ar    1  UNL1        0.0416
      3 C          -9.7362  -20.4473   23.8484 C.ar    1  UNL1        0.0222
      4 C         -10.9438  -19.7062   23.3562 C.ar    1  UNL1        0.0813
      5 N         -10.8026  -18.6763   22.2748 N.ar    1  UNL1       -0.2904
      6 C         -11.8049  -17.7931   21.5928 C.ar    1  UNL1        0.0567
      7 C         -13.2780  -17.7517   21.8724 C.3     1  UNL1        0.0517
      8 C         -11.0755  -16.9585   20.5821 C.ar    1  UNL1        0.0730
      9 C         -11.6912  -15.9360   19.6735 C.3     1  UNL1        0.0534
     10 N          -9.6223  -17.3260   20.6395 N.ar    1  UNL1       -0.2284
     11 C          -9.4537  -18.3877   21.6857 C.ar    1  UNL1        0.1817
     12 O          -6.8971  -18.8401   21.5887 O.3     1  UNL1       -0.4676
     13 C          -5.6667  -19.4392   22.2028 C.3     1  UNL1        0.2315
     14 C          -4.1209  -20.6732   19.9472 C.3     1  UNL1        0.0308
     15 C          -3.5393  -19.5225   20.7137 C.ar    1  UNL1       -0.0226
     16 C          -2.1848  -18.9887   20.3525 C.ar    1  UNL1       -0.0045
     17 C          -1.6033  -17.8380   21.1190 C.ar    1  UNL1       -0.0007
     18 C          -2.3762  -17.2210   22.2469 C.ar    1  UNL1       -0.0045
     19 C          -3.7306  -17.7547   22.6081 C.ar    1  UNL1       -0.0226
     20 C          -4.5035  -17.1377   23.7359 C.3     1  UNL1        0.0308
     21 C          -4.3122  -18.9055   21.8416 C.ar    1  UNL1        0.0133
@<TRIPOS>BOND
     1    14    15    1
     2    15    16   ar
     3    16    17   ar
     4    17    18   ar
     5    18    19   ar
     6    19    20    1
     7    19    21   ar
     8    21    13    1
     9    13    12    1
    10    12     1    1
    11     1     2   ar
    12     2     3   ar
    13     3     4   ar
    14     4     5   ar
    15     5     6   ar
    16     6     7    1
    17     6     8   ar
    18     8     9    1
    19     8    10   ar
    20    10    11   ar
    21    21    15   ar
    22    11     1   ar
    23    11     5   ar
@<TRIPOS>MOLECULE
*****
 21 23 0 0 0
SMALL
GASTEIGER

@<TRIPOS>ATOM
      1 C          -6.1785  -16.1169   23.8805 C.ar    1  UNL1        0.1733
      2 C          -6.2705  -15.5131   25.2505 C.ar    1  UNL1        0.0416
      3 C          -7.5926  -15.4533   25.9564 C.ar    1  UNL1        0.0222
      4 C          -8.8227  -15.9972   25.2924 C.ar    1  UNL1        0.0813
      5 N          -8.7307  -16.6010   23.9224 N.ar    1  UNL1       -0.2904
      6 C          -9.7642  -17.2127   23.0237 C.ar    1  UNL1        0.0567
      7 C         -11.2247  -17.3605   23.3322 C.3     1  UNL1        0.0517
      8 C          -9.0808  -17.6506   21.7622 C.ar    1  UNL1        0.0730
      9 C          -9.7379  -18.3133   20.5878 C.3     1  UNL1        0.0534
     10 N          -7.6250  -17.3096   21.8813 N.ar    1  UNL1       -0.2284
     11 C          -7.4086  -16.6608   23.2165 C.ar    1  UNL1        0.1817
     12 O          -4.8564  -16.1768   23.1745 O.3     1  UNL1       -0.4676
     13 C          -4.0633  -17.4500   23.1742 C.3     1  UNL1        0.2315
     14 C          -5.5015  -19.8794   22.1594 C.3     1  UNL1        0.0308
     15 C          -4.3711  -19.2918   21.3677 C.ar    1  UNL1       -0.0226
     16 C          -3.9597  -19.9188   20.0686 C.ar    1  UNL1       -0.0045
     17 C          -2.8293  -19.3312   19.2769 C.ar    1  UNL1       -0.0007
     18 C          -2.1102  -18.1165   19.7843 C.ar    1  UNL1       -0.0045
     19 C          -2.5215  -17.4895   21.0834 C.ar    1  UNL1       -0.0226
     20 C          -1.8024  -16.2748   21.5908 C.3     1  UNL1        0.0308
     21 C          -3.6520  -18.0771   21.8751 C.ar    1  UNL1        0.0133
@<TRIPOS>BOND
     1    14    15    1
     2    15    16   ar
     3    16    17   ar
     4    17    18   ar
     5    18    19   ar
     6    19    20    1
     7    19    21   ar
     8    21    13    1
     9    13    12    1
    10    12     1    1
    11     1     2   ar
    12     2     3   ar
    13     3     4   ar
    14     4     5   ar
    15     5     6   ar
    16     6     7    1
    17     6     8   ar
    18     8     9    1
    19     8    10   ar
    20    10    11   ar
    21    21    15   ar
    22    11     1   ar
    23    11     5   ar
@<TRIPOS>MOLECULE
*****
 21 23 0 0 0
SMALL
GASTEIGER

@<TRIPOS>ATOM
      1 C          -7.2284  -18.9310   20.9620 C.ar    1  UNL1        0.1733
      2 C          -6.6829  -20.0917   20.1842 C.ar    1  UNL1        0.0416
      3 C          -5.2598  -20.5234   20.3803 C.ar    1  UNL1        0.0222
      4 C          -4.3823  -19.7944   21.3542 C.ar    1  UNL1        0.0813
      5 N          -4.9279  -18.6337   22.1320 N.ar    1  UNL1       -0.2904
      6 C          -4.3059  -17.7294   23.1545 C.ar    1  UNL1        0.0567
      7 C          -2.8933  -17.8029   23.6535 C.3     1  UNL1        0.0517
      8 C          -5.3446  -16.7388   23.5903 C.ar    1  UNL1        0.0730
      9 C          -5.1529  -15.6477   24.6017 C.3     1  UNL1        0.0534
     10 N          -6.6085  -17.0308   22.8372 N.ar    1  UNL1       -0.2284
     11 C          -6.3509  -18.2020   21.9359 C.ar    1  UNL1        0.1817
     12 O          -8.6516  -18.4992   20.7659 O.3     1  UNL1       -0.4676
     13 C          -9.7736  -19.4201   21.1441 C.3     1  UNL1        0.2315
     14 C          -9.7042  -20.4421   23.9638 C.3     1  UNL1        0.0308
     15 C         -10.7769  -19.4832   23.5398 C.ar    1  UNL1       -0.0226
     16 C         -11.8149  -19.0352   24.5256 C.ar    1  UNL1       -0.0045
     17 C         -12.8876  -18.0763   24.1016 C.ar    1  UNL1       -0.0007
     18 C         -12.9222  -17.5652   22.6918 C.ar    1  UNL1       -0.0045
     19 C         -11.8843  -18.0132   21.7059 C.ar    1  UNL1       -0.0226
     20 C         -11.9189  -17.5022   20.2961 C.3     1  UNL1        0.0308
     21 C         -10.8115  -18.9722   22.1299 C.ar    1  UNL1        0.0133
@<TRIPOS>BOND
     1    14    15    1
     2    15    16   ar
     3    16    17   ar
     4    17    18   ar
     5    18    19   ar
     6    19    20    1
     7    19    21   ar
     8    21    13    1
     9    13    12    1
    10    12     1    1
    11     1     2   ar
    12     2     3   ar
    13     3     4   ar
    14     4     5   ar
    15     5     6   ar
    16     6     7    1
    17     6     8   ar
    18     8     9    1
    19     8    10   ar
    20    10    11   ar
    21    21    15   ar
    22    11     1   ar
    23    11     5   ar
@<TRIPOS>MOLECULE
*****
 21 23 0 0 0
SMALL
GASTEIGER

@<TRIPOS>ATOM
      1 C          -8.6073  -19.6380   22.7879 C.ar    1  UNL1        0.1733
      2 C          -7.5903  -20.2758   21.8885 C.ar    1  UNL1        0.0416
      3 C          -6.2975  -19.5718   21.6003 C.ar    1  UNL1        0.0222
      4 C          -6.0218  -18.2300   22.2115 C.ar    1  UNL1        0.0813
      5 N          -7.0387  -17.5922   23.1109 N.ar    1  UNL1       -0.2904
      6 C          -7.0463  -16.2877   23.8513 C.ar    1  UNL1        0.0567
      7 C          -5.9490  -15.2650   23.8467 C.3     1  UNL1        0.0517
      8 C          -8.3437  -16.1855   24.5971 C.ar    1  UNL1        0.0730
      9 C          -8.7717  -15.0425   25.4692 C.3     1  UNL1        0.0534
     10 N          -9.1381  -17.4268   24.3176 N.ar    1  UNL1       -0.2284
     11 C          -8.3315  -18.2962   23.3991 C.ar    1  UNL1        0.1817
     12 O          -9.9001  -20.3420   23.0761 O.3     1  UNL1       -0.4676
     13 C         -11.0630  -20.1873   22.1413 C.3     1  UNL1        0.2315
     14 C         -12.6421  -18.2074   23.7494 C.3     1  UNL1        0.0308
     15 C         -12.1772  -17.8513   22.3685 C.ar    1  UNL1       -0.0226
     16 C         -12.5019  -16.5053   21.7916 C.ar    1  UNL1       -0.0045
     17 C         -12.0370  -16.1492   20.4106 C.ar    1  UNL1       -0.0007
     18 C         -11.2474  -17.1392   19.6065 C.ar    1  UNL1       -0.0045
     19 C         -10.9227  -18.4852   20.1834 C.ar    1  UNL1       -0.0226
     20 C         -10.1331  -19.4751   19.3793 C.3     1  UNL1        0.0308
     21 C         -11.3876  -18.8413   21.5644 C.ar    1  UNL1        0.0133
@<TRIPOS>BOND
     1    14    15    1
     2    15    16   ar
     3    16    17   ar
     4    17    18   ar
     5    18    19   ar
     6    19    20    1
     7    19    21   ar
     8    21    13    1
     9    13    12    1
    10    12     1    1
    11     1     2   ar
    12     2     3   ar
    13     3     4   ar
    14     4     5   ar
    15     5     6   ar
    16     6     7    1
    17     6     8   ar
    18     8     9    1
    19     8    10   ar
    20    10    11   ar
    21    21    15   ar
    22    11     1   ar
    23    11     5   ar
@<TRIPOS>MOLECULE
*****
 21 23 0 0 0
SMALL
GASTEIGER

@<TRIPOS>ATOM
      1 C          -7.4425  -18.1498   22.0801 C.ar    1  UNL1        0.1733
      2 C          -7.9686  -17.0667   22.9745 C.ar    1  UNL1        0.0416
      3 C          -7.0222  -16.2647   23.8177 C.ar    1  UNL1        0.0222
      4 C          -5.5497  -16.5459   23.7665 C.ar    1  UNL1        0.0813
      5 N          -5.0236  -17.6290   22.8721 N.ar    1  UNL1       -0.2904
      6 C          -3.6337  -18.1303   22.6134 C.ar    1  UNL1        0.0567
      7 C          -2.3770  -17.6110   23.2467 C.3     1  UNL1        0.0517
      8 C          -3.7212  -19.2422   21.6103 C.ar    1  UNL1        0.0730
      9 C          -2.5672  -20.0299   21.0643 C.3     1  UNL1        0.0534
     10 N          -5.1651  -19.4280   21.2490 N.ar    1  UNL1       -0.2284
     11 C          -5.9700  -18.4310   22.0289 C.ar    1  UNL1        0.1817
     12 O          -8.3890  -18.9519   21.2368 O.3     1  UNL1       -0.4676
     13 C          -9.4705  -19.7625   21.8875 C.3     1  UNL1        0.2315
     14 C         -10.2204  -19.8570   24.7907 C.3     1  UNL1        0.0308
     15 C         -11.1026  -19.1414   23.8112 C.ar    1  UNL1       -0.0226
     16 C         -12.3598  -18.4730   24.2832 C.ar    1  UNL1       -0.0045
     17 C         -13.2420  -17.7575   23.3036 C.ar    1  UNL1       -0.0007
     18 C         -12.8671  -17.7102   21.8520 C.ar    1  UNL1       -0.0045
     19 C         -11.6099  -18.3785   21.3799 C.ar    1  UNL1       -0.0226
     20 C         -11.2350  -18.3313   19.9283 C.3     1  UNL1        0.0308
     21 C         -10.7276  -19.0942   22.3595 C.ar    1  UNL1        0.0133
@<TRIPOS>BOND
     1    14    15    1
     2    15    16   ar
     3    16    17   ar
     4    17    18   ar
     5    18    19   ar
     6    19    20    1
     7    19    21   ar
     8    21    13    1
     9    13    12    1
    10    12     1    1
    11     1     2   ar
    12     2     3   ar
    13     3     4   ar
    14     4     5   ar
    15     5     6   ar
    16     6     7    1
    17     6     8   ar
    18     8     9    1
    19     8    10   ar
    20    10    11   ar
    21    21    15   ar
    22    11     1   ar
    23    11     5   ar
@<TRIPOS>MOLECULE
*****
 21 23 0 0 0
SMALL
GASTEIGER

@<TRIPOS>ATOM
      1 C          -8.9058  -19.4073   22.9506 C.ar    1  UNL1        0.1733
      2 C          -9.3399  -20.0975   24.2097 C.ar    1  UNL1        0.0416
      3 C         -10.6607  -19.7577   24.8341 C.ar    1  UNL1        0.0222
      4 C         -11.5474  -18.7277   24.1995 C.ar    1  UNL1        0.0813
      5 N         -11.1134  -18.0375   22.9405 N.ar    1  UNL1       -0.2904
      6 C         -11.7701  -16.9879   22.0936 C.ar    1  UNL1        0.0567
      7 C         -13.1070  -16.3579   22.3497 C.3     1  UNL1        0.0517
      8 C         -10.8552  -16.6791   20.9458 C.ar    1  UNL1        0.0730
      9 C         -11.1166  -15.6859   19.8524 C.3     1  UNL1        0.0534
     10 N          -9.6330  -17.5378   21.0832 N.ar    1  UNL1       -0.2284
     11 C          -9.7926  -18.3773   22.3160 C.ar    1  UNL1        0.1817
     12 O          -7.5850  -19.7471   22.3261 O.3     1  UNL1       -0.4676
     13 C          -6.5557  -18.6759   22.1187 C.3     1  UNL1        0.2315
     14 C          -4.2433  -17.3362   23.4819 C.3     1  UNL1        0.0308
     15 C          -3.9939  -18.3778   22.4318 C.ar    1  UNL1       -0.0226
     16 C          -2.5881  -18.7496   22.0632 C.ar    1  UNL1       -0.0045
     17 C          -2.3387  -19.7911   21.0130 C.ar    1  UNL1       -0.0007
     18 C          -3.4949  -20.4609   20.3314 C.ar    1  UNL1       -0.0045
     19 C          -4.9005  -20.0892   20.7000 C.ar    1  UNL1       -0.0226
     20 C          -6.0567  -20.7590   20.0184 C.3     1  UNL1        0.0308
     21 C          -5.1501  -19.0476   21.7502 C.ar    1  UNL1        0.0133
@<TRIPOS>BOND
     1    14    15    1
     2    15    16   ar
     3    16    17   ar
     4    17    18   ar
     5    18    19   ar
     6    19    20    1
     7    19    21   ar
     8    21    13    1
     9    13    12    1
    10    12     1    1
    11     1     2   ar
    12     2     3   ar
    13     3     4   ar
    14     4     5   ar
    15     5     6   ar
    16     6     7    1
    17     6     8   ar
    18     8     9    1
    19     8    10   ar
    20    10    11   ar
    21    21    15   ar
    22    11     1   ar
    23    11     5   ar
@<TRIPOS>MOLECULE
*****
 21 23 0 0 0
SMALL
GASTEIGER

@<TRIPOS>ATOM
      1 C          -8.8696  -19.1156   23.1409 C.ar    1  UNL1        0.1733
      2 C          -9.1037  -17.8301   23.8775 C.ar    1  UNL1        0.0416
      3 C          -8.0399  -16.7728   23.8975 C.ar    1  UNL1        0.0222
      4 C          -6.7421  -17.0010   23.1809 C.ar    1  UNL1        0.0813
      5 N          -6.5080  -18.2865   22.4443 N.ar    1  UNL1       -0.2904
      6 C          -5.3382  -18.7910   21.6525 C.ar    1  UNL1        0.0567
      7 C          -4.0531  -18.0555   21.4123 C.3     1  UNL1        0.0517
      8 C          -5.6789  -20.1602   21.1432 C.ar    1  UNL1        0.0730
      9 C          -4.7944  -21.0342   20.3041 C.3     1  UNL1        0.0534
     10 N          -7.0594  -20.5018   21.6201 N.ar    1  UNL1       -0.2284
     11 C          -7.5718  -19.3438   22.4243 C.ar    1  UNL1        0.1817
     12 O          -9.9335  -20.1730   23.1208 O.3     1  UNL1       -0.4676
     13 C         -11.0611  -20.0837   22.1358 C.3     1  UNL1        0.2315
     14 C         -12.8190  -18.1180   23.5661 C.3     1  UNL1        0.0308
     15 C         -12.2729  -17.7867   22.2090 C.ar    1  UNL1       -0.0226
     16 C         -12.6057  -16.4725   21.5669 C.ar    1  UNL1       -0.0045
     17 C         -12.0596  -16.1412   20.2097 C.ar    1  UNL1       -0.0007
     18 C         -11.1806  -17.1241   19.4945 C.ar    1  UNL1       -0.0045
     19 C         -10.8478  -18.4382   20.1365 C.ar    1  UNL1       -0.0226
     20 C          -9.9689  -19.4211   19.4213 C.3     1  UNL1        0.0308
     21 C         -11.3939  -18.7696   21.4938 C.ar    1  UNL1        0.0133
@<TRIPOS>BOND
     1    14    15    1
     2    15    16   ar
     3    16    17   ar
     4    17    18   ar
     5    18    19   ar
     6    19    20    1
     7    19    21   ar
     8    21    13    1
     9    13    12    1
    10    12     1    1
    11     1     2   ar
    12     2     3   ar
    13     3     4   ar
    14     4     5   ar
    15     5     6   ar
    16     6     7    1
    17     6     8   ar
    18     8     9    1
    19     8    10   ar
    20    10    11   ar
    21    21    15   ar
    22    11     1   ar
    23    11     5   ar
@<TRIPOS>MOLECULE
*****
 21 23 0 0 0
SMALL
GASTEIGER

@<TRIPOS>ATOM
      1 C          -7.4899  -18.6936   22.5356 C.ar    1  UNL1        0.1733
      2 C          -8.1059  -17.5233   23.2434 C.ar    1  UNL1        0.0416
      3 C          -7.2383  -16.4029   23.7352 C.ar    1  UNL1        0.0222
      4 C          -5.7548  -16.4527   23.5193 C.ar    1  UNL1        0.0813
      5 N          -5.1388  -17.6230   22.8115 N.ar    1  UNL1       -0.2904
      6 C          -3.7179  -17.9467   22.4562 C.ar    1  UNL1        0.0567
      7 C          -2.5182  -17.0988   22.7593 C.3     1  UNL1        0.0517
      8 C          -3.7072  -19.2672   21.7448 C.ar    1  UNL1        0.0730
      9 C          -2.4950  -19.9717   21.2115 C.3     1  UNL1        0.0534
     10 N          -5.1216  -19.7596   21.6603 N.ar    1  UNL1       -0.2284
     11 C          -6.0063  -18.7434   22.3196 C.ar    1  UNL1        0.1817
     12 O          -8.3574  -19.8141   22.0436 O.3     1  UNL1       -0.4676
     13 C          -9.8011  -19.8769   22.4459 C.3     1  UNL1        0.2315
     14 C          -9.8664  -19.0364   19.5668 C.3     1  UNL1        0.0308
     15 C         -10.7843  -18.3860   20.5590 C.ar    1  UNL1       -0.0226
     16 C         -11.7348  -17.3152   20.1117 C.ar    1  UNL1       -0.0045
     17 C         -12.6527  -16.6648   21.1039 C.ar    1  UNL1       -0.0007
     18 C         -12.6200  -17.0851   22.5435 C.ar    1  UNL1       -0.0045
     19 C         -11.6695  -18.1558   22.9908 C.ar    1  UNL1       -0.0226
     20 C         -11.6368  -18.5761   24.4304 C.3     1  UNL1        0.0308
     21 C         -10.7516  -18.8062   21.9986 C.ar    1  UNL1        0.0133
@<TRIPOS>BOND
     1    14    15    1
     2    15    16   ar
     3    16    17   ar
     4    17    18   ar
     5    18    19   ar
     6    19    20    1
     7    19    21   ar
     8    21    13    1
     9    13    12    1
    10    12     1    1
    11     1     2   ar
    12     2     3   ar
    13     3     4   ar
    14     4     5   ar
    15     5     6   ar
    16     6     7    1
    17     6     8   ar
    18     8     9    1
    19     8    10   ar
    20    10    11   ar
    21    21    15   ar
    22    11     1   ar
    23    11     5   ar
@<TRIPOS>MOLECULE
*****
 21 23 0 0 0
SMALL
GASTEIGER

@<TRIPOS>ATOM
      1 C          -7.4922  -18.5115   22.0845 C.ar    1  UNL1        0.1733
      2 C          -8.4705  -19.0273   21.0712 C.ar    1  UNL1        0.0416
      3 C          -7.9762  -19.6145   19.7825 C.ar    1  UNL1        0.0222
      4 C          -6.5034  -19.6859   19.5071 C.ar    1  UNL1        0.0813
      5 N          -5.5250  -19.1702   20.5203 N.ar    1  UNL1       -0.2904
      6 C          -4.0264  -19.1077   20.5273 C.ar    1  UNL1        0.0567
      7 C          -3.1189  -19.5869   19.4333 C.3     1  UNL1        0.0517
      8 C          -3.5945  -18.4818   21.8203 C.ar    1  UNL1        0.0730
      9 C          -2.1792  -18.2253   22.2463 C.3     1  UNL1        0.0534
     10 N          -4.8262  -18.1575   22.6125 N.ar    1  UNL1       -0.2284
     11 C          -6.0194  -18.5830   21.8090 C.ar    1  UNL1        0.1817
     12 O          -7.9865  -17.9243   23.3732 O.3     1  UNL1       -0.4676
     13 C          -9.0544  -16.8710   23.3566 C.3     1  UNL1        0.2315
     14 C         -10.9281  -15.8242   21.2606 C.3     1  UNL1        0.0308
     15 C         -11.4374  -16.7454   22.3292 C.ar    1  UNL1       -0.0226
     16 C         -12.8836  -17.1432   22.3498 C.ar    1  UNL1       -0.0045
     17 C         -13.3928  -18.0644   23.4184 C.ar    1  UNL1       -0.0007
     18 C         -12.4560  -18.5878   24.4664 C.ar    1  UNL1       -0.0045
     19 C         -11.0099  -18.1901   24.4458 C.ar    1  UNL1       -0.0226
     20 C         -10.0730  -18.7135   25.4939 C.3     1  UNL1        0.0308
     21 C         -10.5005  -17.2688   23.3772 C.ar    1  UNL1        0.0133
@<TRIPOS>BOND
     1    14    15    1
     2    15    16   ar
     3    16    17   ar
     4    17    18   ar
     5    18    19   ar
     6    19    20    1
     7    19    21   ar
     8    21    13    1
     9    13    12    1
    10    12     1    1
    11     1     2   ar
    12     2     3   ar
    13     3     4   ar
    14     4     5   ar
    15     5     6   ar
    16     6     7    1
    17     6     8   ar
    18     8     9    1
    19     8    10   ar
    20    10    11   ar
    21    21    15   ar
    22    11     1   ar
    23    11     5   ar
