@<TRIPOS>MOLECULE
*****
 28 31 0 0 0
SMALL
GASTEIGER

@<TRIPOS>ATOM
      1 O         -11.1871  -19.5166   19.3541 O.2     1  UNL1       -0.2651
      2 C          -9.7975  -19.2690   19.8619 C.ar    1  UNL1        0.2821
      3 N          -8.6150  -19.7610   19.0812 N.ar    1  UNL1       -0.1855
      4 C          -7.2254  -19.5134   19.5888 C.ar    1  UNL1        0.2029
      5 N          -7.0184  -18.7738   20.8773 N.ar    1  UNL1       -0.2088
      6 N          -5.6288  -18.5262   21.3850 N.ar    1  UNL1       -0.1571
      7 C          -5.4218  -17.7866   22.6734 C.ar    1  UNL1        0.1309
      8 C          -6.6043  -17.2946   23.4542 C.ar    1  UNL1        0.0291
      9 C          -7.9938  -17.5421   22.9465 C.ar    1  UNL1        0.0215
     10 C          -8.2009  -18.2817   21.6581 C.ar    1  UNL1        0.0893
     11 C          -9.5905  -18.5293   21.1503 C.ar    1  UNL1        0.0772
     12 C         -10.7730  -18.0373   21.9310 C.ar    1  UNL1        0.0273
     13 C         -11.3777  -16.7015   21.6143 C.ar    1  UNL1        0.0587
     14 CL        -10.7998  -15.8579   20.5169 Cl      1  UNL1       -0.0822
     15 C         -12.5602  -16.2095   22.3950 C.ar    1  UNL1        0.0114
     16 C         -13.1381  -17.0532   23.4925 C.ar    1  UNL1        0.0017
     17 C         -12.5334  -18.3889   23.8091 C.ar    1  UNL1        0.0114
     18 C         -11.3509  -18.8809   23.0284 C.ar    1  UNL1        0.0587
     19 CL        -10.7462  -20.2167   23.3451 Cl      1  UNL1       -0.0822
     20 S          -4.0321  -17.5390   23.1812 S.3     1  UNL1       -0.0641
     21 C          -2.8711  -17.5643   22.2318 C.ar    1  UNL1        0.0585
     22 C          -2.2274  -16.2802   21.7998 C.ar    1  UNL1        0.0111
     23 C          -1.0664  -16.3055   20.8504 C.ar    1  UNL1        0.0303
     24 C          -0.5491  -17.6150   20.3329 C.ar    1  UNL1        0.1424
     25 F           0.6119  -17.6403   19.3835 F       1  UNL1       -0.2041
     26 C          -1.1929  -18.8991   20.7648 C.ar    1  UNL1        0.0598
     27 C          -2.3539  -18.8738   21.7143 C.ar    1  UNL1        0.1483
     28 F          -2.9977  -20.1580   22.1462 F       1  UNL1       -0.2036
@<TRIPOS>BOND
     1     1     2    2
     2     2     3   ar
     3     3     4   ar
     4     4     5   ar
     5     5     6   ar
     6     6     7   ar
     7     7    20    1
     8    20    21    1
     9    21    22   ar
    10    22    23   ar
    11    23    24   ar
    12    24    25    1
    13    24    26   ar
    14    26    27   ar
    15    27    28    1
    16     7     8   ar
    17     8     9   ar
    18     9    10   ar
    19    10    11   ar
    20    11    12    1
    21    12    13   ar
    22    13    14    1
    23    13    15   ar
    24    15    16   ar
    25    16    17   ar
    26    17    18   ar
    27    18    19    1
    28    11     2   ar
    29    18    12   ar
    30    10     5   ar
    31    27    21   ar
@<TRIPOS>MOLECULE
*****
 28 31 0 0 0
SMALL
GASTEIGER

@<TRIPOS>ATOM
      1 O         -11.2729  -19.4402   19.2503 O.2     1  UNL1       -0.2651
      2 C          -9.8737  -19.2478   19.7557 C.ar    1  UNL1        0.2821
      3 N          -8.7116  -19.7667   18.9619 N.ar    1  UNL1       -0.1855
      4 C          -7.3125  -19.5743   19.4672 C.ar    1  UNL1        0.2029
      5 N          -7.0754  -18.8630   20.7665 N.ar    1  UNL1       -0.2088
      6 N          -5.6763  -18.6706   21.2718 N.ar    1  UNL1       -0.1571
      7 C          -5.4394  -17.9593   22.5710 C.ar    1  UNL1        0.1309
      8 C          -6.6015  -17.4404   23.3648 C.ar    1  UNL1        0.0291
      9 C          -8.0006  -17.6328   22.8595 C.ar    1  UNL1        0.0215
     10 C          -8.2376  -18.3441   21.5603 C.ar    1  UNL1        0.0893
     11 C          -9.6368  -18.5365   21.0549 C.ar    1  UNL1        0.0772
     12 C         -10.7989  -18.0176   21.8487 C.ar    1  UNL1        0.0273
     13 C         -11.4104  -18.8652   22.9247 C.ar    1  UNL1        0.0587
     14 CL        -10.8598  -20.2316   23.2068 Cl      1  UNL1       -0.0822
     15 C         -12.5726  -18.3463   23.7185 C.ar    1  UNL1        0.0114
     16 C         -13.1232  -16.9798   23.4363 C.ar    1  UNL1        0.0017
     17 C         -12.5117  -16.1323   22.3604 C.ar    1  UNL1        0.0114
     18 C         -11.3496  -16.6512   21.5666 C.ar    1  UNL1        0.0587
     19 CL        -10.7380  -15.8036   20.4906 Cl      1  UNL1       -0.0822
     20 S          -4.0402  -17.7669   23.0764 S.3     1  UNL1       -0.0641
     21 C          -2.8855  -17.8042   22.1198 C.ar    1  UNL1        0.0585
     22 C          -2.4021  -19.1170   21.5784 C.ar    1  UNL1        0.0111
     23 C          -1.2474  -19.1542   20.6217 C.ar    1  UNL1        0.0303
     24 C          -0.5760  -17.8787   20.2064 C.ar    1  UNL1        0.1424
     25 F           0.5788  -17.9160   19.2498 F       1  UNL1       -0.2041
     26 C          -1.0593  -16.5660   20.7478 C.ar    1  UNL1        0.0598
     27 C          -2.2141  -16.5288   21.7045 C.ar    1  UNL1        0.1483
     28 F          -2.6974  -15.2160   22.2459 F       1  UNL1       -0.2036
@<TRIPOS>BOND
     1     1     2    2
     2     2     3   ar
     3     3     4   ar
     4     4     5   ar
     5     5     6   ar
     6     6     7   ar
     7     7    20    1
     8    20    21    1
     9    21    22   ar
    10    22    23   ar
    11    23    24   ar
    12    24    25    1
    13    24    26   ar
    14    26    27   ar
    15    27    28    1
    16     7     8   ar
    17     8     9   ar
    18     9    10   ar
    19    10    11   ar
    20    11    12    1
    21    12    13   ar
    22    13    14    1
    23    13    15   ar
    24    15    16   ar
    25    16    17   ar
    26    17    18   ar
    27    18    19    1
    28    11     2   ar
    29    18    12   ar
    30    10     5   ar
    31    27    21   ar
@<TRIPOS>MOLECULE
*****
 28 31 0 0 0
SMALL
GASTEIGER

@<TRIPOS>ATOM
      1 O           5.2274    0.6626   18.6337 O.2     1  UNL1       -0.2651
      2 C           4.9518    0.8778   20.0924 C.ar    1  UNL1        0.2821
      3 N           4.9941    2.2627   20.6673 N.ar    1  UNL1       -0.1855
      4 C           4.7185    2.4779   22.1260 C.ar    1  UNL1        0.2029
      5 N           4.4007    1.3083   23.0098 N.ar    1  UNL1       -0.2088
      6 N           4.1251    1.5235   24.4684 N.ar    1  UNL1       -0.1571
      7 C           3.8073    0.3540   25.3522 C.ar    1  UNL1        0.1309
      8 C           3.7650   -1.0308   24.7773 C.ar    1  UNL1        0.0291
      9 C           4.0406   -1.2461   23.3187 C.ar    1  UNL1        0.0215
     10 C           4.3584   -0.0765   22.4349 C.ar    1  UNL1        0.0893
     11 C           4.6340   -0.2917   20.9762 C.ar    1  UNL1        0.0772
     12 C           4.5918   -1.6765   20.4013 C.ar    1  UNL1        0.0273
     13 C           5.8340   -2.5170   20.3777 C.ar    1  UNL1        0.0587
     14 CL          7.1184   -1.9727   20.9289 Cl      1  UNL1       -0.0822
     15 C           5.7918   -3.9018   19.8028 C.ar    1  UNL1        0.0114
     16 C           4.5073   -4.4462   19.2515 C.ar    1  UNL1        0.0017
     17 C           3.2651   -3.6057   19.2751 C.ar    1  UNL1        0.0114
     18 C           3.3074   -2.2209   19.8500 C.ar    1  UNL1        0.0587
     19 CL          2.0651   -1.3804   19.8736 Cl      1  UNL1       -0.0822
     20 S           3.5317    0.5692   26.8109 S.3     1  UNL1       -0.0641
     21 C           2.1210    0.5405   27.3199 C.ar    1  UNL1        0.0585
     22 C           1.0403    1.2677   26.5758 C.ar    1  UNL1        0.0111
     23 C          -0.3704    1.2390   27.0847 C.ar    1  UNL1        0.0303
     24 C          -0.7005    0.4832   28.3377 C.ar    1  UNL1        0.1424
     25 F          -2.1112    0.4546   28.8466 F       1  UNL1       -0.2041
     26 C           0.3801   -0.2438   29.0817 C.ar    1  UNL1        0.0598
     27 C           1.7909   -0.2152   28.5728 C.ar    1  UNL1        0.1483
     28 F           2.8715   -0.9423   29.3168 F       1  UNL1       -0.2036
@<TRIPOS>BOND
     1     1     2    2
     2     2     3   ar
     3     3     4   ar
     4     4     5   ar
     5     5     6   ar
     6     6     7   ar
     7     7    20    1
     8    20    21    1
     9    21    22   ar
    10    22    23   ar
    11    23    24   ar
    12    24    25    1
    13    24    26   ar
    14    26    27   ar
    15    27    28    1
    16     7     8   ar
    17     8     9   ar
    18     9    10   ar
    19    10    11   ar
    20    11    12    1
    21    12    13   ar
    22    13    14    1
    23    13    15   ar
    24    15    16   ar
    25    16    17   ar
    26    17    18   ar
    27    18    19    1
    28    11     2   ar
    29    18    12   ar
    30    10     5   ar
    31    27    21   ar
@<TRIPOS>MOLECULE
*****
 28 31 0 0 0
SMALL
GASTEIGER

@<TRIPOS>ATOM
      1 O           5.0879    0.8221   18.5962 O.2     1  UNL1       -0.2651
      2 C           4.8230    1.0132   20.0602 C.ar    1  UNL1        0.2821
      3 N           4.8347    2.3920   20.6508 N.ar    1  UNL1       -0.1855
      4 C           4.5698    2.5831   22.1148 C.ar    1  UNL1        0.2029
      5 N           4.2931    1.3954   22.9882 N.ar    1  UNL1       -0.2088
      6 N           4.0282    1.5866   24.4522 N.ar    1  UNL1       -0.1571
      7 C           3.7516    0.3989   25.3256 C.ar    1  UNL1        0.1309
      8 C           3.7398   -0.9799   24.7350 C.ar    1  UNL1        0.0291
      9 C           4.0047   -1.1710   23.2710 C.ar    1  UNL1        0.0215
     10 C           4.2814    0.0166   22.3977 C.ar    1  UNL1        0.0893
     11 C           4.5463   -0.1744   20.9336 C.ar    1  UNL1        0.0772
     12 C           4.5345   -1.5532   20.3430 C.ar    1  UNL1        0.0273
     13 C           3.2521   -2.1386   19.8302 C.ar    1  UNL1        0.0587
     14 CL          1.9815   -1.3451   19.9080 Cl      1  UNL1       -0.0822
     15 C           3.2403   -3.5173   19.2396 C.ar    1  UNL1        0.0114
     16 C           4.5109   -4.3108   19.1618 C.ar    1  UNL1        0.0017
     17 C           5.7932   -3.7255   19.6746 C.ar    1  UNL1        0.0114
     18 C           5.8050   -2.3467   20.2652 C.ar    1  UNL1        0.0587
     19 CL          7.0874   -1.7614   20.7780 Cl      1  UNL1       -0.0822
     20 S           3.4866    0.5900   26.7896 S.3     1  UNL1       -0.0641
     21 C           2.0790    0.5608   27.3072 C.ar    1  UNL1        0.0585
     22 C           0.9927    1.2837   26.5672 C.ar    1  UNL1        0.0111
     23 C          -0.4148    1.2545   27.0848 C.ar    1  UNL1        0.0303
     24 C          -0.7361    0.5023   28.3422 C.ar    1  UNL1        0.1424
     25 F          -2.1437    0.4731   28.8597 F       1  UNL1       -0.2041
     26 C           0.3501   -0.2206   29.0821 C.ar    1  UNL1        0.0598
     27 C           1.7577   -0.1913   28.5645 C.ar    1  UNL1        0.1483
     28 F           2.8440   -0.9143   29.3045 F       1  UNL1       -0.2036
@<TRIPOS>BOND
     1     1     2    2
     2     2     3   ar
     3     3     4   ar
     4     4     5   ar
     5     5     6   ar
     6     6     7   ar
     7     7    20    1
     8    20    21    1
     9    21    22   ar
    10    22    23   ar
    11    23    24   ar
    12    24    25    1
    13    24    26   ar
    14    26    27   ar
    15    27    28    1
    16     7     8   ar
    17     8     9   ar
    18     9    10   ar
    19    10    11   ar
    20    11    12    1
    21    12    13   ar
    22    13    14    1
    23    13    15   ar
    24    15    16   ar
    25    16    17   ar
    26    17    18   ar
    27    18    19    1
    28    11     2   ar
    29    18    12   ar
    30    10     5   ar
    31    27    21   ar
@<TRIPOS>MOLECULE
*****
 28 31 0 0 0
SMALL
GASTEIGER

@<TRIPOS>ATOM
      1 O           4.7820   -0.6511   16.8456 O.2     1  UNL1       -0.2651
      2 C           5.6611   -1.2428   17.9073 C.ar    1  UNL1        0.2821
      3 N           6.9709   -1.8704   17.5326 N.ar    1  UNL1       -0.1855
      4 C           7.8500   -2.4622   18.5942 C.ar    1  UNL1        0.2029
      5 N           7.4191   -2.4263   20.0306 N.ar    1  UNL1       -0.2088
      6 N           8.2982   -3.0181   21.0922 N.ar    1  UNL1       -0.1571
      7 C           7.8673   -2.9822   22.5286 C.ar    1  UNL1        0.1309
      8 C           6.5575   -2.3546   22.9033 C.ar    1  UNL1        0.0291
      9 C           5.6784   -1.7629   21.8416 C.ar    1  UNL1        0.0215
     10 C           6.1093   -1.7987   20.4053 C.ar    1  UNL1        0.0893
     11 C           5.2302   -1.2070   19.3436 C.ar    1  UNL1        0.0772
     12 C           3.9204   -0.5794   19.7183 C.ar    1  UNL1        0.0273
     13 C           2.6883   -1.4273   19.8339 C.ar    1  UNL1        0.0587
     14 CL          2.7662   -2.9027   19.5749 Cl      1  UNL1       -0.0822
     15 C           1.3785   -0.7997   20.2086 C.ar    1  UNL1        0.0114
     16 C           1.3006    0.6758   20.4677 C.ar    1  UNL1        0.0017
     17 C           2.5326    1.5236   20.3520 C.ar    1  UNL1        0.0114
     18 C           3.8425    0.8960   19.9773 C.ar    1  UNL1        0.0587
     19 CL          5.0745    1.7439   19.8617 Cl      1  UNL1       -0.0822
     20 S           8.7464   -3.5740   23.5903 S.3     1  UNL1       -0.0641
     21 C           8.3116   -4.8097   24.3211 C.ar    1  UNL1        0.0585
     22 C           8.6455   -6.1640   23.7693 C.ar    1  UNL1        0.0111
     23 C           8.2108   -7.3996   24.5001 C.ar    1  UNL1        0.0303
     24 C           7.4421   -7.2810   25.7828 C.ar    1  UNL1        0.1424
     25 F           7.0074   -8.5166   26.5137 F       1  UNL1       -0.2041
     26 C           7.1083   -5.9267   26.3346 C.ar    1  UNL1        0.0598
     27 C           7.5430   -4.6911   25.6037 C.ar    1  UNL1        0.1483
     28 F           7.2092   -3.3368   26.1556 F       1  UNL1       -0.2036
@<TRIPOS>BOND
     1     1     2    2
     2     2     3   ar
     3     3     4   ar
     4     4     5   ar
     5     5     6   ar
     6     6     7   ar
     7     7    20    1
     8    20    21    1
     9    21    22   ar
    10    22    23   ar
    11    23    24   ar
    12    24    25    1
    13    24    26   ar
    14    26    27   ar
    15    27    28    1
    16     7     8   ar
    17     8     9   ar
    18     9    10   ar
    19    10    11   ar
    20    11    12    1
    21    12    13   ar
    22    13    14    1
    23    13    15   ar
    24    15    16   ar
    25    16    17   ar
    26    17    18   ar
    27    18    19    1
    28    11     2   ar
    29    18    12   ar
    30    10     5   ar
    31    27    21   ar
@<TRIPOS>MOLECULE
*****
 28 31 0 0 0
SMALL
GASTEIGER

@<TRIPOS>ATOM
      1 O           4.7905   -0.6703   16.8596 O.2     1  UNL1       -0.2651
      2 C           5.6772   -1.2606   17.9158 C.ar    1  UNL1        0.2821
      3 N           6.9878   -1.8820   17.5334 N.ar    1  UNL1       -0.1855
      4 C           7.8745   -2.4722   18.5895 C.ar    1  UNL1        0.2029
      5 N           7.4506   -2.4411   20.0280 N.ar    1  UNL1       -0.2088
      6 N           8.3373   -3.0313   21.0841 N.ar    1  UNL1       -0.1571
      7 C           7.9134   -3.0002   22.5226 C.ar    1  UNL1        0.1309
      8 C           6.6028   -2.3788   22.9050 C.ar    1  UNL1        0.0291
      9 C           5.7161   -1.7886   21.8489 C.ar    1  UNL1        0.0215
     10 C           6.1400   -1.8197   20.4105 C.ar    1  UNL1        0.0893
     11 C           5.2533   -1.2294   19.3543 C.ar    1  UNL1        0.0772
     12 C           3.9427   -0.6081   19.7367 C.ar    1  UNL1        0.0273
     13 C           3.8588    0.8675   19.9935 C.ar    1  UNL1        0.0587
     14 CL          5.0855    1.7215   19.8680 Cl      1  UNL1       -0.0822
     15 C           2.5482    1.4888   20.3759 C.ar    1  UNL1        0.0114
     16 C           1.3215    0.6347   20.5015 C.ar    1  UNL1        0.0017
     17 C           1.4054   -0.8407   20.2447 C.ar    1  UNL1        0.0114
     18 C           2.7160   -1.4621   19.8623 C.ar    1  UNL1        0.0587
     19 CL          2.7999   -2.9376   19.6054 Cl      1  UNL1       -0.0822
     20 S           8.8001   -3.5905   23.5788 S.3     1  UNL1       -0.0641
     21 C           8.3765   -4.8324   24.3055 C.ar    1  UNL1        0.0585
     22 C           8.6829   -6.1817   23.7261 C.ar    1  UNL1        0.0111
     23 C           8.2594   -7.4237   24.4528 C.ar    1  UNL1        0.0303
     24 C           7.5293   -7.3164   25.7588 C.ar    1  UNL1        0.1424
     25 F           7.1058   -8.5584   26.4855 F       1  UNL1       -0.2041
     26 C           7.2229   -5.9672   26.3381 C.ar    1  UNL1        0.0598
     27 C           7.6465   -4.7252   25.6114 C.ar    1  UNL1        0.1483
     28 F           7.3401   -3.3759   26.1908 F       1  UNL1       -0.2036
@<TRIPOS>BOND
     1     1     2    2
     2     2     3   ar
     3     3     4   ar
     4     4     5   ar
     5     5     6   ar
     6     6     7   ar
     7     7    20    1
     8    20    21    1
     9    21    22   ar
    10    22    23   ar
    11    23    24   ar
    12    24    25    1
    13    24    26   ar
    14    26    27   ar
    15    27    28    1
    16     7     8   ar
    17     8     9   ar
    18     9    10   ar
    19    10    11   ar
    20    11    12    1
    21    12    13   ar
    22    13    14    1
    23    13    15   ar
    24    15    16   ar
    25    16    17   ar
    26    17    18   ar
    27    18    19    1
    28    11     2   ar
    29    18    12   ar
    30    10     5   ar
    31    27    21   ar
