@<TRIPOS>MOLECULE
*****
 36 39 0 0 0
SMALL
GASTEIGER

@<TRIPOS>ATOM
      1 N           6.8569   -3.7422   22.2985 N.ar    1  UNL1       -0.2459
      2 C           6.2976   -3.3732   23.6405 C.ar    1  UNL1        0.1116
      3 C           6.7371   -4.4133   24.6279 C.ar    1  UNL1        0.0908
      4 C           7.5681   -5.4252   23.8961 C.ar    1  UNL1        0.1363
      5 N           7.6421   -5.0104   22.4565 N.ar    1  UNL1       -0.1661
      6 N           6.4041   -4.4374   26.0902 N.am    1  UNL1       -0.2762
      7 C           7.4599   -4.1134   27.1052 C.2     1  UNL1        0.2754
      8 O           8.8487   -3.7653   26.6579 O.2     1  UNL1       -0.2675
      9 H           5.4926   -4.6658   26.3838 H       1  UNL1        0.1553
     10 C           7.1269   -4.1374   28.5676 C.ar    1  UNL1        0.1872
     11 N           7.0545   -5.3587   29.4354 N.ar    1  UNL1       -0.1361
     12 N           6.6907   -4.9204   30.8231 N.ar    1  UNL1       -0.1391
     13 C           6.5381   -3.4282   30.8128 C.ar    1  UNL1        0.1514
     14 S           6.8077   -2.9443   29.4188 S.2     1  UNL1       -0.0395
     15 C           6.1790   -2.5706   31.9899 C.ar    1  UNL1        0.1068
     16 C           7.1827   -1.6063   32.5493 C.ar    1  UNL1        0.0213
     17 C           6.8236   -0.7487   33.7264 C.ar    1  UNL1        0.0032
     18 C           5.4608   -0.8553   34.3440 C.ar    1  UNL1        0.0207
     19 C           4.4571   -1.8195   33.7846 C.ar    1  UNL1        0.0989
     20 N           4.8162   -2.6771   32.6076 N.ar    1  UNL1       -0.2417
     21 C           7.7542   -2.9522   19.9918 C.3     1  UNL1        0.0312
     22 C           6.6648   -2.9772   21.0226 C.3     1  UNL1        0.1274
     23 C           5.3832   -2.2373   20.7775 C.ar    1  UNL1        0.0038
     24 C           5.2033   -0.8495   21.3176 C.ar    1  UNL1       -0.0025
     25 C           3.9217   -0.1097   21.0724 C.ar    1  UNL1        0.0036
     26 C           2.8200   -0.7576   20.2872 C.ar    1  UNL1        0.0714
     27 C           2.9999   -2.1453   19.7471 C.ar    1  UNL1        0.0074
     28 C           4.2815   -2.8852   19.9922 C.ar    1  UNL1        0.0692
     29 C           1.5384   -0.0176   20.0421 C.3     1  UNL1        0.4186
     30 F           0.2569    0.7223   19.7970 F       1  UNL1       -0.1659
     31 F           0.7751   -1.3045   20.1481 F       1  UNL1       -0.1659
     32 F           2.3017    1.2693   19.9361 F       1  UNL1       -0.1659
     33 C           4.4615   -4.2730   19.4521 C.3     1  UNL1        0.4183
     34 F           4.6414   -5.6607   18.9121 F       1  UNL1       -0.1659
     35 F           3.8560   -4.8381   20.7027 F       1  UNL1       -0.1659
     36 F           5.0669   -3.7078   18.2015 F       1  UNL1       -0.1659
@<TRIPOS>BOND
     1    22    21    1
     2    22    23    1
     3    23    24   ar
     4    24    25   ar
     5    25    26   ar
     6    26    29    1
     7    29    30    1
     8    29    31    1
     9    29    32    1
    10    26    27   ar
    11    27    28   ar
    12    28    33    1
    13    33    34    1
    14    33    35    1
    15    33    36    1
    16    22     1    1
    17     1     2   ar
    18     2     3   ar
    19     3     6    1
    20     6     7   am
    21     7     8    2
    22     7    10    1
    23    10    11   ar
    24    11    12   ar
    25    12    13   ar
    26    13    15    1
    27    15    16   ar
    28    16    17   ar
    29    17    18   ar
    30    18    19   ar
    31    19    20   ar
    32    13    14   ar
    33     3     4   ar
    34     4     5   ar
    35    28    23   ar
    36     5     1   ar
    37    14    10   ar
    38    20    15   ar
    39     6     9    1
@<TRIPOS>MOLECULE
*****
 36 39 0 0 0
SMALL
GASTEIGER

@<TRIPOS>ATOM
      1 N           2.4298    0.9332   22.8821 N.ar    1  UNL1       -0.2459
      2 C           2.7996    0.5362   24.2805 C.ar    1  UNL1        0.1116
      3 C           1.6269    0.8255   25.1699 C.ar    1  UNL1        0.0908
      4 C           0.5323    1.4013   24.3212 C.ar    1  UNL1        0.1363
      5 N           1.0286    1.4678   22.9072 N.ar    1  UNL1       -0.1661
      6 N           1.5604    0.5817   26.6485 N.am    1  UNL1       -0.2762
      7 C           1.9270    1.6764   27.6063 C.2     1  UNL1        0.2754
      8 O           2.3600    3.0148   27.0855 O.2     1  UNL1       -0.2675
      9 H           1.2762   -0.2967   26.9903 H       1  UNL1        0.1553
     10 C           1.8605    1.4327   29.0848 C.ar    1  UNL1        0.1872
     11 N           0.6988    1.7495   29.9793 N.ar    1  UNL1       -0.1361
     12 N           1.0645    1.3419   31.3758 N.ar    1  UNL1       -0.1391
     13 C           2.4521    0.7732   31.3444 C.ar    1  UNL1        0.1514
     14 S           2.9442    0.8293   29.9285 S.2     1  UNL1       -0.0395
     15 C           3.2140    0.2417   32.5222 C.ar    1  UNL1        0.1068
     16 C           3.5802    1.1564   33.6533 C.ar    1  UNL1        0.0213
     17 C           4.3421    0.6250   34.8310 C.ar    1  UNL1        0.0032
     18 C           4.7378   -0.8212   34.8777 C.ar    1  UNL1        0.0207
     19 C           4.3716   -1.7358   33.7466 C.ar    1  UNL1        0.0989
     20 N           3.6097   -1.2043   32.5689 N.ar    1  UNL1       -0.2417
     21 C           3.8947    2.0479   21.0487 C.3     1  UNL1        0.0312
     22 C           3.3073    0.8161   21.6711 C.3     1  UNL1        0.1274
     23 C           3.5972   -0.5329   21.0826 C.ar    1  UNL1        0.0038
     24 C           4.7220   -1.3626   21.6270 C.ar    1  UNL1       -0.0025
     25 C           5.0119   -2.7115   21.0385 C.ar    1  UNL1        0.0036
     26 C           4.1770   -3.2307   19.9057 C.ar    1  UNL1        0.0714
     27 C           3.0522   -2.4010   19.3613 C.ar    1  UNL1        0.0074
     28 C           2.7623   -1.0521   19.9498 C.ar    1  UNL1        0.0692
     29 C           4.4670   -4.5797   19.3172 C.3     1  UNL1        0.4186
     30 F           4.7570   -5.9286   18.7287 F       1  UNL1       -0.1659
     31 F           3.0143   -4.7459   18.9823 F       1  UNL1       -0.1659
     32 F           5.9196   -4.4135   19.6521 F       1  UNL1       -0.1659
     33 C           1.6375   -0.2223   19.4054 C.3     1  UNL1        0.4183
     34 F           0.5128    0.6074   18.8610 F       1  UNL1       -0.1659
     35 F           2.5731    0.3900   18.4056 F       1  UNL1       -0.1659
     36 F           0.7019   -0.8346   20.4052 F       1  UNL1       -0.1659
@<TRIPOS>BOND
     1    22    21    1
     2    22    23    1
     3    23    24   ar
     4    24    25   ar
     5    25    26   ar
     6    26    29    1
     7    29    30    1
     8    29    31    1
     9    29    32    1
    10    26    27   ar
    11    27    28   ar
    12    28    33    1
    13    33    34    1
    14    33    35    1
    15    33    36    1
    16    22     1    1
    17     1     2   ar
    18     2     3   ar
    19     3     6    1
    20     6     7   am
    21     7     8    2
    22     7    10    1
    23    10    11   ar
    24    11    12   ar
    25    12    13   ar
    26    13    15    1
    27    15    16   ar
    28    16    17   ar
    29    17    18   ar
    30    18    19   ar
    31    19    20   ar
    32    13    14   ar
    33     3     4   ar
    34     4     5   ar
    35    28    23   ar
    36     5     1   ar
    37    14    10   ar
    38    20    15   ar
    39     6     9    1
@<TRIPOS>MOLECULE
*****
 36 39 0 0 0
SMALL
GASTEIGER

@<TRIPOS>ATOM
      1 N           2.2854    0.9814   22.7421 N.ar    1  UNL1       -0.2459
      2 C           2.4655    0.7187   24.2079 C.ar    1  UNL1        0.1116
      3 C           1.1757    1.0472   24.8996 C.ar    1  UNL1        0.0908
      4 C           0.1984    1.5129   23.8614 C.ar    1  UNL1        0.1363
      5 N           0.8842    1.4722   22.5279 N.ar    1  UNL1       -0.1661
      6 N           0.9099    0.9305   26.3713 N.am    1  UNL1       -0.2762
      7 C           0.9405    2.1542   27.2383 C.2     1  UNL1        0.2754
      8 O           1.2370    3.4945   26.6336 O.2     1  UNL1       -0.2675
      9 H           0.7154    0.0508   26.7681 H       1  UNL1        0.1553
     10 C           0.6747    2.0375   28.7099 C.ar    1  UNL1        0.1872
     11 N          -0.2847    1.0850   29.3598 N.ar    1  UNL1       -0.1361
     12 N          -0.2306    1.3117   30.8416 N.ar    1  UNL1       -0.1391
     13 C           0.7622    2.4042   31.1075 C.ar    1  UNL1        0.1514
     14 S           1.3218    2.8528   29.7900 S.2     1  UNL1       -0.0395
     15 C           1.1307    2.9520   32.4544 C.ar    1  UNL1        0.1068
     16 C           0.6349    4.3036   32.8756 C.ar    1  UNL1        0.0213
     17 C           1.0034    4.8514   34.2225 C.ar    1  UNL1        0.0032
     18 C           1.8678    4.0476   35.1482 C.ar    1  UNL1        0.0207
     19 C           2.3635    2.6960   34.7270 C.ar    1  UNL1        0.0989
     20 N           1.9950    2.1482   33.3801 N.ar    1  UNL1       -0.2417
     21 C           4.1164    1.9597   21.1800 C.3     1  UNL1        0.0312
     22 C           3.3240    0.7873   21.6774 C.3     1  UNL1        0.1274
     23 C           3.5703   -0.5794   21.1102 C.ar    1  UNL1        0.0038
     24 C           4.6255   -1.4612   21.7094 C.ar    1  UNL1       -0.0025
     25 C           4.8717   -2.8277   21.1421 C.ar    1  UNL1        0.0036
     26 C           4.0628   -3.3125   19.9757 C.ar    1  UNL1        0.0714
     27 C           3.0076   -2.4308   19.3765 C.ar    1  UNL1        0.0074
     28 C           2.7614   -1.0642   19.9437 C.ar    1  UNL1        0.0692
     29 C           4.3091   -4.6792   19.4084 C.3     1  UNL1        0.4186
     30 F           4.5553   -6.0457   18.8412 F       1  UNL1       -0.1659
     31 F           5.7703   -4.5450   19.7195 F       1  UNL1       -0.1659
     32 F           2.8479   -4.8133   19.0973 F       1  UNL1       -0.1659
     33 C           1.7062   -0.1824   19.3445 C.3     1  UNL1        0.4183
     34 F           0.6510    0.6994   18.7454 F       1  UNL1       -0.1659
     35 F           0.6777   -0.8026   20.2430 F       1  UNL1       -0.1659
     36 F           2.7347    0.4379   18.4460 F       1  UNL1       -0.1659
@<TRIPOS>BOND
     1    22    21    1
     2    22    23    1
     3    23    24   ar
     4    24    25   ar
     5    25    26   ar
     6    26    29    1
     7    29    30    1
     8    29    31    1
     9    29    32    1
    10    26    27   ar
    11    27    28   ar
    12    28    33    1
    13    33    34    1
    14    33    35    1
    15    33    36    1
    16    22     1    1
    17     1     2   ar
    18     2     3   ar
    19     3     6    1
    20     6     7   am
    21     7     8    2
    22     7    10    1
    23    10    11   ar
    24    11    12   ar
    25    12    13   ar
    26    13    15    1
    27    15    16   ar
    28    16    17   ar
    29    17    18   ar
    30    18    19   ar
    31    19    20   ar
    32    13    14   ar
    33     3     4   ar
    34     4     5   ar
    35    28    23   ar
    36     5     1   ar
    37    14    10   ar
    38    20    15   ar
    39     6     9    1
@<TRIPOS>MOLECULE
*****
 36 39 0 0 0
SMALL
GASTEIGER

@<TRIPOS>ATOM
      1 N           2.7111    1.0604   22.6354 N.ar    1  UNL1       -0.2459
      2 C           2.9872    0.5421   24.0156 C.ar    1  UNL1        0.1116
      3 C           1.8446    0.9460   24.8996 C.ar    1  UNL1        0.0908
      4 C           0.8624    1.7140   24.0657 C.ar    1  UNL1        0.1363
      5 N           1.3979    1.7847   22.6664 N.ar    1  UNL1       -0.1661
      6 N           1.7083    0.6362   26.3609 N.am    1  UNL1       -0.2762
      7 C           2.2235    1.6046   27.3841 C.2     1  UNL1        0.2754
      8 O           2.8751    2.8827   26.9459 O.2     1  UNL1       -0.2675
      9 H           1.2806   -0.2026   26.6485 H       1  UNL1        0.1553
     10 C           2.0872    1.2949   28.8454 C.ar    1  UNL1        0.1872
     11 N           0.8360    1.4281   29.6619 N.ar    1  UNL1       -0.1361
     12 N           1.1537    1.0131   31.0679 N.ar    1  UNL1       -0.1391
     13 C           2.6012    0.6234   31.1204 C.ar    1  UNL1        0.1514
     14 S           3.1782    0.7975   29.7467 S.2     1  UNL1       -0.0395
     15 C           3.3418    0.1437   32.3334 C.ar    1  UNL1        0.1068
     16 C           3.9059   -1.2458   32.3671 C.ar    1  UNL1        0.0213
     17 C           4.6465   -1.7254   33.5801 C.ar    1  UNL1        0.0032
     18 C           4.8229   -0.8155   34.7596 C.ar    1  UNL1        0.0207
     19 C           4.2588    0.5739   34.7259 C.ar    1  UNL1        0.0989
     20 N           3.5183    1.0535   33.5128 N.ar    1  UNL1       -0.2417
     21 C           4.2280    2.0814   20.7897 C.3     1  UNL1        0.0312
     22 C           3.5933    0.8853   21.4349 C.3     1  UNL1        0.1274
     23 C           3.8408   -0.4861   20.8798 C.ar    1  UNL1        0.0038
     24 C           5.0242   -1.2814   21.3454 C.ar    1  UNL1       -0.0025
     25 C           5.2717   -2.6527   20.7902 C.ar    1  UNL1        0.0036
     26 C           4.3356   -3.2287   19.7694 C.ar    1  UNL1        0.0714
     27 C           3.1522   -2.4334   19.3038 C.ar    1  UNL1        0.0074
     28 C           2.9048   -1.0621   19.8589 C.ar    1  UNL1        0.0692
     29 C           4.5831   -4.6001   19.2142 C.3     1  UNL1        0.4186
     30 F           4.8305   -5.9714   18.6591 F       1  UNL1       -0.1659
     31 F           6.0044   -4.5360   19.6894 F       1  UNL1       -0.1659
     32 F           3.1618   -4.6642   18.7391 F       1  UNL1       -0.1659
     33 C           1.7212   -0.2667   19.3933 C.3     1  UNL1        0.4183
     34 F           0.5378    0.5286   18.9277 F       1  UNL1       -0.1659
     35 F           0.8941   -0.8494   20.5006 F       1  UNL1       -0.1659
     36 F           2.5484    0.3159   18.2860 F       1  UNL1       -0.1659
@<TRIPOS>BOND
     1    22    21    1
     2    22    23    1
     3    23    24   ar
     4    24    25   ar
     5    25    26   ar
     6    26    29    1
     7    29    30    1
     8    29    31    1
     9    29    32    1
    10    26    27   ar
    11    27    28   ar
    12    28    33    1
    13    33    34    1
    14    33    35    1
    15    33    36    1
    16    22     1    1
    17     1     2   ar
    18     2     3   ar
    19     3     6    1
    20     6     7   am
    21     7     8    2
    22     7    10    1
    23    10    11   ar
    24    11    12   ar
    25    12    13   ar
    26    13    15    1
    27    15    16   ar
    28    16    17   ar
    29    17    18   ar
    30    18    19   ar
    31    19    20   ar
    32    13    14   ar
    33     3     4   ar
    34     4     5   ar
    35    28    23   ar
    36     5     1   ar
    37    14    10   ar
    38    20    15   ar
    39     6     9    1
@<TRIPOS>MOLECULE
*****
 36 39 0 0 0
SMALL
GASTEIGER

@<TRIPOS>ATOM
      1 N           4.7783    0.9431   33.5116 N.ar    1  UNL1       -0.2459
      2 C           5.8830    0.1363   32.8963 C.ar    1  UNL1        0.1116
      3 C           5.2716   -0.8011   31.8975 C.ar    1  UNL1        0.0908
      4 C           3.7890   -0.5736   31.8955 C.ar    1  UNL1        0.1363
      5 N           3.4841    0.5043   32.8931 N.ar    1  UNL1       -0.1661
      6 N           6.0128   -1.7919   31.0495 N.am    1  UNL1       -0.2762
      7 C           6.1923   -3.2022   31.5277 C.2     1  UNL1        0.2754
      8 O           5.6307   -3.6217   32.8539 O.2     1  UNL1       -0.2675
      9 H           6.3814   -1.5165   30.1792 H       1  UNL1        0.1553
     10 C           6.9334   -4.1930   30.6798 C.ar    1  UNL1        0.1872
     11 N           8.0098   -5.1256   31.1506 N.ar    1  UNL1       -0.1361
     12 N           8.4699   -5.9341   29.9739 N.ar    1  UNL1       -0.1391
     13 C           7.6779   -5.5013   28.7759 C.ar    1  UNL1        0.1514
     14 S           6.7283   -4.4251   29.2121 S.2     1  UNL1       -0.0395
     15 C           7.8120   -6.0484   27.3857 C.ar    1  UNL1        0.1068
     16 C           8.2395   -7.4711   27.1776 C.ar    1  UNL1        0.0213
     17 C           8.3736   -8.0182   25.7874 C.ar    1  UNL1        0.0032
     18 C           8.0801   -7.1427   24.6053 C.ar    1  UNL1        0.0207
     19 C           7.6526   -5.7200   24.8134 C.ar    1  UNL1        0.0989
     20 N           7.5185   -5.1729   26.2036 N.ar    1  UNL1       -0.2417
     21 C           5.9817    3.0687   34.3968 C.3     1  UNL1        0.0312
     22 C           4.9394    2.0025   34.5611 C.3     1  UNL1        0.1274
     23 C           4.0583    1.9958   35.7751 C.ar    1  UNL1        0.0038
     24 C           2.8954    2.9392   35.8629 C.ar    1  UNL1       -0.0025
     25 C           2.0143    2.9324   37.0768 C.ar    1  UNL1        0.0036
     26 C           2.2961    1.9824   38.2029 C.ar    1  UNL1        0.0714
     27 C           3.4590    1.0391   38.1150 C.ar    1  UNL1        0.0074
     28 C           4.3401    1.0458   36.9011 C.ar    1  UNL1        0.0692
     29 C           1.4149    1.9757   39.4168 C.3     1  UNL1        0.4186
     30 F           0.5338    1.9690   40.6307 F       1  UNL1       -0.1659
     31 F           2.0786    3.2289   39.9055 F       1  UNL1       -0.1659
     32 F           0.7512    0.7224   38.9281 F       1  UNL1       -0.1659
     33 C           5.5030    0.1024   36.8132 C.3     1  UNL1        0.4183
     34 F           6.6659   -0.8409   36.7253 F       1  UNL1       -0.1659
     35 F           6.3749    1.1136   37.4968 F       1  UNL1       -0.1659
     36 F           4.6312   -0.9088   36.1297 F       1  UNL1       -0.1659
@<TRIPOS>BOND
     1    22    21    1
     2    22    23    1
     3    23    24   ar
     4    24    25   ar
     5    25    26   ar
     6    26    29    1
     7    29    30    1
     8    29    31    1
     9    29    32    1
    10    26    27   ar
    11    27    28   ar
    12    28    33    1
    13    33    34    1
    14    33    35    1
    15    33    36    1
    16    22     1    1
    17     1     2   ar
    18     2     3   ar
    19     3     6    1
    20     6     7   am
    21     7     8    2
    22     7    10    1
    23    10    11   ar
    24    11    12   ar
    25    12    13   ar
    26    13    15    1
    27    15    16   ar
    28    16    17   ar
    29    17    18   ar
    30    18    19   ar
    31    19    20   ar
    32    13    14   ar
    33     3     4   ar
    34     4     5   ar
    35    28    23   ar
    36     5     1   ar
    37    14    10   ar
    38    20    15   ar
    39     6     9    1
@<TRIPOS>MOLECULE
*****
 36 39 0 0 0
SMALL
GASTEIGER

@<TRIPOS>ATOM
      1 N           5.3446   -3.8548   21.4128 N.ar    1  UNL1       -0.2459
      2 C           4.9382   -3.5812   22.8306 C.ar    1  UNL1        0.1116
      3 C           6.1228   -3.8464   23.7118 C.ar    1  UNL1        0.0908
      4 C           7.2613   -4.2839   22.8386 C.ar    1  UNL1        0.1363
      5 N           6.7803   -4.2891   21.4178 N.ar    1  UNL1       -0.1661
      6 N           6.1619   -3.6998   25.2041 N.am    1  UNL1       -0.2762
      7 C           6.7077   -4.8098   26.0526 C.2     1  UNL1        0.2754
      8 O           7.2142   -6.0664   25.4088 O.2     1  UNL1       -0.2675
      9 H           5.8295   -2.8751   25.6266 H       1  UNL1        0.1553
     10 C           6.7468   -4.6633   27.5449 C.ar    1  UNL1        0.1872
     11 N           6.9369   -5.7737   28.5352 N.ar    1  UNL1       -0.1361
     12 N           6.9103   -5.1772   29.9113 N.ar    1  UNL1       -0.1391
     13 C           6.7038   -3.6981   29.7714 C.ar    1  UNL1        0.1514
     14 S           6.6028   -3.3804   28.3088 S.2     1  UNL1       -0.0395
     15 C           6.6141   -2.7101   30.8965 C.ar    1  UNL1        0.1068
     16 C           5.7877   -3.0259   32.1079 C.ar    1  UNL1        0.0213
     17 C           5.6980   -2.0379   33.2330 C.ar    1  UNL1        0.0032
     18 C           6.4347   -0.7340   33.1466 C.ar    1  UNL1        0.0207
     19 C           7.2610   -0.4183   31.9353 C.ar    1  UNL1        0.0989
     20 N           7.3507   -1.4063   30.8102 N.ar    1  UNL1       -0.2417
     21 C           4.0600   -4.9378   19.4312 C.3     1  UNL1        0.0312
     22 C           4.4690   -3.7181   20.2026 C.3     1  UNL1        0.1274
     23 C           4.0023   -2.3617   19.7639 C.ar    1  UNL1        0.0038
     24 C           2.6230   -1.8917   20.1197 C.ar    1  UNL1       -0.0025
     25 C           2.1564   -0.5354   19.6809 C.ar    1  UNL1        0.0036
     26 C           3.0691    0.3510   18.8863 C.ar    1  UNL1        0.0714
     27 C           4.4484   -0.1190   18.5305 C.ar    1  UNL1        0.0074
     28 C           4.9150   -1.4753   18.9693 C.ar    1  UNL1        0.0692
     29 C           2.6025    1.7074   18.4476 C.3     1  UNL1        0.4186
     30 F           2.1358    3.0637   18.0088 F       1  UNL1       -0.1659
     31 F           3.9842    2.2514   18.6596 F       1  UNL1       -0.1659
     32 F           1.2208    1.1634   18.2356 F       1  UNL1       -0.1659
     33 C           6.2943   -1.9454   18.6135 C.3     1  UNL1        0.4183
     34 F           7.6736   -2.4155   18.2576 F       1  UNL1       -0.1659
     35 F           5.7279   -2.7513   17.4823 F       1  UNL1       -0.1659
     36 F           6.8608   -1.1395   19.7446 F       1  UNL1       -0.1659
@<TRIPOS>BOND
     1    22    21    1
     2    22    23    1
     3    23    24   ar
     4    24    25   ar
     5    25    26   ar
     6    26    29    1
     7    29    30    1
     8    29    31    1
     9    29    32    1
    10    26    27   ar
    11    27    28   ar
    12    28    33    1
    13    33    34    1
    14    33    35    1
    15    33    36    1
    16    22     1    1
    17     1     2   ar
    18     2     3   ar
    19     3     6    1
    20     6     7   am
    21     7     8    2
    22     7    10    1
    23    10    11   ar
    24    11    12   ar
    25    12    13   ar
    26    13    15    1
    27    15    16   ar
    28    16    17   ar
    29    17    18   ar
    30    18    19   ar
    31    19    20   ar
    32    13    14   ar
    33     3     4   ar
    34     4     5   ar
    35    28    23   ar
    36     5     1   ar
    37    14    10   ar
    38    20    15   ar
    39     6     9    1
@<TRIPOS>MOLECULE
*****
 36 39 0 0 0
SMALL
GASTEIGER

@<TRIPOS>ATOM
      1 N          -0.2642    1.9712   28.0198 N.ar    1  UNL1       -0.2459
      2 C           1.0669    1.5806   28.5903 C.ar    1  UNL1        0.1116
      3 C           0.9502    0.1843   29.1258 C.ar    1  UNL1        0.0908
      4 C          -0.4532   -0.2882   28.8862 C.ar    1  UNL1        0.1363
      5 N          -1.2037    0.8162   28.2027 N.ar    1  UNL1       -0.1661
      6 N           2.0446   -0.6016   29.7850 N.am    1  UNL1       -0.2762
      7 C           2.5552   -0.1902   31.1341 C.2     1  UNL1        0.2754
      8 O           1.9714    1.0070   31.8239 O.2     1  UNL1       -0.2675
      9 H           2.4278   -1.3873   29.3322 H       1  UNL1        0.1553
     10 C           3.6497   -0.9761   31.7933 C.ar    1  UNL1        0.1872
     11 N           3.7436   -1.3026   33.2543 N.ar    1  UNL1       -0.1361
     12 N           4.9944   -2.1017   33.4712 N.ar    1  UNL1       -0.1391
     13 C           5.6735   -2.2691   32.1442 C.ar    1  UNL1        0.1514
     14 S           4.8424   -1.5734   31.1072 S.2     1  UNL1       -0.0395
     15 C           6.9581   -3.0032   31.8976 C.ar    1  UNL1        0.1068
     16 C           8.2488   -2.4566   32.4318 C.ar    1  UNL1        0.0213
     17 C           9.5334   -3.1907   32.1851 C.ar    1  UNL1        0.0032
     18 C           9.5273   -4.4715   31.4043 C.ar    1  UNL1        0.0207
     19 C           8.2366   -5.0181   30.8701 C.ar    1  UNL1        0.0989
     20 N           6.9520   -4.2839   31.1168 N.ar    1  UNL1       -0.2417
     21 C           0.2112    4.5060   27.7063 C.3     1  UNL1        0.0312
     22 C          -0.5974    3.2858   27.3790 C.3     1  UNL1        0.1274
     23 C          -1.7393    3.3802   26.4109 C.ar    1  UNL1        0.0038
     24 C          -3.1112    3.7363   26.9017 C.ar    1  UNL1       -0.0025
     25 C          -4.2530    3.8307   25.9335 C.ar    1  UNL1        0.0036
     26 C          -4.0229    3.5690   24.4745 C.ar    1  UNL1        0.0714
     27 C          -2.6509    3.2129   23.9837 C.ar    1  UNL1        0.0074
     28 C          -1.5091    3.1185   24.9519 C.ar    1  UNL1        0.0692
     29 C          -5.1647    3.6634   23.5064 C.3     1  UNL1        0.4186
     30 F          -6.3065    3.7578   22.5382 F       1  UNL1       -0.1659
     31 F          -6.1176    3.8552   24.6488 F       1  UNL1       -0.1659
     32 F          -4.2119    3.4716   22.3639 F       1  UNL1       -0.1659
     33 C          -0.1371    2.7624   24.4611 C.3     1  UNL1        0.4183
     34 F           1.2349    2.4064   23.9704 F       1  UNL1       -0.1659
     35 F           0.1029    4.1963   24.0918 F       1  UNL1       -0.1659
     36 F          -0.3771    1.3286   24.8304 F       1  UNL1       -0.1659
@<TRIPOS>BOND
     1    22    21    1
     2    22    23    1
     3    23    24   ar
     4    24    25   ar
     5    25    26   ar
     6    26    29    1
     7    29    30    1
     8    29    31    1
     9    29    32    1
    10    26    27   ar
    11    27    28   ar
    12    28    33    1
    13    33    34    1
    14    33    35    1
    15    33    36    1
    16    22     1    1
    17     1     2   ar
    18     2     3   ar
    19     3     6    1
    20     6     7   am
    21     7     8    2
    22     7    10    1
    23    10    11   ar
    24    11    12   ar
    25    12    13   ar
    26    13    15    1
    27    15    16   ar
    28    16    17   ar
    29    17    18   ar
    30    18    19   ar
    31    19    20   ar
    32    13    14   ar
    33     3     4   ar
    34     4     5   ar
    35    28    23   ar
    36     5     1   ar
    37    14    10   ar
    38    20    15   ar
    39     6     9    1
@<TRIPOS>MOLECULE
*****
 36 39 0 0 0
SMALL
GASTEIGER

@<TRIPOS>ATOM
      1 N           5.0059   -3.6649   21.2692 N.ar    1  UNL1       -0.2459
      2 C           4.6716   -3.5107   22.7233 C.ar    1  UNL1        0.1116
      3 C           5.9069   -3.8156   23.5178 C.ar    1  UNL1        0.0908
      4 C           7.0046   -4.1583   22.5547 C.ar    1  UNL1        0.1363
      5 N           6.4477   -4.0651   21.1650 N.ar    1  UNL1       -0.1661
      6 N           6.0238   -3.7834   25.0129 N.am    1  UNL1       -0.2762
      7 C           6.4586   -2.5253   25.7043 C.2     1  UNL1        0.2754
      8 O           6.7763   -1.2992   24.9005 O.2     1  UNL1       -0.2675
      9 H           5.8153   -4.5881   25.5404 H       1  UNL1        0.1553
     10 C           6.5755   -2.4931   27.1993 C.ar    1  UNL1        0.1872
     11 N           7.7307   -3.0098   28.0047 N.ar    1  UNL1       -0.1361
     12 N           7.4269   -2.7746   29.4546 N.ar    1  UNL1       -0.1391
     13 C           6.0840   -2.1126   29.5455 C.ar    1  UNL1        0.1514
     14 S           5.5577   -1.9386   28.1516 S.2     1  UNL1       -0.0395
     15 C           5.3892   -1.6975   30.8084 C.ar    1  UNL1        0.1068
     16 C           5.8048   -2.2897   32.1225 C.ar    1  UNL1        0.0213
     17 C           5.1100   -1.8745   33.3854 C.ar    1  UNL1        0.0032
     18 C           3.9997   -0.8672   33.3342 C.ar    1  UNL1        0.0207
     19 C           3.5842   -0.2750   32.0202 C.ar    1  UNL1        0.0989
     20 N           4.2790   -0.6902   30.7573 N.ar    1  UNL1       -0.2417
     21 C           3.5270   -4.6358   19.3665 C.3     1  UNL1        0.0312
     22 C           4.0637   -3.4557   20.1209 C.3     1  UNL1        0.1274
     23 C           3.6583   -2.0662   19.7271 C.ar    1  UNL1        0.0038
     24 C           2.3599   -1.4966   20.2166 C.ar    1  UNL1       -0.0025
     25 C           1.9545   -0.1072   19.8228 C.ar    1  UNL1        0.0036
     26 C           2.8475    0.7126   18.9393 C.ar    1  UNL1        0.0714
     27 C           4.1459    0.1430   18.4498 C.ar    1  UNL1        0.0074
     28 C           4.5513   -1.2464   18.8436 C.ar    1  UNL1        0.0692
     29 C           2.4421    2.1021   18.5455 C.3     1  UNL1        0.4186
     30 F           2.0366    3.4915   18.1517 F       1  UNL1       -0.1659
     31 F           3.7913    2.3208   17.9278 F       1  UNL1       -0.1659
     32 F           1.0928    1.8834   19.1632 F       1  UNL1       -0.1659
     33 C           5.8497   -1.8160   18.3540 C.3     1  UNL1        0.4183
     34 F           7.1480   -2.3857   17.8645 F       1  UNL1       -0.1659
     35 F           5.1347   -2.4535   17.1998 F       1  UNL1       -0.1659
     36 F           6.5647   -1.1786   19.5083 F       1  UNL1       -0.1659
@<TRIPOS>BOND
     1    22    21    1
     2    22    23    1
     3    23    24   ar
     4    24    25   ar
     5    25    26   ar
     6    26    29    1
     7    29    30    1
     8    29    31    1
     9    29    32    1
    10    26    27   ar
    11    27    28   ar
    12    28    33    1
    13    33    34    1
    14    33    35    1
    15    33    36    1
    16    22     1    1
    17     1     2   ar
    18     2     3   ar
    19     3     6    1
    20     6     7   am
    21     7     8    2
    22     7    10    1
    23    10    11   ar
    24    11    12   ar
    25    12    13   ar
    26    13    15    1
    27    15    16   ar
    28    16    17   ar
    29    17    18   ar
    30    18    19   ar
    31    19    20   ar
    32    13    14   ar
    33     3     4   ar
    34     4     5   ar
    35    28    23   ar
    36     5     1   ar
    37    14    10   ar
    38    20    15   ar
    39     6     9    1
@<TRIPOS>MOLECULE
*****
 36 39 0 0 0
SMALL
GASTEIGER

@<TRIPOS>ATOM
      1 N           1.9949    1.8616   19.9556 N.ar    1  UNL1       -0.2459
      2 C           0.8028    1.7462   20.8587 C.ar    1  UNL1        0.1116
      3 C          -0.3376    2.4794   20.2170 C.ar    1  UNL1        0.0908
      4 C           0.1497    3.0480   18.9173 C.ar    1  UNL1        0.1363
      5 N           1.5912    2.6661   18.7558 N.ar    1  UNL1       -0.1661
      6 N          -1.7222    2.6195   20.7768 N.am    1  UNL1       -0.2762
      7 C          -1.9863    3.5889   21.8905 C.2     1  UNL1        0.2754
      8 O          -0.8659    4.4183   22.4444 O.2     1  UNL1       -0.2675
      9 H          -2.4575    2.0751   20.4132 H       1  UNL1        0.1553
     10 C          -3.3709    3.7290   22.4502 C.ar    1  UNL1        0.1872
     11 N          -4.5952    3.0114   21.9642 N.ar    1  UNL1       -0.1361
     12 N          -5.7552    3.4502   22.8079 N.ar    1  UNL1       -0.1391
     13 C          -5.2479    4.4390   23.8154 C.ar    1  UNL1        0.1514
     14 S          -3.7742    4.6113   23.5943 S.2     1  UNL1       -0.0395
     15 C          -6.0698    5.1335   24.8604 C.ar    1  UNL1        0.1068
     16 C          -5.4830    5.4140   26.2121 C.ar    1  UNL1        0.0213
     17 C          -6.3049    6.1085   27.2571 C.ar    1  UNL1        0.0032
     18 C          -7.7137    6.5225   26.9505 C.ar    1  UNL1        0.0207
     19 C          -8.3005    6.2420   25.5988 C.ar    1  UNL1        0.0989
     20 N          -7.4785    5.5475   24.5538 N.ar    1  UNL1       -0.2417
     21 C           4.4480    2.1339   20.7671 C.3     1  UNL1        0.0312
     22 C           3.3523    1.2753   20.2081 C.3     1  UNL1        0.1274
     23 C           3.6141   -0.1695   19.9016 C.ar    1  UNL1        0.0038
     24 C           3.8133   -0.6109   18.4819 C.ar    1  UNL1       -0.0025
     25 C           4.0750   -2.0557   18.1754 C.ar    1  UNL1        0.0036
     26 C           4.1377   -3.0591   19.2886 C.ar    1  UNL1        0.0714
     27 C           3.9386   -2.6178   20.7083 C.ar    1  UNL1        0.0074
     28 C           3.6768   -1.1730   21.0148 C.ar    1  UNL1        0.0692
     29 C           4.3995   -4.5040   18.9821 C.3     1  UNL1        0.4186
     30 F           4.6612   -5.9488   18.6755 F       1  UNL1       -0.1659
     31 F           5.8404   -4.3226   19.3572 F       1  UNL1       -0.1659
     32 F           2.9586   -4.6854   18.6069 F       1  UNL1       -0.1659
     33 C           3.4777   -0.7315   22.4345 C.3     1  UNL1        0.4183
     34 F           3.2786   -0.2901   23.8541 F       1  UNL1       -0.1659
     35 F           4.9619   -0.5894   22.5984 F       1  UNL1       -0.1659
     36 F           1.9935   -0.8737   22.2706 F       1  UNL1       -0.1659
@<TRIPOS>BOND
     1    22    21    1
     2    22    23    1
     3    23    24   ar
     4    24    25   ar
     5    25    26   ar
     6    26    29    1
     7    29    30    1
     8    29    31    1
     9    29    32    1
    10    26    27   ar
    11    27    28   ar
    12    28    33    1
    13    33    34    1
    14    33    35    1
    15    33    36    1
    16    22     1    1
    17     1     2   ar
    18     2     3   ar
    19     3     6    1
    20     6     7   am
    21     7     8    2
    22     7    10    1
    23    10    11   ar
    24    11    12   ar
    25    12    13   ar
    26    13    15    1
    27    15    16   ar
    28    16    17   ar
    29    17    18   ar
    30    18    19   ar
    31    19    20   ar
    32    13    14   ar
    33     3     4   ar
    34     4     5   ar
    35    28    23   ar
    36     5     1   ar
    37    14    10   ar
    38    20    15   ar
    39     6     9    1
