@<TRIPOS>MOLECULE
*****
 32 35 0 0 0
SMALL
GASTEIGER

@<TRIPOS>ATOM
      1 C          -9.1142  -18.7706   20.9857 C.ar    1  UNL1        0.0949
      2 C          -9.7184  -19.2426   19.6964 C.ar    1  UNL1        0.1454
      3 F         -11.1039  -18.8122   19.3156 F       1  UNL1       -0.2040
      4 C          -8.9370  -20.1449   18.7881 C.ar    1  UNL1        0.0312
      5 C          -7.5514  -20.5753   19.1690 C.ar    1  UNL1        0.0204
      6 C          -6.9473  -20.1032   20.4583 C.ar    1  UNL1        0.0924
      7 C          -7.7287  -19.2009   21.3666 C.ar    1  UNL1        0.1598
      8 F          -7.1246  -18.7288   22.6559 F       1  UNL1       -0.2026
      9 C          -9.8957  -17.8681   21.8941 C.2     1  UNL1        0.2006
     10 O         -10.7254  -16.7596   21.3175 O.2     1  UNL1       -0.2866
     11 C          -8.2683  -15.9875   24.1930 C.2     1  UNL1        0.0659
     12 C          -7.6480  -15.3301   25.3901 C.2     1  UNL1        0.0573
     13 C          -7.8719  -15.9006   26.7592 C.2     1  UNL1        0.2361
     14 N          -8.7160  -17.1286   26.9312 N.2     1  UNL1       -0.0340
     15 C          -9.3362  -17.7860   25.7341 C.2     1  UNL1        0.3601
     16 N         -10.2095  -18.9975   25.5943 N.2     1  UNL1       -0.0342
     17 C         -10.5254  -19.1758   24.1388 C.2     1  UNL1        0.2354
     18 C          -9.8473  -18.0744   23.3791 C.2     1  UNL1        0.0799
     19 C          -9.1124  -17.2154   24.3650 C.3     1  UNL1        0.1729
     20 N          -7.8206  -14.8464   21.4549 N.1     1  UNL1       -0.1911
     21 C          -8.0445  -15.4170   22.8240 C.1     1  UNL1        0.0971
     22 N          -5.5617  -20.5336   20.8392 N.pl3   1  UNL1       -0.2128
     23 H          -5.3939  -21.4630   21.1169 H       1  UNL1        0.1738
     24 S          -4.4320  -19.5478   20.7968 S.O2    1  UNL1        0.0751
     25 O          -4.2471  -19.6960   22.2780 O.2     1  UNL1       -0.1499
     26 O          -4.6168  -19.3995   19.3157 O.2     1  UNL1       -0.1499
     27 C          -3.3023  -18.5620   20.7544 C.ar    1  UNL1        0.1442
     28 C          -2.3916  -18.5156   19.5633 C.ar    1  UNL1        0.0234
     29 C          -1.2618  -17.5299   19.5208 C.ar    1  UNL1        0.0221
     30 C          -1.0427  -16.5903   20.6694 C.ar    1  UNL1        0.0990
     31 N          -1.9533  -16.6366   21.8604 N.ar    1  UNL1       -0.2409
     32 C          -3.0831  -17.6224   21.9030 C.ar    1  UNL1        0.1190
@<TRIPOS>BOND
     1    20    21    3
     2    21    11    1
     3    11    12    2
     4    12    13    1
     5    13    14    2
     6    14    15    1
     7    15    16    2
     8    16    17    1
     9    17    18    2
    10    18     9    1
    11     9    10    2
    12     9     1    1
    13     1     2   ar
    14     2     3    1
    15     2     4   ar
    16     4     5   ar
    17     5     6   ar
    18     6    22    1
    19    22    24    1
    20    24    25    2
    21    24    26    2
    22    24    27    1
    23    27    28   ar
    24    28    29   ar
    25    29    30   ar
    26    30    31   ar
    27    31    32   ar
    28     6     7   ar
    29     7     8    1
    30    18    19    1
    31    19    11    1
    32    19    15    1
    33     7     1   ar
    34    32    27   ar
    35    22    23    1
@<TRIPOS>MOLECULE
*****
 32 35 0 0 0
SMALL
GASTEIGER

@<TRIPOS>ATOM
      1 C          -9.0634  -18.3598   21.1740 C.ar    1  UNL1        0.0949
      2 C          -9.7755  -18.8396   19.9441 C.ar    1  UNL1        0.1454
      3 F         -11.1433  -18.3177   19.6177 F       1  UNL1       -0.2040
      4 C          -9.1196  -19.8414   19.0406 C.ar    1  UNL1        0.0312
      5 C          -7.7518  -20.3634   19.3670 C.ar    1  UNL1        0.0204
      6 C          -7.0397  -19.8835   20.5969 C.ar    1  UNL1        0.0924
      7 C          -7.6955  -18.8818   21.5004 C.ar    1  UNL1        0.1598
      8 F          -6.9835  -18.4019   22.7303 F       1  UNL1       -0.2026
      9 C          -9.7192  -17.3580   22.0776 C.2     1  UNL1        0.2006
     10 O         -11.2153  -17.2719   22.1412 O.2     1  UNL1       -0.2866
     11 C          -9.2582  -17.4662   25.4311 C.2     1  UNL1        0.0659
     12 C          -8.8952  -17.2993   26.8769 C.2     1  UNL1        0.0573
     13 C          -7.9752  -16.1913   27.2961 C.2     1  UNL1        0.2361
     14 N          -7.4180  -15.2501   26.2695 N.2     1  UNL1       -0.0340
     15 C          -7.7810  -15.4170   24.8238 C.2     1  UNL1        0.3601
     16 N          -7.3901  -14.6495   23.5957 N.2     1  UNL1       -0.0342
     17 C          -8.0685  -15.2831   22.4175 C.2     1  UNL1        0.2354
     18 C          -8.8788  -16.4423   22.9174 C.2     1  UNL1        0.0799
     19 C          -8.7011  -16.5251   24.4045 C.3     1  UNL1        0.1729
     20 N         -11.0983  -19.6822   24.5926 N.1     1  UNL1       -0.1911
     21 C         -10.1783  -18.5742   25.0118 C.1     1  UNL1        0.0971
     22 N          -5.6719  -20.4055   20.9233 N.pl3   1  UNL1       -0.2128
     23 H          -5.5581  -21.3382   21.2171 H       1  UNL1        0.1738
     24 S          -4.4774  -19.5063   20.8020 S.O2    1  UNL1        0.0751
     25 O          -4.2127  -19.6599   22.2704 O.2     1  UNL1       -0.1499
     26 O          -4.7421  -19.3528   19.3336 O.2     1  UNL1       -0.1499
     27 C          -3.2829  -18.6072   20.6806 C.ar    1  UNL1        0.1442
     28 C          -2.4398  -18.6434   19.4405 C.ar    1  UNL1        0.0234
     29 C          -1.2453  -17.7443   19.3190 C.ar    1  UNL1        0.0221
     30 C          -0.8939  -16.8089   20.4377 C.ar    1  UNL1        0.0990
     31 N          -1.7370  -16.7726   21.6778 N.ar    1  UNL1       -0.2409
     32 C          -2.9315  -17.6718   21.7993 C.ar    1  UNL1        0.1190
@<TRIPOS>BOND
     1    20    21    3
     2    21    11    1
     3    11    12    2
     4    12    13    1
     5    13    14    2
     6    14    15    1
     7    15    16    2
     8    16    17    1
     9    17    18    2
    10    18     9    1
    11     9    10    2
    12     9     1    1
    13     1     2   ar
    14     2     3    1
    15     2     4   ar
    16     4     5   ar
    17     5     6   ar
    18     6    22    1
    19    22    24    1
    20    24    25    2
    21    24    26    2
    22    24    27    1
    23    27    28   ar
    24    28    29   ar
    25    29    30   ar
    26    30    31   ar
    27    31    32   ar
    28     6     7   ar
    29     7     8    1
    30    18    19    1
    31    19    11    1
    32    19    15    1
    33     7     1   ar
    34    32    27   ar
    35    22    23    1
@<TRIPOS>MOLECULE
*****
 32 35 0 0 0
SMALL
GASTEIGER

@<TRIPOS>ATOM
      1 C          -8.5276  -18.9078   20.8285 C.ar    1  UNL1        0.0949
      2 C          -9.2859  -19.5155   19.6858 C.ar    1  UNL1        0.1454
      3 F         -10.7122  -19.1225   19.4388 F       1  UNL1       -0.2040
      4 C          -8.6177  -20.5161   18.7901 C.ar    1  UNL1        0.0312
      5 C          -7.1913  -20.9091   19.0371 C.ar    1  UNL1        0.0204
      6 C          -6.4331  -20.3014   20.1799 C.ar    1  UNL1        0.0924
      7 C          -7.1013  -19.3008   21.0755 C.ar    1  UNL1        0.1598
      8 F          -6.3431  -18.6931   22.2183 F       1  UNL1       -0.2026
      9 C          -9.1958  -17.9071   21.7243 C.2     1  UNL1        0.2006
     10 O          -9.1665  -16.4492   21.3731 O.2     1  UNL1       -0.2866
     11 C         -12.4808  -17.6011   22.4892 C.2     1  UNL1        0.0659
     12 C         -13.8687  -17.5902   23.0580 C.2     1  UNL1        0.0573
     13 C         -14.1303  -18.1872   24.4089 C.2     1  UNL1        0.2361
     14 N         -13.0041  -18.7952   25.1911 N.2     1  UNL1       -0.0340
     15 C         -11.6162  -18.8062   24.6223 C.2     1  UNL1        0.3601
     16 N         -10.3165  -19.3305   25.1569 N.2     1  UNL1       -0.0342
     17 C          -9.2516  -19.0576   24.1364 C.2     1  UNL1        0.2354
     18 C          -9.8931  -18.3645   22.9710 C.2     1  UNL1        0.0799
     19 C         -11.3546  -18.2091   23.2713 C.3     1  UNL1        0.1729
     20 N         -11.9576  -16.4071   19.7872 N.1     1  UNL1       -0.1911
     21 C         -12.2192  -17.0041   21.1382 C.1     1  UNL1        0.0971
     22 N          -5.0067  -20.6944   20.4269 N.pl3   1  UNL1       -0.2128
     23 H          -4.7729  -21.6416   20.5592 H       1  UNL1        0.1738
     24 S          -3.9366  -19.6443   20.4723 S.O2    1  UNL1        0.0751
     25 O          -3.3369  -20.3076   21.6767 O.2     1  UNL1       -0.1499
     26 O          -4.5362  -18.9811   19.2680 O.2     1  UNL1       -0.1499
     27 C          -2.8665  -18.5942   20.5177 C.ar    1  UNL1        0.1442
     28 C          -1.7999  -18.5643   19.4634 C.ar    1  UNL1        0.0234
     29 C          -0.7297  -17.5142   19.5087 C.ar    1  UNL1        0.0221
     30 C          -0.7262  -16.4939   20.6083 C.ar    1  UNL1        0.0990
     31 N          -1.7928  -16.5239   21.6626 N.ar    1  UNL1       -0.2409
     32 C          -2.8629  -17.5740   21.6173 C.ar    1  UNL1        0.1190
@<TRIPOS>BOND
     1    20    21    3
     2    21    11    1
     3    11    12    2
     4    12    13    1
     5    13    14    2
     6    14    15    1
     7    15    16    2
     8    16    17    1
     9    17    18    2
    10    18     9    1
    11     9    10    2
    12     9     1    1
    13     1     2   ar
    14     2     3    1
    15     2     4   ar
    16     4     5   ar
    17     5     6   ar
    18     6    22    1
    19    22    24    1
    20    24    25    2
    21    24    26    2
    22    24    27    1
    23    27    28   ar
    24    28    29   ar
    25    29    30   ar
    26    30    31   ar
    27    31    32   ar
    28     6     7   ar
    29     7     8    1
    30    18    19    1
    31    19    11    1
    32    19    15    1
    33     7     1   ar
    34    32    27   ar
    35    22    23    1
@<TRIPOS>MOLECULE
*****
 32 35 0 0 0
SMALL
GASTEIGER

@<TRIPOS>ATOM
      1 C          -8.1472  -18.0310   21.6169 C.ar    1  UNL1        0.0949
      2 C          -8.6351  -19.0567   20.6370 C.ar    1  UNL1        0.1454
      3 F          -9.9815  -18.8996   19.9949 F       1  UNL1       -0.2040
      4 C          -7.7764  -20.2393   20.2994 C.ar    1  UNL1        0.0312
      5 C          -6.4299  -20.3963   20.9416 C.ar    1  UNL1        0.0204
      6 C          -5.9421  -19.3707   21.9215 C.ar    1  UNL1        0.0924
      7 C          -6.8008  -18.1880   22.2591 C.ar    1  UNL1        0.1598
      8 F          -6.3130  -17.1623   23.2389 F       1  UNL1       -0.2026
      9 C          -9.0059  -16.8483   21.9546 C.2     1  UNL1        0.2006
     10 O          -8.3895  -15.6229   22.5615 O.2     1  UNL1       -0.2866
     11 C         -11.4445  -18.0512   23.9736 C.2     1  UNL1        0.0659
     12 C         -12.6916  -18.5113   24.6685 C.2     1  UNL1        0.0573
     13 C         -14.0247  -18.3542   23.9991 C.2     1  UNL1        0.2361
     14 N         -14.1107  -17.7370   22.6347 N.2     1  UNL1       -0.0340
     15 C         -12.8636  -17.2769   21.9397 C.2     1  UNL1        0.3601
     16 N         -12.6379  -16.6369   20.6020 N.2     1  UNL1       -0.0342
     17 C         -11.1653  -16.3984   20.4448 C.2     1  UNL1        0.2354
     18 C         -10.4809  -16.8911   21.6853 C.2     1  UNL1        0.0799
     19 C         -11.5305  -17.4340   22.6092 C.3     1  UNL1        0.1729
     20 N          -8.7783  -18.3654   25.3126 N.1     1  UNL1       -0.1911
     21 C         -10.1114  -18.2083   24.6431 C.1     1  UNL1        0.0971
     22 N          -4.5957  -19.5277   22.5636 N.pl3   1  UNL1       -0.2128
     23 H          -4.5112  -20.0079   23.4190 H       1  UNL1        0.1738
     24 S          -3.3779  -18.9531   21.9027 S.O2    1  UNL1        0.0751
     25 O          -3.4085  -20.0566   20.8871 O.2     1  UNL1       -0.1499
     26 O          -3.3473  -17.8497   22.9182 O.2     1  UNL1       -0.1499
     27 C          -2.1602  -18.3785   21.2417 C.ar    1  UNL1        0.1442
     28 C          -1.8922  -16.9044   21.3148 C.ar    1  UNL1        0.0234
     29 C          -0.6745  -16.3297   20.6540 C.ar    1  UNL1        0.0221
     30 C           0.2754  -17.2290   19.9199 C.ar    1  UNL1        0.0990
     31 N           0.0075  -18.7031   19.8468 N.ar    1  UNL1       -0.2409
     32 C          -1.2103  -19.2779   20.5077 C.ar    1  UNL1        0.1190
@<TRIPOS>BOND
     1    20    21    3
     2    21    11    1
     3    11    12    2
     4    12    13    1
     5    13    14    2
     6    14    15    1
     7    15    16    2
     8    16    17    1
     9    17    18    2
    10    18     9    1
    11     9    10    2
    12     9     1    1
    13     1     2   ar
    14     2     3    1
    15     2     4   ar
    16     4     5   ar
    17     5     6   ar
    18     6    22    1
    19    22    24    1
    20    24    25    2
    21    24    26    2
    22    24    27    1
    23    27    28   ar
    24    28    29   ar
    25    29    30   ar
    26    30    31   ar
    27    31    32   ar
    28     6     7   ar
    29     7     8    1
    30    18    19    1
    31    19    11    1
    32    19    15    1
    33     7     1   ar
    34    32    27   ar
    35    22    23    1
@<TRIPOS>MOLECULE
*****
 32 35 0 0 0
SMALL
GASTEIGER

@<TRIPOS>ATOM
      1 C          -7.0636  -19.4262   21.4572 C.ar    1  UNL1        0.0949
      2 C          -6.0457  -20.2879   20.7707 C.ar    1  UNL1        0.1454
      3 F          -6.4825  -21.5094   20.0176 F       1  UNL1       -0.2040
      4 C          -4.5911  -19.9281   20.8373 C.ar    1  UNL1        0.0312
      5 C          -4.1543  -18.7066   21.5903 C.ar    1  UNL1        0.0204
      6 C          -5.1722  -17.8448   22.2768 C.ar    1  UNL1        0.0924
      7 C          -6.6268  -18.2047   22.2103 C.ar    1  UNL1        0.1598
      8 F          -7.6448  -17.3430   22.8968 F       1  UNL1       -0.2026
      9 C          -8.5184  -19.7860   21.3907 C.2     1  UNL1        0.2006
     10 O          -9.1632  -20.0600   20.0644 O.2     1  UNL1       -0.2866
     11 C         -11.4220  -18.1923   22.0971 C.2     1  UNL1        0.0659
     12 C         -12.6926  -17.6151   22.6470 C.2     1  UNL1        0.0573
     13 C         -13.1539  -17.9926   24.0234 C.2     1  UNL1        0.2361
     14 N         -12.3446  -18.9474   24.8501 N.2     1  UNL1       -0.0340
     15 C         -11.0740  -19.5247   24.3002 C.2     1  UNL1        0.3601
     16 N         -10.0745  -20.4826   24.8775 N.2     1  UNL1       -0.0342
     17 C          -8.9955  -20.6972   23.8579 C.2     1  UNL1        0.2354
     18 C          -9.3281  -19.8718   22.6504 C.2     1  UNL1        0.0799
     19 C         -10.6128  -19.1471   22.9237 C.3     1  UNL1        0.1729
     20 N         -10.4995  -17.4372   19.3442 N.1     1  UNL1       -0.1911
     21 C         -10.9607  -17.8148   20.7206 C.1     1  UNL1        0.0971
     22 N          -4.7354  -16.6233   23.0299 N.pl3   1  UNL1       -0.2128
     23 H          -3.9267  -16.1360   22.7509 H       1  UNL1        0.1738
     24 S          -5.5307  -16.1443   24.2080 S.O2    1  UNL1        0.0751
     25 O          -6.2813  -15.1994   23.3171 O.2     1  UNL1       -0.1499
     26 O          -4.7801  -17.0892   25.0989 O.2     1  UNL1       -0.1499
     27 C          -6.3260  -15.6653   25.3862 C.ar    1  UNL1        0.1442
     28 C          -7.8198  -15.8017   25.3882 C.ar    1  UNL1        0.0234
     29 C          -8.6152  -15.3228   26.5663 C.ar    1  UNL1        0.0221
     30 C          -7.9167  -14.7074   27.7425 C.ar    1  UNL1        0.0990
     31 N          -6.4229  -14.5709   27.7405 N.ar    1  UNL1       -0.2409
     32 C          -5.6276  -15.0499   26.5623 C.ar    1  UNL1        0.1190
@<TRIPOS>BOND
     1    20    21    3
     2    21    11    1
     3    11    12    2
     4    12    13    1
     5    13    14    2
     6    14    15    1
     7    15    16    2
     8    16    17    1
     9    17    18    2
    10    18     9    1
    11     9    10    2
    12     9     1    1
    13     1     2   ar
    14     2     3    1
    15     2     4   ar
    16     4     5   ar
    17     5     6   ar
    18     6    22    1
    19    22    24    1
    20    24    25    2
    21    24    26    2
    22    24    27    1
    23    27    28   ar
    24    28    29   ar
    25    29    30   ar
    26    30    31   ar
    27    31    32   ar
    28     6     7   ar
    29     7     8    1
    30    18    19    1
    31    19    11    1
    32    19    15    1
    33     7     1   ar
    34    32    27   ar
    35    22    23    1
@<TRIPOS>MOLECULE
*****
 32 35 0 0 0
SMALL
GASTEIGER

@<TRIPOS>ATOM
      1 C           5.9046   -2.0642   19.9980 C.ar    1  UNL1        0.0949
      2 C           6.6054   -0.7959   19.6101 C.ar    1  UNL1        0.1454
      3 F           5.8173    0.3635   19.0766 F       1  UNL1       -0.2040
      4 C           8.0943   -0.6871   19.7558 C.ar    1  UNL1        0.0312
      5 C           8.8825   -1.8465   20.2892 C.ar    1  UNL1        0.0204
      6 C           8.1817   -3.1148   20.6771 C.ar    1  UNL1        0.0924
      7 C           6.6928   -3.2236   20.5314 C.ar    1  UNL1        0.1598
      8 F           5.9919   -4.4918   20.9193 F       1  UNL1       -0.2026
      9 C           4.4156   -2.1730   19.8523 C.2     1  UNL1        0.2006
     10 O           3.8257   -3.1867   18.9174 O.2     1  UNL1       -0.2866
     11 C           2.4413    0.3175   18.6820 C.2     1  UNL1        0.0659
     12 C           1.4984    1.4549   18.4226 C.2     1  UNL1        0.0573
     13 C           0.7704    2.1008   19.5640 C.2     1  UNL1        0.2361
     14 N           0.9853    1.6093   20.9648 N.2     1  UNL1       -0.0340
     15 C           1.9281    0.4719   21.2242 C.2     1  UNL1        0.3601
     16 N           2.3388   -0.2230   22.4885 N.2     1  UNL1       -0.0342
     17 C           3.3206   -1.2983   22.1285 C.2     1  UNL1        0.2354
     18 C           3.5167   -1.2681   20.6417 C.2     1  UNL1        0.0799
     19 C           2.6561   -0.1740   20.0828 C.3     1  UNL1        0.1729
     20 N           3.8973   -0.9744   16.3992 N.1     1  UNL1       -0.1911
     21 C           3.1693   -0.3285   17.5406 C.1     1  UNL1        0.0971
     22 N           8.9698   -4.2742   21.2106 N.pl3   1  UNL1       -0.2128
     23 H           9.7706   -4.5873   20.7311 H       1  UNL1        0.1738
     24 S           8.5379   -4.9565   22.4746 S.O2    1  UNL1        0.0751
     25 O           8.6215   -3.6507   23.2080 O.2     1  UNL1       -0.1499
     26 O           8.4543   -6.2623   21.7412 O.2     1  UNL1       -0.1499
     27 C           8.1059   -5.6389   23.7386 C.ar    1  UNL1        0.1442
     28 C           8.4293   -7.0872   23.9572 C.ar    1  UNL1        0.0234
     29 C           7.9973   -7.7697   25.2212 C.ar    1  UNL1        0.0221
     30 C           7.2420   -7.0039   26.2666 C.ar    1  UNL1        0.0990
     31 N           6.9186   -5.5555   26.0480 N.ar    1  UNL1       -0.2409
     32 C           7.3505   -4.8730   24.7840 C.ar    1  UNL1        0.1190
@<TRIPOS>BOND
     1    20    21    3
     2    21    11    1
     3    11    12    2
     4    12    13    1
     5    13    14    2
     6    14    15    1
     7    15    16    2
     8    16    17    1
     9    17    18    2
    10    18     9    1
    11     9    10    2
    12     9     1    1
    13     1     2   ar
    14     2     3    1
    15     2     4   ar
    16     4     5   ar
    17     5     6   ar
    18     6    22    1
    19    22    24    1
    20    24    25    2
    21    24    26    2
    22    24    27    1
    23    27    28   ar
    24    28    29   ar
    25    29    30   ar
    26    30    31   ar
    27    31    32   ar
    28     6     7   ar
    29     7     8    1
    30    18    19    1
    31    19    11    1
    32    19    15    1
    33     7     1   ar
    34    32    27   ar
    35    22    23    1
@<TRIPOS>MOLECULE
*****
 32 35 0 0 0
SMALL
GASTEIGER

@<TRIPOS>ATOM
      1 C         -15.1183   -2.8929   19.0037 C.ar    1  UNL1        0.0949
      2 C         -16.1664   -1.9422   19.5012 C.ar    1  UNL1        0.1454
      3 F         -15.7889   -0.8324   20.4370 F       1  UNL1       -0.2040
      4 C         -17.5920   -2.1012   19.0628 C.ar    1  UNL1        0.0312
      5 C         -17.9696   -3.2110   18.1269 C.ar    1  UNL1        0.0204
      6 C         -16.9215   -4.1618   17.6295 C.ar    1  UNL1        0.0924
      7 C         -15.4958   -4.0027   18.0679 C.ar    1  UNL1        0.1598
      8 F         -14.4476   -4.9535   17.5705 F       1  UNL1       -0.2026
      9 C         -13.6925   -2.7339   19.4421 C.2     1  UNL1        0.2006
     10 O         -13.2907   -3.1097   20.8375 O.2     1  UNL1       -0.2866
     11 C         -11.1135   -4.4076   18.0217 C.2     1  UNL1        0.0659
     12 C          -9.9160   -4.9131   17.2731 C.2     1  UNL1        0.0573
     13 C          -9.1441   -3.9875   16.3802 C.2     1  UNL1        0.2361
     14 N          -9.5696   -2.5564   16.2358 N.2     1  UNL1       -0.0340
     15 C         -10.7671   -2.0509   16.9844 C.2     1  UNL1        0.3601
     16 N         -11.4198   -0.7015   17.0402 N.2     1  UNL1       -0.0342
     17 C         -12.5951   -0.7931   17.9677 C.2     1  UNL1        0.2354
     18 C         -12.6688   -2.1991   18.4851 C.2     1  UNL1        0.0799
     19 C         -11.5390   -2.9765   17.8774 C.3     1  UNL1        0.1729
     20 N         -12.6574   -6.2587   19.8077 N.1     1  UNL1       -0.1911
     21 C         -11.8855   -5.3332   18.9147 C.1     1  UNL1        0.0971
     22 N         -17.2990   -5.2716   16.6936 N.pl3   1  UNL1       -0.2128
     23 H         -17.6331   -5.0625   15.7915 H       1  UNL1        0.1738
     24 S         -17.1674   -6.6999   17.1323 S.O2    1  UNL1        0.0751
     25 O         -16.1533   -6.9380   16.0531 O.2     1  UNL1       -0.1499
     26 O         -18.1816   -6.4619   18.2116 O.2     1  UNL1       -0.1499
     27 C         -17.0360   -8.1283   17.5711 C.ar    1  UNL1        0.1442
     28 C         -18.2565   -8.9923   17.6880 C.ar    1  UNL1        0.0234
     29 C         -18.1251  -10.4207   18.1268 C.ar    1  UNL1        0.0221
     30 C         -16.7732  -10.9851   18.4486 C.ar    1  UNL1        0.0990
     31 N         -15.5526  -10.1210   18.3317 N.ar    1  UNL1       -0.2409
     32 C         -15.6840   -8.6926   17.8929 C.ar    1  UNL1        0.1190
@<TRIPOS>BOND
     1    20    21    3
     2    21    11    1
     3    11    12    2
     4    12    13    1
     5    13    14    2
     6    14    15    1
     7    15    16    2
     8    16    17    1
     9    17    18    2
    10    18     9    1
    11     9    10    2
    12     9     1    1
    13     1     2   ar
    14     2     3    1
    15     2     4   ar
    16     4     5   ar
    17     5     6   ar
    18     6    22    1
    19    22    24    1
    20    24    25    2
    21    24    26    2
    22    24    27    1
    23    27    28   ar
    24    28    29   ar
    25    29    30   ar
    26    30    31   ar
    27    31    32   ar
    28     6     7   ar
    29     7     8    1
    30    18    19    1
    31    19    11    1
    32    19    15    1
    33     7     1   ar
    34    32    27   ar
    35    22    23    1
@<TRIPOS>MOLECULE
*****
 32 35 0 0 0
SMALL
GASTEIGER

@<TRIPOS>ATOM
      1 C          -6.4339  -19.3621   21.2684 C.ar    1  UNL1        0.0949
      2 C          -7.2343  -20.1630   20.2846 C.ar    1  UNL1        0.1454
      3 F          -6.6020  -21.3189   19.5677 F       1  UNL1       -0.2040
      4 C          -8.6670  -19.8080   20.0178 C.ar    1  UNL1        0.0312
      5 C          -9.2994  -18.6521   20.7347 C.ar    1  UNL1        0.0204
      6 C          -8.4990  -17.8511   21.7185 C.ar    1  UNL1        0.0924
      7 C          -7.0663  -18.2062   21.9854 C.ar    1  UNL1        0.1598
      8 F          -6.2658  -17.4053   22.9692 F       1  UNL1       -0.2026
      9 C          -5.0011  -19.7171   21.5353 C.2     1  UNL1        0.2006
     10 O          -4.6215  -20.3856   22.8233 O.2     1  UNL1       -0.2866
     11 C          -2.5064  -17.4384   21.7675 C.2     1  UNL1        0.0659
     12 C          -1.3338  -16.5142   21.6232 C.2     1  UNL1        0.0573
     13 C          -0.5123  -16.5352   20.3683 C.2     1  UNL1        0.2361
     14 N          -0.8634  -17.4803   19.2577 N.2     1  UNL1       -0.0340
     15 C          -2.0360  -18.4045   19.4021 C.2     1  UNL1        0.3601
     16 N          -2.6189  -19.4374   18.4838 N.2     1  UNL1       -0.0342
     17 C          -3.8006  -20.0549   19.1711 C.2     1  UNL1        0.2354
     18 C          -3.9480  -19.4035   20.5142 C.2     1  UNL1        0.0799
     19 C          -2.8575  -18.3835   20.6570 C.3     1  UNL1        0.1729
     20 N          -4.1493  -17.3965   24.2773 N.1     1  UNL1       -0.1911
     21 C          -3.3278  -17.4174   23.0224 C.1     1  UNL1        0.0971
     22 N          -9.1313  -16.6952   22.4355 N.pl3   1  UNL1       -0.2128
     23 H          -9.9299  -16.2597   22.0589 H       1  UNL1        0.1738
     24 S          -8.5469  -16.2028   23.7262 S.O2    1  UNL1        0.0751
     25 O          -7.8793  -15.0765   22.9942 O.2     1  UNL1       -0.1499
     26 O          -9.2144  -17.3291   24.4581 O.2     1  UNL1       -0.1499
     27 C          -7.9625  -15.7105   25.0169 C.ar    1  UNL1        0.1442
     28 C          -8.7591  -15.8032   26.2845 C.ar    1  UNL1        0.0234
     29 C          -8.1748  -15.3109   27.5754 C.ar    1  UNL1        0.0221
     30 C          -6.7938  -14.7259   27.5986 C.ar    1  UNL1        0.0990
     31 N          -5.9972  -14.6332   26.3310 N.ar    1  UNL1       -0.2409
     32 C          -6.5815  -15.1255   25.0402 C.ar    1  UNL1        0.1190
@<TRIPOS>BOND
     1    20    21    3
     2    21    11    1
     3    11    12    2
     4    12    13    1
     5    13    14    2
     6    14    15    1
     7    15    16    2
     8    16    17    1
     9    17    18    2
    10    18     9    1
    11     9    10    2
    12     9     1    1
    13     1     2   ar
    14     2     3    1
    15     2     4   ar
    16     4     5   ar
    17     5     6   ar
    18     6    22    1
    19    22    24    1
    20    24    25    2
    21    24    26    2
    22    24    27    1
    23    27    28   ar
    24    28    29   ar
    25    29    30   ar
    26    30    31   ar
    27    31    32   ar
    28     6     7   ar
    29     7     8    1
    30    18    19    1
    31    19    11    1
    32    19    15    1
    33     7     1   ar
    34    32    27   ar
    35    22    23    1
@<TRIPOS>MOLECULE
*****
 32 35 0 0 0
SMALL
GASTEIGER

@<TRIPOS>ATOM
      1 C          -6.4509  -19.5247   20.8906 C.ar    1  UNL1        0.0949
      2 C          -6.8691  -20.5771   19.9069 C.ar    1  UNL1        0.1454
      3 F          -5.9018  -21.6481   19.4979 F       1  UNL1       -0.2040
      4 C          -8.2545  -20.5583   19.3323 C.ar    1  UNL1        0.0312
      5 C          -9.2217  -19.4873   19.7413 C.ar    1  UNL1        0.0204
      6 C          -8.8035  -18.4349   20.7250 C.ar    1  UNL1        0.0924
      7 C          -7.4181  -18.4537   21.2997 C.ar    1  UNL1        0.1598
      8 F          -6.9999  -17.4013   22.2834 F       1  UNL1       -0.2026
      9 C          -5.0654  -19.5434   21.4654 C.2     1  UNL1        0.2006
     10 O          -4.8589  -19.8728   22.9140 O.2     1  UNL1       -0.2866
     11 C          -2.7645  -17.0943   21.8871 C.2     1  UNL1        0.0659
     12 C          -1.6360  -16.1069   21.8471 C.2     1  UNL1        0.0573
     13 C          -0.6316  -16.1607   20.7344 C.2     1  UNL1        0.2361
     14 N          -0.7555  -17.2019   19.6617 N.2     1  UNL1       -0.0340
     15 C          -1.8840  -18.1892   19.7018 C.2     1  UNL1        0.3601
     16 N          -2.2614  -19.3197   18.7910 N.2     1  UNL1       -0.0342
     17 C          -3.4991  -19.9646   19.3407 C.2     1  UNL1        0.2354
     18 C          -3.8866  -19.2327   20.5913 C.2     1  UNL1        0.0799
     19 C          -2.8885  -18.1354   20.8145 C.3     1  UNL1        0.1729
     20 N          -4.7735  -16.9867   24.1125 N.1     1  UNL1       -0.1911
     21 C          -3.7690  -17.0405   22.9998 C.1     1  UNL1        0.0971
     22 N          -9.7708  -17.3639   21.1340 N.pl3   1  UNL1       -0.2128
     23 H          -9.7104  -16.4668   20.7331 H       1  UNL1        0.1738
     24 S         -10.8301  -17.6597   22.1540 S.O2    1  UNL1        0.0751
     25 O          -9.8935  -17.2408   23.2482 O.2     1  UNL1       -0.1499
     26 O         -11.7667  -18.0786   21.0597 O.2     1  UNL1       -0.1499
     27 C         -11.8895  -17.9555   23.1738 C.ar    1  UNL1        0.1442
     28 C         -13.3211  -17.6087   22.8904 C.ar    1  UNL1        0.0234
     29 C         -14.3806  -17.9046   23.9102 C.ar    1  UNL1        0.0221
     30 C         -14.0084  -18.5472   25.2135 C.ar    1  UNL1        0.0990
     31 N         -12.5768  -18.8940   25.4969 N.ar    1  UNL1       -0.2409
     32 C         -11.5174  -18.5982   24.4771 C.ar    1  UNL1        0.1190
@<TRIPOS>BOND
     1    20    21    3
     2    21    11    1
     3    11    12    2
     4    12    13    1
     5    13    14    2
     6    14    15    1
     7    15    16    2
     8    16    17    1
     9    17    18    2
    10    18     9    1
    11     9    10    2
    12     9     1    1
    13     1     2   ar
    14     2     3    1
    15     2     4   ar
    16     4     5   ar
    17     5     6   ar
    18     6    22    1
    19    22    24    1
    20    24    25    2
    21    24    26    2
    22    24    27    1
    23    27    28   ar
    24    28    29   ar
    25    29    30   ar
    26    30    31   ar
    27    31    32   ar
    28     6     7   ar
    29     7     8    1
    30    18    19    1
    31    19    11    1
    32    19    15    1
    33     7     1   ar
    34    32    27   ar
    35    22    23    1
