@<TRIPOS>MOLECULE
*****
 46 52 0 0 0
SMALL
GASTEIGER

@<TRIPOS>ATOM
      1 N           3.6401    1.4474   35.5055 N.3     1  UNL1       -0.2676
      2 C           4.4610    0.5432   34.6346 C.3     1  UNL1        0.0746
      3 C           4.1223    0.3915   33.1812 C.3     1  UNL1        0.0449
      4 C           2.9627    1.1440   32.5988 C.3     1  UNL1        0.1391
      5 C           2.1419    2.0482   33.4698 C.3     1  UNL1        0.0449
      6 C           2.4806    2.1999   34.9231 C.3     1  UNL1        0.0746
      7 C           1.8386    1.8286   31.8793 C.2     1  UNL1        0.2529
      8 O           0.8558    2.7852   32.4869 O.2     1  UNL1       -0.2724
      9 N           1.8698    1.3888   30.4455 N.am    1  UNL1       -0.1907
     10 C           3.0133    0.4323   30.2790 C.2     1  UNL1        0.3219
     11 O           3.4113   -0.2527   29.0053 O.2     1  UNL1       -0.2512
     12 N           3.6887    0.2810   31.6097 N.am    1  UNL1       -0.2222
     13 C           4.8808   -0.5818   31.9004 C.ar    1  UNL1        0.1453
     14 C           4.6936   -2.0323   32.2333 C.ar    1  UNL1        0.0922
     15 C           5.8857   -2.8950   32.5240 C.ar    1  UNL1        0.2259
     16 O           5.6985   -4.3455   32.8570 O.3     1  UNL1       -0.4919
     17 N           7.2652   -2.3072   32.4818 N.ar    1  UNL1       -0.1894
     18 C           7.4524   -0.8566   32.1489 C.ar    1  UNL1        0.2027
     19 N           6.2602    0.0060   31.8582 N.ar    1  UNL1       -0.2084
     20 H           4.8369   -4.7127   32.8833 H       1  UNL1        0.2938
     21 C           0.9237    1.8282   29.3677 C.ar    1  UNL1        0.0622
     22 C          -0.0179    0.8392   28.7473 C.ar    1  UNL1        0.0154
     23 C          -0.9640    1.2786   27.6694 C.ar    1  UNL1        0.0013
     24 C          -0.9684    2.7071   27.2120 C.ar    1  UNL1        0.0001
     25 C          -0.0267    3.6962   27.8324 C.ar    1  UNL1        0.0013
     26 C           0.9194    3.2568   28.9103 C.ar    1  UNL1        0.0154
     27 C          -1.9145    3.1466   26.1341 C.ar    1  UNL1        0.0000
     28 C          -3.3040    3.5860   26.4892 C.ar    1  UNL1        0.0000
     29 C          -4.2501    4.0255   25.4114 C.ar    1  UNL1        0.0015
     30 C          -3.8067    4.0255   23.9783 C.ar    1  UNL1        0.0171
     31 C          -2.4171    3.5860   23.6232 C.ar    1  UNL1        0.0015
     32 C          -1.4710    3.1466   24.7012 C.ar    1  UNL1        0.0000
     33 C          -4.7527    4.4649   22.9005 C.ar    1  UNL1        0.0754
     34 C          -6.1790    4.0267   22.7468 C.ar    1  UNL1        0.0409
     35 C          -6.7464    4.7107   21.5384 C.ar    1  UNL1        0.1214
     36 N          -5.6708    5.5717   20.9453 N.ar    1  UNL1       -0.1711
     37 N          -4.4386    5.4198   21.7872 N.ar    1  UNL1       -0.2757
     38 H          -3.5753    5.8681   21.6356 H       1  UNL1        0.1889
     39 C           3.9788    1.5992   36.9589 C.3     1  UNL1        0.1183
     40 C           2.8337    4.1606   38.0209 C.3     1  UNL1        0.0323
     41 C           2.3178    2.8441   38.5214 C.ar    1  UNL1       -0.0069
     42 C           1.2293    2.8083   39.5528 C.ar    1  UNL1       -0.0015
     43 C           0.7134    1.4917   40.0533 C.ar    1  UNL1        0.0203
     44 C           1.2859    0.2110   39.5223 C.ar    1  UNL1        0.0985
     45 N           2.3744    0.2468   38.4908 N.ar    1  UNL1       -0.2471
     46 C           2.8904    1.5633   37.9903 C.ar    1  UNL1        0.0712
@<TRIPOS>BOND
     1    40    41    1
     2    41    42   ar
     3    42    43   ar
     4    43    44   ar
     5    44    45   ar
     6    45    46   ar
     7    46    39    1
     8    39     1    1
     9     1     2    1
    10     2     3    1
    11     3     4    1
    12     4     5    1
    13     5     6    1
    14     4     7    1
    15     7     8    2
    16     7     9   am
    17     9    21    1
    18    21    22   ar
    19    22    23   ar
    20    23    24   ar
    21    24    27    1
    22    27    28   ar
    23    28    29   ar
    24    29    30   ar
    25    30    33    1
    26    33    34   ar
    27    34    35   ar
    28    35    36   ar
    29    36    37   ar
    30    30    31   ar
    31    31    32   ar
    32    24    25   ar
    33    25    26   ar
    34     9    10   am
    35    10    11    2
    36    10    12   am
    37    12    13    1
    38    13    14   ar
    39    14    15   ar
    40    15    16    1
    41    15    17   ar
    42    17    18   ar
    43    18    19   ar
    44    46    41   ar
    45     6     1    1
    46    26    21   ar
    47    19    13   ar
    48    12     4    1
    49    32    27   ar
    50    37    33   ar
    51    37    38    1
    52    16    20    1
@<TRIPOS>MOLECULE
*****
 46 52 0 0 0
SMALL
GASTEIGER

@<TRIPOS>ATOM
      1 N           4.4740    0.7025   35.4175 N.3     1  UNL1       -0.2676
      2 C           5.2077   -0.1904   34.4613 C.3     1  UNL1        0.0746
      3 C           4.7634   -0.2844   33.0317 C.3     1  UNL1        0.0449
      4 C           3.5855    0.5147   32.5583 C.3     1  UNL1        0.1391
      5 C           2.8519    1.4076   33.5145 C.3     1  UNL1        0.0449
      6 C           3.2961    1.5015   34.9441 C.3     1  UNL1        0.0746
      7 C           2.4315    1.2498   31.9435 C.2     1  UNL1        0.2529
      8 O           1.5192    2.2079   32.6504 O.2     1  UNL1       -0.2724
      9 N           2.3500    0.8586   30.4976 N.am    1  UNL1       -0.1907
     10 C           3.4537   -0.1184   30.2189 C.2     1  UNL1        0.3219
     11 O           3.7430   -0.7685   28.8985 O.2     1  UNL1       -0.2512
     12 N           4.2173   -0.3309   31.4924 N.am    1  UNL1       -0.2222
     13 C           5.4041   -1.2309   31.6691 C.ar    1  UNL1        0.1453
     14 C           5.2089   -2.6529   32.1047 C.ar    1  UNL1        0.0922
     15 C           6.3959   -3.5528   32.2814 C.ar    1  UNL1        0.2259
     16 O           6.2006   -4.9748   32.7171 O.3     1  UNL1       -0.4919
     17 N           7.7781   -3.0308   32.0225 N.ar    1  UNL1       -0.1894
     18 C           7.9733   -1.6088   31.5869 C.ar    1  UNL1        0.2027
     19 N           6.7864   -0.7089   31.4102 N.ar    1  UNL1       -0.2084
     20 H           5.3372   -5.3009   32.8788 H       1  UNL1        0.2938
     21 C           1.3420    1.3567   29.5049 C.ar    1  UNL1        0.0622
     22 C           0.2649    0.4401   29.0054 C.ar    1  UNL1        0.0154
     23 C          -0.7432    0.9383   28.0127 C.ar    1  UNL1        0.0013
     24 C          -0.6742    2.3531   27.5194 C.ar    1  UNL1        0.0001
     25 C           0.4029    3.2698   28.0189 C.ar    1  UNL1        0.0013
     26 C           1.4110    2.7716   29.0117 C.ar    1  UNL1        0.0154
     27 C          -1.6823    2.8513   26.5267 C.ar    1  UNL1        0.0000
     28 C          -1.3422    2.8873   25.0662 C.ar    1  UNL1        0.0000
     29 C          -2.3503    3.3855   24.0735 C.ar    1  UNL1        0.0015
     30 C          -3.6986    3.8477   24.5412 C.ar    1  UNL1        0.0171
     31 C          -4.0386    3.8117   26.0017 C.ar    1  UNL1        0.0015
     32 C          -3.0305    3.3135   26.9945 C.ar    1  UNL1        0.0000
     33 C          -4.7067    4.3459   23.5485 C.ar    1  UNL1        0.0754
     34 C          -4.5716    5.5715   22.6943 C.ar    1  UNL1        0.0409
     35 C          -5.8083    5.6890   21.8535 C.ar    1  UNL1        0.1214
     36 N          -6.7076    4.5361   22.1882 N.ar    1  UNL1       -0.1711
     37 N          -6.0267    3.7060   23.2357 N.ar    1  UNL1       -0.2757
     38 H          -6.3836    2.8853   23.6460 H       1  UNL1        0.1889
     39 C           4.9182    0.7965   36.8472 C.3     1  UNL1        0.1183
     40 C           2.4512    0.9171   38.5499 C.3     1  UNL1        0.0323
     41 C           3.3846    2.0902   38.4977 C.ar    1  UNL1       -0.0069
     42 C           3.0844    3.3236   39.2968 C.ar    1  UNL1       -0.0015
     43 C           4.0178    4.4967   39.2446 C.ar    1  UNL1        0.0203
     44 C           5.2512    4.4364   38.3932 C.ar    1  UNL1        0.0985
     45 N           5.5514    3.2029   37.5940 N.ar    1  UNL1       -0.2471
     46 C           4.6181    2.0298   37.6463 C.ar    1  UNL1        0.0712
@<TRIPOS>BOND
     1    40    41    1
     2    41    42   ar
     3    42    43   ar
     4    43    44   ar
     5    44    45   ar
     6    45    46   ar
     7    46    39    1
     8    39     1    1
     9     1     2    1
    10     2     3    1
    11     3     4    1
    12     4     5    1
    13     5     6    1
    14     4     7    1
    15     7     8    2
    16     7     9   am
    17     9    21    1
    18    21    22   ar
    19    22    23   ar
    20    23    24   ar
    21    24    27    1
    22    27    28   ar
    23    28    29   ar
    24    29    30   ar
    25    30    33    1
    26    33    34   ar
    27    34    35   ar
    28    35    36   ar
    29    36    37   ar
    30    30    31   ar
    31    31    32   ar
    32    24    25   ar
    33    25    26   ar
    34     9    10   am
    35    10    11    2
    36    10    12   am
    37    12    13    1
    38    13    14   ar
    39    14    15   ar
    40    15    16    1
    41    15    17   ar
    42    17    18   ar
    43    18    19   ar
    44    46    41   ar
    45     6     1    1
    46    26    21   ar
    47    19    13   ar
    48    12     4    1
    49    32    27   ar
    50    37    33   ar
    51    37    38    1
    52    16    20    1
@<TRIPOS>MOLECULE
*****
 46 52 0 0 0
SMALL
GASTEIGER

@<TRIPOS>ATOM
      1 N           2.7218    2.7461   35.0817 N.3     1  UNL1       -0.2676
      2 C           3.4773    1.5931   34.4904 C.3     1  UNL1        0.0746
      3 C           3.2315    1.1860   33.0678 C.3     1  UNL1        0.0449
      4 C           2.2301    1.9318   32.2366 C.3     1  UNL1        0.1391
      5 C           1.4746    3.0849   32.8279 C.3     1  UNL1        0.0449
      6 C           1.7204    3.4920   34.2505 C.3     1  UNL1        0.0746
      7 C           1.2650    2.5795   31.2883 C.2     1  UNL1        0.2529
      8 O           0.3763    3.7480   31.5962 O.2     1  UNL1       -0.2724
      9 N           1.3447    1.8534   29.9781 N.am    1  UNL1       -0.1907
     10 C           2.3590    0.7571   30.1166 C.2     1  UNL1        0.3219
     11 O           2.7564   -0.2167   29.0472 O.2     1  UNL1       -0.2512
     12 N           2.9063    0.8055   31.5124 N.am    1  UNL1       -0.2222
     13 C           3.9469   -0.1113   32.0838 C.ar    1  UNL1        0.1453
     14 C           5.3984    0.2578   32.0015 C.ar    1  UNL1        0.0922
     15 C           6.4390   -0.6590   32.5729 C.ar    1  UNL1        0.2259
     16 O           7.8905   -0.2899   32.4906 O.3     1  UNL1       -0.4919
     17 N           6.0281   -1.9451   33.2267 N.ar    1  UNL1       -0.1894
     18 C           4.5766   -2.3142   33.3089 C.ar    1  UNL1        0.2027
     19 N           3.5360   -1.3973   32.7375 N.ar    1  UNL1       -0.2084
     20 H           8.1472    0.5134   32.0823 H       1  UNL1        0.2938
     21 C           0.5496    2.1684   28.7458 C.ar    1  UNL1        0.0622
     22 C           0.4733    3.5794   28.2428 C.ar    1  UNL1        0.0154
     23 C          -0.3218    3.8944   27.0105 C.ar    1  UNL1        0.0013
     24 C          -1.0405    2.7984   26.2811 C.ar    1  UNL1        0.0001
     25 C          -0.9642    1.3873   26.7842 C.ar    1  UNL1        0.0013
     26 C          -0.1692    1.0723   28.0165 C.ar    1  UNL1        0.0154
     27 C          -1.8356    3.1134   25.0488 C.ar    1  UNL1        0.0000
     28 C          -1.1416    3.2707   23.7284 C.ar    1  UNL1        0.0000
     29 C          -1.9367    3.5857   22.4960 C.ar    1  UNL1        0.0015
     30 C          -3.4258    3.7434   22.5842 C.ar    1  UNL1        0.0171
     31 C          -4.1198    3.5861   23.9046 C.ar    1  UNL1        0.0015
     32 C          -3.3247    3.2711   25.1370 C.ar    1  UNL1        0.0000
     33 C          -4.2209    4.0584   21.3518 C.ar    1  UNL1        0.0754
     34 C          -4.6718    5.4217   20.9181 C.ar    1  UNL1        0.0409
     35 C          -5.4342    5.2712   19.6351 C.ar    1  UNL1        0.1214
     36 N          -5.4545    3.8150   19.2760 N.ar    1  UNL1       -0.1711
     37 N          -4.7046    3.0654   20.3370 N.ar    1  UNL1       -0.2757
     38 H          -4.5560    2.0925   20.3628 H       1  UNL1        0.1889
     39 C           2.9676    3.1533   36.5044 C.3     1  UNL1        0.1183
     40 C           3.9811    0.6097   37.7302 C.3     1  UNL1        0.0323
     41 C           2.7077    1.2267   38.2280 C.ar    1  UNL1       -0.0069
     42 C           1.9411    0.5720   39.3386 C.ar    1  UNL1       -0.0015
     43 C           0.6678    1.1891   39.8364 C.ar    1  UNL1        0.0203
     44 C           0.1610    2.4609   39.2235 C.ar    1  UNL1        0.0985
     45 N           0.9276    3.1157   38.1128 N.ar    1  UNL1       -0.2471
     46 C           2.2010    2.4986   37.6150 C.ar    1  UNL1        0.0712
@<TRIPOS>BOND
     1    40    41    1
     2    41    42   ar
     3    42    43   ar
     4    43    44   ar
     5    44    45   ar
     6    45    46   ar
     7    46    39    1
     8    39     1    1
     9     1     2    1
    10     2     3    1
    11     3     4    1
    12     4     5    1
    13     5     6    1
    14     4     7    1
    15     7     8    2
    16     7     9   am
    17     9    21    1
    18    21    22   ar
    19    22    23   ar
    20    23    24   ar
    21    24    27    1
    22    27    28   ar
    23    28    29   ar
    24    29    30   ar
    25    30    33    1
    26    33    34   ar
    27    34    35   ar
    28    35    36   ar
    29    36    37   ar
    30    30    31   ar
    31    31    32   ar
    32    24    25   ar
    33    25    26   ar
    34     9    10   am
    35    10    11    2
    36    10    12   am
    37    12    13    1
    38    13    14   ar
    39    14    15   ar
    40    15    16    1
    41    15    17   ar
    42    17    18   ar
    43    18    19   ar
    44    46    41   ar
    45     6     1    1
    46    26    21   ar
    47    19    13   ar
    48    12     4    1
    49    32    27   ar
    50    37    33   ar
    51    37    38    1
    52    16    20    1
@<TRIPOS>MOLECULE
*****
 46 52 0 0 0
SMALL
GASTEIGER

@<TRIPOS>ATOM
      1 N           6.5768   -1.8699   23.8801 N.3     1  UNL1       -0.2676
      2 C           6.0851   -1.8918   22.4632 C.3     1  UNL1        0.0746
      3 C           4.7857   -1.2309   22.1099 C.3     1  UNL1        0.0449
      4 C           3.9780   -0.5481   23.1736 C.3     1  UNL1        0.1391
      5 C           4.4697   -0.5262   24.5905 C.3     1  UNL1        0.0449
      6 C           5.7690   -1.1871   24.9438 C.3     1  UNL1        0.0746
      7 C           3.0666    0.1695   24.1246 C.2     1  UNL1        0.2529
      8 O           3.2946    0.3522   25.5959 O.2     1  UNL1       -0.2724
      9 N           1.8871    0.6723   23.3460 N.am    1  UNL1       -0.1907
     10 C           2.0696    0.2654   21.9138 C.2     1  UNL1        0.3219
     11 O           1.1257    0.5609   20.7862 O.2     1  UNL1       -0.2512
     12 N           3.3618   -0.4888   21.8072 N.am    1  UNL1       -0.2222
     13 C           3.9369   -1.0800   20.5544 C.ar    1  UNL1        0.1453
     14 C           3.5717   -2.4769   20.1479 C.ar    1  UNL1        0.0922
     15 C           4.1469   -3.0680   18.8950 C.ar    1  UNL1        0.2259
     16 O           3.7817   -4.4650   18.4885 O.3     1  UNL1       -0.4919
     17 N           5.0872   -2.2623   18.0485 N.ar    1  UNL1       -0.1894
     18 C           5.4524   -0.8654   18.4550 C.ar    1  UNL1        0.2027
     19 N           4.8773   -0.2742   19.7079 N.ar    1  UNL1       -0.2084
     20 H           3.1943   -4.9683   19.0173 H       1  UNL1        0.2938
     21 C           0.7287    1.4462   23.9020 C.ar    1  UNL1        0.0622
     22 C           0.0784    2.5180   23.0786 C.ar    1  UNL1        0.0154
     23 C          -1.0801    3.2918   23.6346 C.ar    1  UNL1        0.0013
     24 C          -1.5883    2.9938   25.0140 C.ar    1  UNL1        0.0001
     25 C          -0.9379    1.9218   25.8375 C.ar    1  UNL1        0.0013
     26 C           0.2205    1.1480   25.2815 C.ar    1  UNL1        0.0154
     27 C          -2.7467    3.7676   25.5700 C.ar    1  UNL1        0.0000
     28 C          -2.5443    4.6834   26.7406 C.ar    1  UNL1        0.0000
     29 C          -3.7028    5.4572   27.2966 C.ar    1  UNL1        0.0015
     30 C          -5.0637    5.3152   26.6820 C.ar    1  UNL1        0.0171
     31 C          -5.2662    4.3994   25.5113 C.ar    1  UNL1        0.0015
     32 C          -4.1076    3.6256   24.9553 C.ar    1  UNL1        0.0000
     33 C          -6.2222    6.0890   27.2380 C.ar    1  UNL1        0.0754
     34 C          -6.9144    7.2407   26.5713 C.ar    1  UNL1        0.0409
     35 C          -8.0119    7.7105   27.4796 C.ar    1  UNL1        0.1214
     36 N          -7.9979    6.8491   28.7075 N.ar    1  UNL1       -0.1711
     37 N          -6.8918    5.8469   28.5582 N.ar    1  UNL1       -0.2757
     38 H          -6.6481    5.1523   29.2119 H       1  UNL1        0.1889
     39 C           7.8762   -2.5308   24.2335 C.3     1  UNL1        0.1183
     40 C           6.9613   -4.8532   25.8976 C.3     1  UNL1        0.0323
     41 C           7.6946   -5.0948   24.6115 C.ar    1  UNL1       -0.0069
     42 C           7.9704   -6.4975   24.1574 C.ar    1  UNL1       -0.0015
     43 C           8.7036   -6.7391   22.8713 C.ar    1  UNL1        0.0203
     44 C           9.1610   -5.5779   22.0393 C.ar    1  UNL1        0.0985
     45 N           8.8852   -4.1750   22.4933 N.ar    1  UNL1       -0.2471
     46 C           8.1520   -3.9335   23.7794 C.ar    1  UNL1        0.0712
@<TRIPOS>BOND
     1    40    41    1
     2    41    42   ar
     3    42    43   ar
     4    43    44   ar
     5    44    45   ar
     6    45    46   ar
     7    46    39    1
     8    39     1    1
     9     1     2    1
    10     2     3    1
    11     3     4    1
    12     4     5    1
    13     5     6    1
    14     4     7    1
    15     7     8    2
    16     7     9   am
    17     9    21    1
    18    21    22   ar
    19    22    23   ar
    20    23    24   ar
    21    24    27    1
    22    27    28   ar
    23    28    29   ar
    24    29    30   ar
    25    30    33    1
    26    33    34   ar
    27    34    35   ar
    28    35    36   ar
    29    36    37   ar
    30    30    31   ar
    31    31    32   ar
    32    24    25   ar
    33    25    26   ar
    34     9    10   am
    35    10    11    2
    36    10    12   am
    37    12    13    1
    38    13    14   ar
    39    14    15   ar
    40    15    16    1
    41    15    17   ar
    42    17    18   ar
    43    18    19   ar
    44    46    41   ar
    45     6     1    1
    46    26    21   ar
    47    19    13   ar
    48    12     4    1
    49    32    27   ar
    50    37    33   ar
    51    37    38    1
    52    16    20    1
@<TRIPOS>MOLECULE
*****
 46 52 0 0 0
SMALL
GASTEIGER

@<TRIPOS>ATOM
      1 N          -2.5699    3.8472   20.7194 N.3     1  UNL1       -0.2676
      2 C          -3.7469    4.3645   21.4921 C.3     1  UNL1        0.0746
      3 C          -3.7332    4.3306   22.9916 C.3     1  UNL1        0.0449
      4 C          -2.5425    3.7793   23.7185 C.3     1  UNL1        0.1391
      5 C          -1.3655    3.2620   22.9459 C.3     1  UNL1        0.0449
      6 C          -1.3792    3.2960   21.4463 C.3     1  UNL1        0.0746
      7 C          -1.4285    3.2603   24.5785 C.2     1  UNL1        0.2529
      8 O          -0.1327    2.6840   24.0901 O.2     1  UNL1       -0.2724
      9 N          -1.8380    3.4186   26.0130 N.am    1  UNL1       -0.1907
     10 C          -3.2050    4.0356   26.0393 C.2     1  UNL1        0.3219
     11 O          -3.9974    4.3708   27.2680 O.2     1  UNL1       -0.2512
     12 N          -3.6404    4.2585   24.6213 N.am    1  UNL1       -0.2222
     13 C          -4.9447    4.8557   24.1830 C.ar    1  UNL1        0.1453
     14 C          -6.1591    3.9862   24.0450 C.ar    1  UNL1        0.0922
     15 C          -7.4633    4.5835   23.6067 C.ar    1  UNL1        0.2259
     16 O          -8.6777    3.7139   23.4687 O.3     1  UNL1       -0.4919
     17 N          -7.5533    6.0504   23.3064 N.ar    1  UNL1       -0.1894
     18 C          -6.3389    6.9200   23.4444 C.ar    1  UNL1        0.2027
     19 N          -5.0346    6.3227   23.8827 N.ar    1  UNL1       -0.2084
     20 H          -8.6216    2.7976   23.6563 H       1  UNL1        0.2938
     21 C          -1.0234    3.0286   27.2106 C.ar    1  UNL1        0.0622
     22 C          -0.2167    4.0628   27.9380 C.ar    1  UNL1        0.0154
     23 C           0.5979    3.6727   29.1357 C.ar    1  UNL1        0.0013
     24 C           0.6056    2.2484   29.6058 C.ar    1  UNL1        0.0001
     25 C          -0.2012    1.2141   28.8783 C.ar    1  UNL1        0.0013
     26 C          -1.0157    1.6042   27.6807 C.ar    1  UNL1        0.0154
     27 C           1.4202    1.8583   30.8035 C.ar    1  UNL1        0.0000
     28 C           2.3977    0.7245   30.7087 C.ar    1  UNL1        0.0000
     29 C           3.2122    0.3344   31.9063 C.ar    1  UNL1        0.0015
     30 C           3.0493    1.0782   33.1988 C.ar    1  UNL1        0.0171
     31 C           2.0718    2.2120   33.2936 C.ar    1  UNL1        0.0015
     32 C           1.2572    2.6021   32.0958 C.ar    1  UNL1        0.0000
     33 C           3.8638    0.6881   34.3964 C.ar    1  UNL1        0.0754
     34 C           4.8329   -0.4545   34.4694 C.ar    1  UNL1        0.0409
     35 C           5.4203   -0.4766   35.8494 C.ar    1  UNL1        0.1214
     36 N           4.8143    0.6523   36.6293 N.ar    1  UNL1       -0.1711
     37 N           3.8523    1.3722   35.7313 N.ar    1  UNL1       -0.2757
     38 H           3.3088    2.1560   35.9751 H       1  UNL1        0.1889
     39 C          -2.5835    3.8811   19.2198 C.3     1  UNL1        0.1183
     40 C          -5.4038    3.5923   18.2387 C.3     1  UNL1        0.0323
     41 C          -4.6580    4.8736   18.0108 C.ar    1  UNL1       -0.0069
     42 C          -5.3222    6.0105   17.2923 C.ar    1  UNL1       -0.0015
     43 C          -4.5764    7.2918   17.0644 C.ar    1  UNL1        0.0203
     44 C          -3.1663    7.4362   17.5549 C.ar    1  UNL1        0.0985
     45 N          -2.5019    6.2993   18.2735 N.ar    1  UNL1       -0.2471
     46 C          -3.2478    5.0180   18.5014 C.ar    1  UNL1        0.0712
@<TRIPOS>BOND
     1    40    41    1
     2    41    42   ar
     3    42    43   ar
     4    43    44   ar
     5    44    45   ar
     6    45    46   ar
     7    46    39    1
     8    39     1    1
     9     1     2    1
    10     2     3    1
    11     3     4    1
    12     4     5    1
    13     5     6    1
    14     4     7    1
    15     7     8    2
    16     7     9   am
    17     9    21    1
    18    21    22   ar
    19    22    23   ar
    20    23    24   ar
    21    24    27    1
    22    27    28   ar
    23    28    29   ar
    24    29    30   ar
    25    30    33    1
    26    33    34   ar
    27    34    35   ar
    28    35    36   ar
    29    36    37   ar
    30    30    31   ar
    31    31    32   ar
    32    24    25   ar
    33    25    26   ar
    34     9    10   am
    35    10    11    2
    36    10    12   am
    37    12    13    1
    38    13    14   ar
    39    14    15   ar
    40    15    16    1
    41    15    17   ar
    42    17    18   ar
    43    18    19   ar
    44    46    41   ar
    45     6     1    1
    46    26    21   ar
    47    19    13   ar
    48    12     4    1
    49    32    27   ar
    50    37    33   ar
    51    37    38    1
    52    16    20    1
@<TRIPOS>MOLECULE
*****
 46 52 0 0 0
SMALL
GASTEIGER

@<TRIPOS>ATOM
      1 N           6.4733   -2.1864   28.7915 N.3     1  UNL1       -0.2676
      2 C           6.0607   -1.8015   30.1813 C.3     1  UNL1        0.0746
      3 C           4.8188   -0.9883   30.3968 C.3     1  UNL1        0.0449
      4 C           3.9896   -0.5601   29.2225 C.3     1  UNL1        0.1391
      5 C           4.4023   -0.9450   27.8327 C.3     1  UNL1        0.0449
      6 C           5.6441   -1.7581   27.6172 C.3     1  UNL1        0.0746
      7 C           3.0651   -0.0618   28.1515 C.2     1  UNL1        0.2529
      8 O           3.2201   -0.2893   26.6769 O.2     1  UNL1       -0.2724
      9 N           1.9582    0.7039   28.8139 N.am    1  UNL1       -0.1907
     10 C           2.1987    0.6788   30.2943 C.2     1  UNL1        0.3219
     11 O           1.3354    1.3220   31.3388 O.2     1  UNL1       -0.2512
     12 N           3.4541   -0.1023   30.5468 N.am    1  UNL1       -0.2222
     13 C           4.0667   -0.3774   31.8881 C.ar    1  UNL1        0.1453
     14 C           5.0393    0.5975   32.4827 C.ar    1  UNL1        0.0922
     15 C           5.6518    0.3223   33.8240 C.ar    1  UNL1        0.2259
     16 O           6.6244    1.2971   34.4186 O.3     1  UNL1       -0.4919
     17 N           5.2916   -0.9278   34.5708 N.ar    1  UNL1       -0.1894
     18 C           4.3190   -1.9027   33.9762 C.ar    1  UNL1        0.2027
     19 N           3.7065   -1.6275   32.6349 N.ar    1  UNL1       -0.2084
     20 H           6.8494    2.0780   33.9521 H       1  UNL1        0.2938
     21 C           0.8122    1.3765   28.1181 C.ar    1  UNL1        0.0622
     22 C          -0.5962    0.9500   28.4087 C.ar    1  UNL1        0.0154
     23 C          -1.7422    1.6226   27.7129 C.ar    1  UNL1        0.0013
     24 C          -1.4799    2.7217   26.7265 C.ar    1  UNL1        0.0001
     25 C          -0.0715    3.1482   26.4358 C.ar    1  UNL1        0.0013
     26 C           1.0745    2.4756   27.1316 C.ar    1  UNL1        0.0154
     27 C          -2.6260    3.3943   26.0307 C.ar    1  UNL1        0.0000
     28 C          -2.6199    3.5320   24.5370 C.ar    1  UNL1        0.0000
     29 C          -3.7659    4.2046   23.8412 C.ar    1  UNL1        0.0015
     30 C          -4.9181    4.7395   24.6391 C.ar    1  UNL1        0.0171
     31 C          -4.9242    4.6017   26.1327 C.ar    1  UNL1        0.0015
     32 C          -3.7781    3.9290   26.8285 C.ar    1  UNL1        0.0000
     33 C          -6.0642    5.4121   23.9433 C.ar    1  UNL1        0.0754
     34 C          -6.4008    6.8723   24.0086 C.ar    1  UNL1        0.0409
     35 C          -7.6195    7.1052   23.1656 C.ar    1  UNL1        0.1214
     36 N          -8.0361    5.7889   22.5794 N.ar    1  UNL1       -0.1711
     37 N          -7.0748    4.7424   23.0600 N.ar    1  UNL1       -0.2757
     38 H          -7.1024    3.7844   22.8352 H       1  UNL1        0.1889
     39 C           7.7152   -2.9996   28.5760 C.3     1  UNL1        0.1183
     40 C           6.9270   -5.7275   29.5444 C.3     1  UNL1        0.0323
     41 C           7.3033   -5.5216   28.1070 C.ar    1  UNL1       -0.0069
     42 C           7.2855   -6.6797   27.1539 C.ar    1  UNL1       -0.0015
     43 C           7.6617   -6.4739   25.7165 C.ar    1  UNL1        0.0203
     44 C           8.0558   -5.1100   25.2323 C.ar    1  UNL1        0.0985
     45 N           8.0737   -3.9519   26.1855 N.ar    1  UNL1       -0.2471
     46 C           7.6974   -4.1577   27.6228 C.ar    1  UNL1        0.0712
@<TRIPOS>BOND
     1    40    41    1
     2    41    42   ar
     3    42    43   ar
     4    43    44   ar
     5    44    45   ar
     6    45    46   ar
     7    46    39    1
     8    39     1    1
     9     1     2    1
    10     2     3    1
    11     3     4    1
    12     4     5    1
    13     5     6    1
    14     4     7    1
    15     7     8    2
    16     7     9   am
    17     9    21    1
    18    21    22   ar
    19    22    23   ar
    20    23    24   ar
    21    24    27    1
    22    27    28   ar
    23    28    29   ar
    24    29    30   ar
    25    30    33    1
    26    33    34   ar
    27    34    35   ar
    28    35    36   ar
    29    36    37   ar
    30    30    31   ar
    31    31    32   ar
    32    24    25   ar
    33    25    26   ar
    34     9    10   am
    35    10    11    2
    36    10    12   am
    37    12    13    1
    38    13    14   ar
    39    14    15   ar
    40    15    16    1
    41    15    17   ar
    42    17    18   ar
    43    18    19   ar
    44    46    41   ar
    45     6     1    1
    46    26    21   ar
    47    19    13   ar
    48    12     4    1
    49    32    27   ar
    50    37    33   ar
    51    37    38    1
    52    16    20    1
@<TRIPOS>MOLECULE
*****
 46 52 0 0 0
SMALL
GASTEIGER

@<TRIPOS>ATOM
      1 N           3.2271    3.1745   35.0247 N.3     1  UNL1       -0.2676
      2 C           2.3282    4.1984   34.3975 C.3     1  UNL1        0.0746
      3 C           2.0205    4.1287   32.9310 C.3     1  UNL1        0.0449
      4 C           2.6119    3.0350   32.0918 C.3     1  UNL1        0.1391
      5 C           3.5108    2.0111   32.7190 C.3     1  UNL1        0.0449
      6 C           3.8185    2.0809   34.1855 C.3     1  UNL1        0.0746
      7 C           3.1272    2.0050   31.1308 C.2     1  UNL1        0.2529
      8 O           4.0406    0.8638   31.4676 O.2     1  UNL1       -0.2724
      9 N           2.5687    2.3165   29.7739 N.am    1  UNL1       -0.1907
     10 C           1.7082    3.5391   29.8963 C.2     1  UNL1        0.3219
     11 O           0.9536    4.2012   28.7819 O.2     1  UNL1       -0.2512
     12 N           1.7349    3.9832   31.3288 N.am    1  UNL1       -0.2222
     13 C           1.0117    5.1674   31.8984 C.ar    1  UNL1        0.1453
     14 C          -0.3461    4.9932   32.5117 C.ar    1  UNL1        0.0922
     15 C          -1.0692    6.1776   33.0812 C.ar    1  UNL1        0.2259
     16 O          -2.4270    6.0034   33.6945 O.3     1  UNL1       -0.4919
     17 N          -0.4347    7.5361   33.0376 N.ar    1  UNL1       -0.1894
     18 C           0.9231    7.7102   32.4243 C.ar    1  UNL1        0.2027
     19 N           1.6462    6.5259   31.8547 N.ar    1  UNL1       -0.2084
     20 H          -2.8234    5.1548   33.7218 H       1  UNL1        0.2938
     21 C           2.8255    1.5414   28.5156 C.ar    1  UNL1        0.0622
     22 C           3.1541    2.2646   27.2432 C.ar    1  UNL1        0.0154
     23 C           3.4110    1.4896   25.9849 C.ar    1  UNL1        0.0013
     24 C           3.3393   -0.0086   25.9990 C.ar    1  UNL1        0.0001
     25 C           3.0107   -0.7318   27.2714 C.ar    1  UNL1        0.0013
     26 C           2.7539    0.0432   28.5297 C.ar    1  UNL1        0.0154
     27 C           3.5962   -0.7836   24.7407 C.ar    1  UNL1        0.0000
     28 C           2.8957   -0.4038   23.4697 C.ar    1  UNL1        0.0000
     29 C           3.1526   -1.1788   22.2114 C.ar    1  UNL1        0.0015
     30 C           4.1099   -2.3336   22.2240 C.ar    1  UNL1        0.0171
     31 C           4.8104   -2.7134   23.4949 C.ar    1  UNL1        0.0015
     32 C           4.5535   -1.9383   24.7533 C.ar    1  UNL1        0.0000
     33 C           4.3668   -3.1086   20.9657 C.ar    1  UNL1        0.0754
     34 C           4.9318   -2.5571   19.6904 C.ar    1  UNL1        0.0409
     35 C           5.0179   -3.6788   18.6983 C.ar    1  UNL1        0.1214
     36 N           4.5062   -4.9236   19.3605 N.ar    1  UNL1       -0.1711
     37 N           4.1038   -4.5712   20.7619 N.ar    1  UNL1       -0.2757
     38 H           3.7322   -5.1911   21.4305 H       1  UNL1        0.1889
     39 C           3.5348    3.2442   36.4912 C.3     1  UNL1        0.1183
     40 C           4.2386    0.5325   37.5642 C.3     1  UNL1        0.0323
     41 C           2.9819    1.2151   38.0167 C.ar    1  UNL1       -0.0069
     42 C           2.0771    0.5419   39.0056 C.ar    1  UNL1       -0.0015
     43 C           0.8204    1.2245   39.4581 C.ar    1  UNL1        0.0203
     44 C           0.4685    2.5804   38.9217 C.ar    1  UNL1        0.0985
     45 N           1.3733    3.2536   37.9327 N.ar    1  UNL1       -0.2471
     46 C           2.6300    2.5710   37.4802 C.ar    1  UNL1        0.0712
@<TRIPOS>BOND
     1    40    41    1
     2    41    42   ar
     3    42    43   ar
     4    43    44   ar
     5    44    45   ar
     6    45    46   ar
     7    46    39    1
     8    39     1    1
     9     1     2    1
    10     2     3    1
    11     3     4    1
    12     4     5    1
    13     5     6    1
    14     4     7    1
    15     7     8    2
    16     7     9   am
    17     9    21    1
    18    21    22   ar
    19    22    23   ar
    20    23    24   ar
    21    24    27    1
    22    27    28   ar
    23    28    29   ar
    24    29    30   ar
    25    30    33    1
    26    33    34   ar
    27    34    35   ar
    28    35    36   ar
    29    36    37   ar
    30    30    31   ar
    31    31    32   ar
    32    24    25   ar
    33    25    26   ar
    34     9    10   am
    35    10    11    2
    36    10    12   am
    37    12    13    1
    38    13    14   ar
    39    14    15   ar
    40    15    16    1
    41    15    17   ar
    42    17    18   ar
    43    18    19   ar
    44    46    41   ar
    45     6     1    1
    46    26    21   ar
    47    19    13   ar
    48    12     4    1
    49    32    27   ar
    50    37    33   ar
    51    37    38    1
    52    16    20    1
@<TRIPOS>MOLECULE
*****
 46 52 0 0 0
SMALL
GASTEIGER

@<TRIPOS>ATOM
      1 N          -2.4628    3.8150   20.7198 N.3     1  UNL1       -0.2676
      2 C          -3.6429    4.3429   21.4805 C.3     1  UNL1        0.0746
      3 C          -3.6405    4.3180   22.9803 C.3     1  UNL1        0.0449
      4 C          -2.4580    3.7652   23.7193 C.3     1  UNL1        0.1391
      5 C          -1.2780    3.2373   22.9586 C.3     1  UNL1        0.0449
      6 C          -1.2804    3.2622   21.4589 C.3     1  UNL1        0.0746
      7 C          -1.3531    3.2458   24.5908 C.2     1  UNL1        0.2529
      8 O          -0.0566    2.6600   24.1154 O.2     1  UNL1       -0.2724
      9 N          -1.7724    3.4149   26.0211 N.am    1  UNL1       -0.1907
     10 C          -3.1364    4.0389   26.0336 C.2     1  UNL1        0.3219
     11 O          -3.9362    4.3856   27.2542 O.2     1  UNL1       -0.2512
     12 N          -3.5602    4.2554   24.6111 N.am    1  UNL1       -0.2222
     13 C          -4.8581    4.8565   24.1595 C.ar    1  UNL1        0.1453
     14 C          -6.0703    3.9882   23.9962 C.ar    1  UNL1        0.0922
     15 C          -7.3682    4.5894   23.5446 C.ar    1  UNL1        0.2259
     16 O          -8.5803    3.7211   23.3814 O.3     1  UNL1       -0.4919
     17 N          -7.4540    6.0590   23.2562 N.ar    1  UNL1       -0.1894
     18 C          -6.2418    6.9273   23.4194 C.ar    1  UNL1        0.2027
     19 N          -4.9439    6.3261   23.8710 N.ar    1  UNL1       -0.2084
     20 H          -8.5268    2.8031   23.5615 H       1  UNL1        0.2938
     21 C          -0.9687    3.0281   27.2271 C.ar    1  UNL1        0.0622
     22 C          -0.9787    1.6084   27.7111 C.ar    1  UNL1        0.0154
     23 C          -0.1751    1.2215   28.9171 C.ar    1  UNL1        0.0013
     24 C           0.6386    2.2543   29.6391 C.ar    1  UNL1        0.0001
     25 C           0.6486    3.6740   29.1550 C.ar    1  UNL1        0.0013
     26 C          -0.1551    4.0609   27.9490 C.ar    1  UNL1        0.0154
     27 C           1.4422    1.8674   30.8451 C.ar    1  UNL1        0.0000
     28 C           1.2665    2.6136   32.1344 C.ar    1  UNL1        0.0000
     29 C           2.0702    2.2267   33.3404 C.ar    1  UNL1        0.0015
     30 C           3.0496    1.0936   33.2571 C.ar    1  UNL1        0.0171
     31 C           3.2253    0.3473   31.9678 C.ar    1  UNL1        0.0015
     32 C           2.4215    0.7343   30.7617 C.ar    1  UNL1        0.0000
     33 C           3.8532    0.7067   34.4631 C.ar    1  UNL1        0.0754
     34 C           4.8049   -0.4491   34.5547 C.ar    1  UNL1        0.0409
     35 C           5.3861   -0.4624   35.9374 C.ar    1  UNL1        0.1214
     36 N           4.7937    0.6851   36.7004 N.ar    1  UNL1       -0.1711
     37 N           3.8462    1.4077   35.7891 N.ar    1  UNL1       -0.2757
     38 H           3.3134    2.2025   36.0208 H       1  UNL1        0.1889
     39 C          -2.4652    3.8399   19.2200 C.3     1  UNL1        0.1183
     40 C           0.1136    2.7682   18.1238 C.3     1  UNL1        0.0323
     41 C          -0.2381    4.2142   17.9354 C.ar    1  UNL1       -0.0069
     42 C           0.6996    5.1243   17.1989 C.ar    1  UNL1       -0.0015
     43 C           0.3479    6.5702   17.0105 C.ar    1  UNL1        0.0203
     44 C          -0.9415    7.1061   17.5585 C.ar    1  UNL1        0.0985
     45 N          -1.8792    6.1959   18.2951 N.ar    1  UNL1       -0.2471
     46 C          -1.5275    4.7500   18.4835 C.ar    1  UNL1        0.0712
@<TRIPOS>BOND
     1    40    41    1
     2    41    42   ar
     3    42    43   ar
     4    43    44   ar
     5    44    45   ar
     6    45    46   ar
     7    46    39    1
     8    39     1    1
     9     1     2    1
    10     2     3    1
    11     3     4    1
    12     4     5    1
    13     5     6    1
    14     4     7    1
    15     7     8    2
    16     7     9   am
    17     9    21    1
    18    21    22   ar
    19    22    23   ar
    20    23    24   ar
    21    24    27    1
    22    27    28   ar
    23    28    29   ar
    24    29    30   ar
    25    30    33    1
    26    33    34   ar
    27    34    35   ar
    28    35    36   ar
    29    36    37   ar
    30    30    31   ar
    31    31    32   ar
    32    24    25   ar
    33    25    26   ar
    34     9    10   am
    35    10    11    2
    36    10    12   am
    37    12    13    1
    38    13    14   ar
    39    14    15   ar
    40    15    16    1
    41    15    17   ar
    42    17    18   ar
    43    18    19   ar
    44    46    41   ar
    45     6     1    1
    46    26    21   ar
    47    19    13   ar
    48    12     4    1
    49    32    27   ar
    50    37    33   ar
    51    37    38    1
    52    16    20    1
@<TRIPOS>MOLECULE
*****
 46 52 0 0 0
SMALL
GASTEIGER

@<TRIPOS>ATOM
      1 N           5.9396   -3.3972   22.3601 N.3     1  UNL1       -0.2676
      2 C           6.6418   -4.1556   23.4471 C.3     1  UNL1        0.0746
      3 C           6.4458   -3.7641   24.8818 C.3     1  UNL1        0.0449
      4 C           5.5476   -2.6141   25.2294 C.3     1  UNL1        0.1391
      5 C           4.8454   -1.8557   24.1424 C.3     1  UNL1        0.0449
      6 C           5.0414   -2.2472   22.7077 C.3     1  UNL1        0.0746
      7 C           4.6849   -1.4926   25.7273 C.2     1  UNL1        0.2529
      8 O           3.8667   -0.5657   24.8780 O.2     1  UNL1       -0.2724
      9 N           4.7840   -1.4607   27.2238 N.am    1  UNL1       -0.1907
     10 C           5.7080   -2.5626   27.6507 C.2     1  UNL1        0.3219
     11 O           6.0926   -2.8934   29.0622 O.2     1  UNL1       -0.2512
     12 N           6.1799   -3.2754   26.4181 N.am    1  UNL1       -0.2222
     13 C           7.1192   -4.4442   26.3807 C.ar    1  UNL1        0.1453
     14 C           6.5825   -5.8413   26.4817 C.ar    1  UNL1        0.0922
     15 C           7.5219   -7.0101   26.4443 C.ar    1  UNL1        0.2259
     16 O           6.9852   -8.4071   26.5452 O.3     1  UNL1       -0.4919
     17 N           8.9980   -6.7819   26.3059 N.ar    1  UNL1       -0.1894
     18 C           9.5347   -5.3849   26.2050 C.ar    1  UNL1        0.2027
     19 N           8.5953   -4.2161   26.2424 N.ar    1  UNL1       -0.2084
     20 H           6.0632   -8.5497   26.6316 H       1  UNL1        0.2938
     21 C           4.0824   -0.4963   28.1335 C.ar    1  UNL1        0.0622
     22 C           4.8351    0.6565   28.7287 C.ar    1  UNL1        0.0154
     23 C           4.1335    1.6208   29.6384 C.ar    1  UNL1        0.0013
     24 C           2.6791    1.4324   29.9530 C.ar    1  UNL1        0.0001
     25 C           1.9262    0.2796   29.3578 C.ar    1  UNL1        0.0013
     26 C           2.6279   -0.6848   28.4481 C.ar    1  UNL1        0.0154
     27 C           1.9774    2.3968   30.8628 C.ar    1  UNL1        0.0000
     28 C           2.1863    2.3162   32.3460 C.ar    1  UNL1        0.0000
     29 C           1.4847    3.2805   33.2557 C.ar    1  UNL1        0.0015
     30 C           0.5741    4.3256   32.6823 C.ar    1  UNL1        0.0171
     31 C           0.3652    4.4062   31.1991 C.ar    1  UNL1        0.0015
     32 C           1.0669    3.4418   30.2893 C.ar    1  UNL1        0.0000
     33 C          -0.1276    5.2900   33.5920 C.ar    1  UNL1        0.0754
     34 C           0.4340    5.8830   34.8501 C.ar    1  UNL1        0.0409
     35 C          -0.6053    6.7902   35.4390 C.ar    1  UNL1        0.1214
     36 N          -1.8092    6.7578   34.5448 N.ar    1  UNL1       -0.1711
     37 N          -1.5139    5.8306   33.4033 N.ar    1  UNL1       -0.2757
     38 H          -2.1231    5.6147   32.6606 H       1  UNL1        0.1889
     39 C           6.1355   -3.7887   20.9254 C.3     1  UNL1        0.1183
     40 C           3.5862   -3.9803   19.3556 C.3     1  UNL1        0.0323
     41 C           4.5767   -2.8967   19.0480 C.ar    1  UNL1       -0.0069
     42 C           4.2926   -1.9090   17.9555 C.ar    1  UNL1       -0.0015
     43 C           5.2832   -0.8254   17.6479 C.ar    1  UNL1        0.0203
     44 C           6.5578   -0.7295   18.4327 C.ar    1  UNL1        0.0985
     45 N           6.8420   -1.7173   19.5253 N.ar    1  UNL1       -0.2471
     46 C           5.8514   -2.8009   19.8329 C.ar    1  UNL1        0.0712
@<TRIPOS>BOND
     1    40    41    1
     2    41    42   ar
     3    42    43   ar
     4    43    44   ar
     5    44    45   ar
     6    45    46   ar
     7    46    39    1
     8    39     1    1
     9     1     2    1
    10     2     3    1
    11     3     4    1
    12     4     5    1
    13     5     6    1
    14     4     7    1
    15     7     8    2
    16     7     9   am
    17     9    21    1
    18    21    22   ar
    19    22    23   ar
    20    23    24   ar
    21    24    27    1
    22    27    28   ar
    23    28    29   ar
    24    29    30   ar
    25    30    33    1
    26    33    34   ar
    27    34    35   ar
    28    35    36   ar
    29    36    37   ar
    30    30    31   ar
    31    31    32   ar
    32    24    25   ar
    33    25    26   ar
    34     9    10   am
    35    10    11    2
    36    10    12   am
    37    12    13    1
    38    13    14   ar
    39    14    15   ar
    40    15    16    1
    41    15    17   ar
    42    17    18   ar
    43    18    19   ar
    44    46    41   ar
    45     6     1    1
    46    26    21   ar
    47    19    13   ar
    48    12     4    1
    49    32    27   ar
    50    37    33   ar
    51    37    38    1
    52    16    20    1
