@<TRIPOS>MOLECULE
*****
 34 38 0 0 0
SMALL
GASTEIGER

@<TRIPOS>ATOM
      1 C           7.6065   -4.6129   22.8596 C.ar    1  UNL1        0.0503
      2 C           8.3763   -5.8911   22.7064 C.ar    1  UNL1        0.0143
      3 C           8.4943   -6.8388   23.8630 C.ar    1  UNL1       -0.0029
      4 C           7.8424   -6.5084   25.1729 C.ar    1  UNL1       -0.0208
      5 C           7.0725   -5.2302   25.3262 C.ar    1  UNL1       -0.0029
      6 C           6.9545   -4.2824   24.1695 C.ar    1  UNL1        0.0143
      7 O           5.0092   -4.3704   21.3779 O.2     1  UNL1       -0.2727
      8 C           6.1898   -3.5439   20.9621 C.2     1  UNL1        0.2485
      9 N           7.4885   -3.6651   21.7030 N.am    1  UNL1       -0.2823
     10 H           8.2634   -3.1226   21.4301 H       1  UNL1        0.1549
     11 C           6.0719   -2.5961   19.8055 C.3     1  UNL1        0.1811
     12 C           7.1472   -2.2856   18.8068 C.3     1  UNL1        0.0400
     13 C           6.5978   -1.2900   17.8285 C.3     1  UNL1        0.0480
     14 C           5.1829   -0.9853   18.2226 C.ar    1  UNL1        0.0577
     15 C           3.9689   -0.1816   17.8615 C.ar    1  UNL1        0.0368
     16 C           2.8937   -0.4921   18.8601 C.ar    1  UNL1        0.1213
     17 N           3.4430   -1.4877   19.8384 N.ar    1  UNL1       -0.1676
     18 N           4.8579   -1.7925   19.4444 N.ar    1  UNL1       -0.2480
     19 C           7.9603   -7.4562   26.3295 C.3     1  UNL1        0.0420
     20 C           8.1444   -6.9238   27.7197 C.3     1  UNL1        0.0585
     21 C           9.4483   -6.7988   28.4505 C.3     1  UNL1        0.0175
     22 C           9.1667   -6.2206   29.8056 C.3     1  UNL1        0.0199
     23 C           7.6887   -5.9882   29.9123 C.3     1  UNL1        0.0856
     24 N           7.0569   -6.4228   28.6231 N.3     1  UNL1       -0.2971
     25 H           6.5812   -5.6328   28.1872 H       1  UNL1        0.1233
     26 C           6.9688   -5.4208   31.0997 C.3     1  UNL1        0.1484
     27 O           6.5912   -6.3132   32.2447 O.3     1  UNL1       -0.3786
     28 H           6.1360   -5.7920   32.9244 H       1  UNL1        0.2108
     29 C           6.6265   -3.9610   31.1421 C.ar    1  UNL1        0.0247
     30 C           6.2210   -3.3231   32.4378 C.ar    1  UNL1        0.0012
     31 C           5.8787   -1.8633   32.4802 C.ar    1  UNL1        0.0204
     32 C           5.9419   -1.0414   31.2270 C.ar    1  UNL1        0.0989
     33 N           6.3475   -1.6793   29.9313 N.ar    1  UNL1       -0.2426
     34 C           6.6898   -3.1391   29.8889 C.ar    1  UNL1        0.0969
@<TRIPOS>BOND
     1     7     8    2
     2     8     9   am
     3     9     1    1
     4     1     2   ar
     5     2     3   ar
     6     3     4   ar
     7     4    19    1
     8    20    19    1
     9    20    21    1
    10    21    22    1
    11    23    22    1
    12    23    26    1
    13    26    27    1
    14    26    29    1
    15    29    30   ar
    16    30    31   ar
    17    31    32   ar
    18    32    33   ar
    19    33    34   ar
    20    23    24    1
    21     4     5   ar
    22     5     6   ar
    23    11     8    1
    24    11    12    1
    25    12    13    1
    26    13    14    1
    27    14    15   ar
    28    15    16   ar
    29    16    17   ar
    30    17    18   ar
    31     6     1   ar
    32    18    11    1
    33    24    20    1
    34    18    14   ar
    35    34    29   ar
    36     9    10    1
    37    27    28    1
    38    24    25    1
@<TRIPOS>MOLECULE
*****
 34 38 0 0 0
SMALL
GASTEIGER

@<TRIPOS>ATOM
      1 C           6.7549   -4.6288   25.2281 C.ar    1  UNL1        0.0503
      2 C           7.7377   -5.4326   24.4294 C.ar    1  UNL1        0.0143
      3 C           7.9359   -5.1411   22.9714 C.ar    1  UNL1       -0.0029
      4 C           7.1512   -4.0458   22.3121 C.ar    1  UNL1       -0.0208
      5 C           6.1683   -3.2420   23.1108 C.ar    1  UNL1       -0.0029
      6 C           5.9701   -3.5336   24.5688 C.ar    1  UNL1        0.0143
      7 O           8.3839   -3.1728   27.2839 O.2     1  UNL1       -0.2727
      8 C           7.3713   -4.1923   27.7140 C.2     1  UNL1        0.2485
      9 N           6.5567   -4.9204   26.6861 N.am    1  UNL1       -0.2823
     10 H           5.8920   -5.5895   26.9684 H       1  UNL1        0.1549
     11 C           7.1731   -4.4838   29.1720 C.3     1  UNL1        0.1811
     12 C           7.4643   -5.7854   29.8584 C.3     1  UNL1        0.0400
     13 C           7.1200   -5.6309   31.3103 C.3     1  UNL1        0.0480
     14 C           6.6162   -4.2339   31.5211 C.ar    1  UNL1        0.0577
     15 C           6.0920   -3.2750   32.5486 C.ar    1  UNL1        0.0368
     16 C           5.8009   -1.9735   31.8622 C.ar    1  UNL1        0.1213
     17 N           6.1451   -2.1279   30.4104 N.ar    1  UNL1       -0.1676
     18 N           6.6490   -3.5250   30.1996 N.ar    1  UNL1       -0.2480
     19 C           7.3494   -3.7543   20.8541 C.3     1  UNL1        0.0420
     20 C           6.1629   -3.5043   19.9712 C.3     1  UNL1        0.0585
     21 C           5.1885   -4.5381   19.4900 C.3     1  UNL1        0.0175
     22 C           4.1658   -3.8492   18.6359 C.3     1  UNL1        0.0199
     23 C           4.5081   -2.3896   18.5893 C.3     1  UNL1        0.0856
     24 N           5.7424   -2.1764   19.4146 N.3     1  UNL1       -0.2971
     25 H           5.5414   -1.5294   20.1771 H       1  UNL1        0.1233
     26 C           3.7494   -1.3293   17.8476 C.3     1  UNL1        0.1484
     27 O           3.8911   -1.2079   16.3593 O.3     1  UNL1       -0.3786
     28 H           3.3376   -0.4780   16.0402 H       1  UNL1        0.2108
     29 C           2.8489   -0.3903   18.5943 C.ar    1  UNL1        0.0247
     30 C           2.0275   -0.8941   19.7439 C.ar    1  UNL1        0.0012
     31 C           1.1271    0.0449   20.4906 C.ar    1  UNL1        0.0204
     32 C           1.0480    1.4876   20.0877 C.ar    1  UNL1        0.0989
     33 N           1.8694    1.9914   18.9380 N.ar    1  UNL1       -0.2426
     34 C           2.7699    1.0524   18.1913 C.ar    1  UNL1        0.0969
@<TRIPOS>BOND
     1     7     8    2
     2     8     9   am
     3     9     1    1
     4     1     2   ar
     5     2     3   ar
     6     3     4   ar
     7     4    19    1
     8    20    19    1
     9    20    21    1
    10    21    22    1
    11    23    22    1
    12    23    26    1
    13    26    27    1
    14    26    29    1
    15    29    30   ar
    16    30    31   ar
    17    31    32   ar
    18    32    33   ar
    19    33    34   ar
    20    23    24    1
    21     4     5   ar
    22     5     6   ar
    23    11     8    1
    24    11    12    1
    25    12    13    1
    26    13    14    1
    27    14    15   ar
    28    15    16   ar
    29    16    17   ar
    30    17    18   ar
    31     6     1   ar
    32    18    11    1
    33    24    20    1
    34    18    14   ar
    35    34    29   ar
    36     9    10    1
    37    27    28    1
    38    24    25    1
@<TRIPOS>MOLECULE
*****
 34 38 0 0 0
SMALL
GASTEIGER

@<TRIPOS>ATOM
      1 C           6.4980   -3.5605   25.5339 C.ar    1  UNL1        0.0503
      2 C           6.9547   -2.3935   26.3583 C.ar    1  UNL1        0.0143
      3 C           7.4982   -2.6172   27.7384 C.ar    1  UNL1       -0.0029
      4 C           7.5849   -4.0077   28.2941 C.ar    1  UNL1       -0.0208
      5 C           7.1282   -5.1747   27.4697 C.ar    1  UNL1       -0.0029
      6 C           6.5847   -4.9511   26.0896 C.ar    1  UNL1        0.0143
      7 O           4.0937   -1.8114   25.1338 O.2     1  UNL1       -0.2727
      8 C           4.7523   -2.4623   23.9538 C.2     1  UNL1        0.2485
      9 N           5.9545   -3.3368   24.1538 N.am    1  UNL1       -0.2823
     10 H           6.3868   -3.7641   23.3793 H       1  UNL1        0.1549
     11 C           4.2089   -2.2386   22.5737 C.3     1  UNL1        0.1811
     12 C           3.2656   -1.1466   22.1638 C.3     1  UNL1        0.0400
     13 C           2.9871   -1.3009   20.6979 C.3     1  UNL1        0.0480
     14 C           3.7581   -2.4882   20.2019 C.ar    1  UNL1        0.0577
     15 C           4.0624   -3.3172   18.9895 C.ar    1  UNL1        0.0368
     16 C           5.0055   -4.4091   19.3994 C.ar    1  UNL1        0.1213
     17 N           5.2842   -4.2549   20.8653 N.ar    1  UNL1       -0.1676
     18 N           4.5132   -3.0677   21.3612 N.ar    1  UNL1       -0.2480
     19 C           8.1284   -4.2313   29.6742 C.3     1  UNL1        0.0420
     20 C           7.5353   -3.4994   30.8415 C.3     1  UNL1        0.0585
     21 C           8.2561   -2.5348   31.7358 C.3     1  UNL1        0.0175
     22 C           7.2836   -2.0429   32.7664 C.3     1  UNL1        0.0199
     23 C           5.9618   -2.7035   32.5091 C.3     1  UNL1        0.0856
     24 N           6.1174   -3.6037   31.3194 N.3     1  UNL1       -0.2971
     25 H           5.4800   -3.3115   30.5785 H       1  UNL1        0.1233
     26 C           4.7050   -2.4997   33.3022 C.3     1  UNL1        0.1484
     27 O           3.8161   -3.6675   33.6122 O.3     1  UNL1       -0.3786
     28 H           3.0526   -3.3646   34.1282 H       1  UNL1        0.2108
     29 C           4.3371   -1.1281   33.7852 C.ar    1  UNL1        0.0247
     30 C           3.5818   -0.1940   32.8867 C.ar    1  UNL1        0.0012
     31 C           3.2139    1.1776   33.3697 C.ar    1  UNL1        0.0204
     32 C           3.6012    1.6152   34.7512 C.ar    1  UNL1        0.0989
     33 N           4.3565    0.6811   35.6497 N.ar    1  UNL1       -0.2426
     34 C           4.7244   -0.6905   35.1667 C.ar    1  UNL1        0.0969
@<TRIPOS>BOND
     1     7     8    2
     2     8     9   am
     3     9     1    1
     4     1     2   ar
     5     2     3   ar
     6     3     4   ar
     7     4    19    1
     8    20    19    1
     9    20    21    1
    10    21    22    1
    11    23    22    1
    12    23    26    1
    13    26    27    1
    14    26    29    1
    15    29    30   ar
    16    30    31   ar
    17    31    32   ar
    18    32    33   ar
    19    33    34   ar
    20    23    24    1
    21     4     5   ar
    22     5     6   ar
    23    11     8    1
    24    11    12    1
    25    12    13    1
    26    13    14    1
    27    14    15   ar
    28    15    16   ar
    29    16    17   ar
    30    17    18   ar
    31     6     1   ar
    32    18    11    1
    33    24    20    1
    34    18    14   ar
    35    34    29   ar
    36     9    10    1
    37    27    28    1
    38    24    25    1
@<TRIPOS>MOLECULE
*****
 34 38 0 0 0
SMALL
GASTEIGER

@<TRIPOS>ATOM
      1 C           7.2787   -4.5389   25.9293 C.ar    1  UNL1        0.0503
      2 C           8.3338   -3.6663   26.5419 C.ar    1  UNL1        0.0143
      3 C           8.6268   -3.7619   28.0099 C.ar    1  UNL1       -0.0029
      4 C           7.8648   -4.7301   28.8653 C.ar    1  UNL1       -0.0208
      5 C           6.8096   -5.6028   28.2527 C.ar    1  UNL1       -0.0029
      6 C           6.5166   -5.5072   26.7848 C.ar    1  UNL1        0.0143
      7 O           5.4066   -2.4290   24.9077 O.2     1  UNL1       -0.2727
      8 C           6.0496   -3.3884   23.9505 C.2     1  UNL1        0.2485
      9 N           6.9857   -4.4434   24.4613 N.am    1  UNL1       -0.2823
     10 H           7.4077   -5.0730   23.8331 H       1  UNL1        0.1549
     11 C           5.7566   -3.2928   22.4825 C.3     1  UNL1        0.1811
     12 C           6.5392   -3.9473   21.3828 C.3     1  UNL1        0.0400
     13 C           5.8957   -3.5849   20.0771 C.3     1  UNL1        0.0480
     14 C           4.7156   -2.7065   20.3699 C.ar    1  UNL1        0.0577
     15 C           3.5886   -1.9398   19.7438 C.ar    1  UNL1        0.0368
     16 C           2.8061   -1.2854   20.8435 C.ar    1  UNL1        0.1213
     17 N           3.4494   -1.6477   22.1492 N.ar    1  UNL1       -0.1676
     18 N           4.6296   -2.5260   21.8565 N.ar    1  UNL1       -0.2480
     19 C           8.1578   -4.8257   30.3333 C.3     1  UNL1        0.0420
     20 C           7.5063   -3.8733   31.2917 C.3     1  UNL1        0.0585
     21 C           8.1508   -2.6707   31.9146 C.3     1  UNL1        0.0175
     22 C           7.1388   -2.0105   32.8033 C.3     1  UNL1        0.0199
     23 C           5.8688   -2.8051   32.7297 C.3     1  UNL1        0.0856
     24 N           6.0959   -3.9565   31.7955 N.3     1  UNL1       -0.2971
     25 H           5.4448   -3.9004   31.0124 H       1  UNL1        0.1233
     26 C           4.5952   -2.5018   33.4618 C.3     1  UNL1        0.1484
     27 O           3.6015   -3.5947   33.7228 O.3     1  UNL1       -0.3786
     28 H           2.8405   -3.2320   34.2026 H       1  UNL1        0.2108
     29 C           4.3153   -1.1055   33.9329 C.ar    1  UNL1        0.0247
     30 C           4.7438   -0.6768   35.3051 C.ar    1  UNL1        0.0012
     31 C           4.4638    0.7195   35.7762 C.ar    1  UNL1        0.0204
     32 C           3.7554    1.6872   34.8752 C.ar    1  UNL1        0.0989
     33 N           3.3269    1.2585   33.5030 N.ar    1  UNL1       -0.2426
     34 C           3.6068   -0.1378   33.0319 C.ar    1  UNL1        0.0969
@<TRIPOS>BOND
     1     7     8    2
     2     8     9   am
     3     9     1    1
     4     1     2   ar
     5     2     3   ar
     6     3     4   ar
     7     4    19    1
     8    20    19    1
     9    20    21    1
    10    21    22    1
    11    23    22    1
    12    23    26    1
    13    26    27    1
    14    26    29    1
    15    29    30   ar
    16    30    31   ar
    17    31    32   ar
    18    32    33   ar
    19    33    34   ar
    20    23    24    1
    21     4     5   ar
    22     5     6   ar
    23    11     8    1
    24    11    12    1
    25    12    13    1
    26    13    14    1
    27    14    15   ar
    28    15    16   ar
    29    16    17   ar
    30    17    18   ar
    31     6     1   ar
    32    18    11    1
    33    24    20    1
    34    18    14   ar
    35    34    29   ar
    36     9    10    1
    37    27    28    1
    38    24    25    1
@<TRIPOS>MOLECULE
*****
 34 38 0 0 0
SMALL
GASTEIGER

@<TRIPOS>ATOM
      1 C           4.9933   -0.6401   34.0326 C.ar    1  UNL1        0.0503
      2 C           4.2796   -1.8985   33.6366 C.ar    1  UNL1        0.0143
      3 C           4.9993   -2.9529   32.8490 C.ar    1  UNL1       -0.0029
      4 C           6.4329   -2.7488   32.4574 C.ar    1  UNL1       -0.0208
      5 C           7.1467   -1.4903   32.8534 C.ar    1  UNL1       -0.0029
      6 C           6.4269   -0.4360   33.6410 C.ar    1  UNL1        0.0143
      7 O           5.4572   -0.3960   36.9865 O.2     1  UNL1       -0.2727
      8 C           4.5055    0.5362   36.2972 C.2     1  UNL1        0.2485
      9 N           4.2736    0.4142   34.8202 N.am    1  UNL1       -0.2823
     10 H           3.6490    1.0261   34.3678 H       1  UNL1        0.1549
     11 C           3.7858    1.5906   37.0848 C.3     1  UNL1        0.1811
     12 C           4.0369    3.0679   37.0160 C.3     1  UNL1        0.0400
     13 C           3.0949    3.7430   37.9682 C.3     1  UNL1        0.0480
     14 C           2.2615    2.6831   38.6255 C.ar    1  UNL1        0.0577
     15 C           1.1643    2.4454   39.6202 C.ar    1  UNL1        0.0368
     16 C           0.9131    0.9681   39.6891 C.ar    1  UNL1        0.1213
     17 N           1.8552    0.2929   38.7369 N.ar    1  UNL1       -0.1676
     18 N           2.6885    1.3528   38.0796 N.ar    1  UNL1       -0.2480
     19 C           7.1526   -3.8031   31.6698 C.3     1  UNL1        0.0420
     20 C           7.4222   -3.5949   30.2090 C.3     1  UNL1        0.0585
     21 C           8.5702   -2.8261   29.6252 C.3     1  UNL1        0.0175
     22 C           8.4486   -2.8749   28.1309 C.3     1  UNL1        0.0199
     23 C           7.2255   -3.6739   27.7912 C.3     1  UNL1        0.0856
     24 N           6.5911   -4.1189   29.0756 N.3     1  UNL1       -0.2971
     25 H           6.5599   -5.1378   29.1115 H       1  UNL1        0.1233
     26 C           6.7246   -3.9751   26.4098 C.3     1  UNL1        0.1484
     27 O           5.6945   -3.0883   25.7755 O.3     1  UNL1       -0.3786
     28 H           5.4824   -3.4214   24.8895 H       1  UNL1        0.2108
     29 C           7.2539   -5.1632   25.6625 C.ar    1  UNL1        0.0247
     30 C           7.5026   -6.4539   26.3853 C.ar    1  UNL1        0.0012
     31 C           8.0319   -7.6420   25.6380 C.ar    1  UNL1        0.0204
     32 C           8.3125   -7.5393   24.1681 C.ar    1  UNL1        0.0989
     33 N           8.0638   -6.2486   23.4454 N.ar    1  UNL1       -0.2426
     34 C           7.5345   -5.0606   24.1926 C.ar    1  UNL1        0.0969
@<TRIPOS>BOND
     1     7     8    2
     2     8     9   am
     3     9     1    1
     4     1     2   ar
     5     2     3   ar
     6     3     4   ar
     7     4    19    1
     8    20    19    1
     9    20    21    1
    10    21    22    1
    11    23    22    1
    12    23    26    1
    13    26    27    1
    14    26    29    1
    15    29    30   ar
    16    30    31   ar
    17    31    32   ar
    18    32    33   ar
    19    33    34   ar
    20    23    24    1
    21     4     5   ar
    22     5     6   ar
    23    11     8    1
    24    11    12    1
    25    12    13    1
    26    13    14    1
    27    14    15   ar
    28    15    16   ar
    29    16    17   ar
    30    17    18   ar
    31     6     1   ar
    32    18    11    1
    33    24    20    1
    34    18    14   ar
    35    34    29   ar
    36     9    10    1
    37    27    28    1
    38    24    25    1
@<TRIPOS>MOLECULE
*****
 34 38 0 0 0
SMALL
GASTEIGER

@<TRIPOS>ATOM
      1 C           0.3323    1.2497   20.1226 C.ar    1  UNL1        0.0503
      2 C           1.1097    1.8904   19.0113 C.ar    1  UNL1        0.0143
      3 C           2.2258    1.1400   18.3470 C.ar    1  UNL1       -0.0029
      4 C           2.5645   -0.2511   18.7941 C.ar    1  UNL1       -0.0208
      5 C           1.7870   -0.8920   19.9055 C.ar    1  UNL1       -0.0029
      6 C           0.6710   -0.1416   20.5697 C.ar    1  UNL1        0.0143
      7 O           0.9107    3.0391   22.4600 O.2     1  UNL1       -0.2727
      8 C          -0.4946    2.8949   21.9556 C.2     1  UNL1        0.2485
      9 N          -0.7838    2.0001   20.7869 N.am    1  UNL1       -0.2823
     10 H          -1.7061    1.9054   20.4558 H       1  UNL1        0.1549
     11 C          -1.6106    3.6453   22.6199 C.3     1  UNL1        0.1811
     12 C          -1.4726    4.5860   23.7801 C.3     1  UNL1        0.0400
     13 C          -2.8374    5.1088   24.1178 C.3     1  UNL1        0.0480
     14 C          -3.8189    4.4913   23.1663 C.ar    1  UNL1        0.0577
     15 C          -5.2690    4.4328   22.7871 C.ar    1  UNL1        0.0368
     16 C          -5.4070    3.4921   21.6269 C.ar    1  UNL1        0.1213
     17 N          -4.0422    2.9692   21.2891 N.ar    1  UNL1       -0.1676
     18 N          -3.0607    3.5868   22.2406 N.ar    1  UNL1       -0.2480
     19 C           3.6805   -1.0016   18.1298 C.3     1  UNL1        0.0420
     20 C           4.3864   -2.1019   18.8653 C.3     1  UNL1        0.0585
     21 C           3.8950   -3.5096   19.0290 C.3     1  UNL1        0.0175
     22 C           4.9125   -4.2655   19.8310 C.3     1  UNL1        0.0199
     23 C           6.0328   -3.3249   20.1630 C.3     1  UNL1        0.0856
     24 N           5.7077   -1.9878   19.5661 N.3     1  UNL1       -0.2971
     25 H           6.4316   -1.7214   18.8987 H       1  UNL1        0.1233
     26 C           7.2624   -3.6623   20.9531 C.3     1  UNL1        0.1484
     27 O           8.6079   -3.6457   20.2902 O.3     1  UNL1       -0.3786
     28 H           9.2899   -3.8855   20.9369 H       1  UNL1        0.2108
     29 C           7.1466   -4.0163   22.4061 C.ar    1  UNL1        0.0247
     30 C           7.9461   -5.1550   22.9667 C.ar    1  UNL1        0.0012
     31 C           7.8302   -5.5091   24.4197 C.ar    1  UNL1        0.0204
     32 C           6.9149   -4.7244   25.3122 C.ar    1  UNL1        0.0989
     33 N           6.1154   -3.5856   24.7516 N.ar    1  UNL1       -0.2426
     34 C           6.2312   -3.2316   23.2986 C.ar    1  UNL1        0.0969
@<TRIPOS>BOND
     1     7     8    2
     2     8     9   am
     3     9     1    1
     4     1     2   ar
     5     2     3   ar
     6     3     4   ar
     7     4    19    1
     8    20    19    1
     9    20    21    1
    10    21    22    1
    11    23    22    1
    12    23    26    1
    13    26    27    1
    14    26    29    1
    15    29    30   ar
    16    30    31   ar
    17    31    32   ar
    18    32    33   ar
    19    33    34   ar
    20    23    24    1
    21     4     5   ar
    22     5     6   ar
    23    11     8    1
    24    11    12    1
    25    12    13    1
    26    13    14    1
    27    14    15   ar
    28    15    16   ar
    29    16    17   ar
    30    17    18   ar
    31     6     1   ar
    32    18    11    1
    33    24    20    1
    34    18    14   ar
    35    34    29   ar
    36     9    10    1
    37    27    28    1
    38    24    25    1
@<TRIPOS>MOLECULE
*****
 34 38 0 0 0
SMALL
GASTEIGER

@<TRIPOS>ATOM
      1 C           5.7551   -2.8878   25.0851 C.ar    1  UNL1        0.0503
      2 C           6.7378   -3.8706   25.6493 C.ar    1  UNL1        0.0143
      3 C           7.3847   -3.6064   26.9766 C.ar    1  UNL1       -0.0029
      4 C           7.0490   -2.3595   27.7396 C.ar    1  UNL1       -0.0208
      5 C           6.0663   -1.3766   27.1754 C.ar    1  UNL1       -0.0029
      6 C           5.4193   -1.6408   25.8481 C.ar    1  UNL1        0.0143
      7 O           6.8464   -1.6049   22.6025 O.2     1  UNL1       -0.2727
      8 C           5.6538   -2.5105   22.5165 C.2     1  UNL1        0.2485
      9 N           5.1081   -3.1520   23.7578 N.am    1  UNL1       -0.2823
     10 H           4.3254   -3.7464   23.7014 H       1  UNL1        0.1549
     11 C           5.0069   -2.7747   21.1892 C.3     1  UNL1        0.1811
     12 C           4.3633   -4.0607   20.7625 C.3     1  UNL1        0.0400
     13 C           3.8486   -3.8800   19.3652 C.3     1  UNL1        0.0480
     14 C           4.1740   -2.4824   18.9283 C.ar    1  UNL1        0.0577
     15 C           4.0570   -1.5071   17.7948 C.ar    1  UNL1        0.0368
     16 C           4.7006   -0.2211   18.2216 C.ar    1  UNL1        0.1213
     17 N           5.2153   -0.4017   19.6189 N.ar    1  UNL1       -0.1676
     18 N           4.8899   -1.7993   20.0557 N.ar    1  UNL1       -0.2480
     19 C           7.6960   -2.0953   29.0669 C.3     1  UNL1        0.0420
     20 C           7.0557   -2.5982   30.3267 C.3     1  UNL1        0.0585
     21 C           7.4569   -3.8252   31.0905 C.3     1  UNL1        0.0175
     22 C           6.5511   -3.9478   32.2797 C.3     1  UNL1        0.0199
     23 C           5.5899   -2.7965   32.2509 C.3     1  UNL1        0.0856
     24 N           5.9019   -1.9625   31.0438 N.3     1  UNL1       -0.2971
     25 H           6.1522   -1.0166   31.3320 H       1  UNL1        0.1233
     26 C           4.5070   -2.5267   33.2532 C.3     1  UNL1        0.1484
     27 O           3.5881   -3.6326   33.6804 O.3     1  UNL1       -0.3786
     28 H           2.9511   -3.2917   34.3277 H       1  UNL1        0.2108
     29 C           4.3431   -1.1511   33.8282 C.ar    1  UNL1        0.0247
     30 C           4.9290   -0.8242   35.1698 C.ar    1  UNL1        0.0012
     31 C           4.7651    0.5515   35.7448 C.ar    1  UNL1        0.0204
     32 C           4.0152    1.6003   34.9782 C.ar    1  UNL1        0.0989
     33 N           3.4293    1.2734   33.6366 N.ar    1  UNL1       -0.2426
     34 C           3.5932   -0.1022   33.0616 C.ar    1  UNL1        0.0969
@<TRIPOS>BOND
     1     7     8    2
     2     8     9   am
     3     9     1    1
     4     1     2   ar
     5     2     3   ar
     6     3     4   ar
     7     4    19    1
     8    20    19    1
     9    20    21    1
    10    21    22    1
    11    23    22    1
    12    23    26    1
    13    26    27    1
    14    26    29    1
    15    29    30   ar
    16    30    31   ar
    17    31    32   ar
    18    32    33   ar
    19    33    34   ar
    20    23    24    1
    21     4     5   ar
    22     5     6   ar
    23    11     8    1
    24    11    12    1
    25    12    13    1
    26    13    14    1
    27    14    15   ar
    28    15    16   ar
    29    16    17   ar
    30    17    18   ar
    31     6     1   ar
    32    18    11    1
    33    24    20    1
    34    18    14   ar
    35    34    29   ar
    36     9    10    1
    37    27    28    1
    38    24    25    1
@<TRIPOS>MOLECULE
*****
 34 38 0 0 0
SMALL
GASTEIGER

@<TRIPOS>ATOM
      1 C          -0.7055    2.4099   26.9720 C.ar    1  UNL1        0.0503
      2 C           0.1201    3.4916   27.6031 C.ar    1  UNL1        0.0143
      3 C           0.7676    3.2597   28.9362 C.ar    1  UNL1       -0.0029
      4 C           0.5895    1.9461   29.6381 C.ar    1  UNL1       -0.0208
      5 C          -0.2361    0.8643   29.0070 C.ar    1  UNL1       -0.0029
      6 C          -0.8836    1.0962   27.6739 C.ar    1  UNL1        0.0143
      7 O          -3.4391    3.6371   26.8254 O.2     1  UNL1       -0.2727
      8 C          -2.7198    3.2554   25.5657 C.2     1  UNL1        0.2485
      9 N          -1.3529    2.6418   25.6390 N.am    1  UNL1       -0.2823
     10 H          -0.8808    2.3913   24.8122 H       1  UNL1        0.1549
     11 C          -3.3673    3.4873   24.2327 C.3     1  UNL1        0.1811
     12 C          -4.8147    3.8043   23.9987 C.3     1  UNL1        0.0400
     13 C          -5.0230    3.9558   22.5209 C.3     1  UNL1        0.0480
     14 C          -3.7044    3.7326   21.8416 C.ar    1  UNL1        0.0577
     15 C          -3.0182    3.6883   20.5085 C.ar    1  UNL1        0.0368
     16 C          -1.5709    3.3714   20.7425 C.ar    1  UNL1        0.1213
     17 N          -1.3625    3.2198   22.2202 N.ar    1  UNL1       -0.1676
     18 N          -2.6811    3.4430   22.8995 N.ar    1  UNL1       -0.2480
     19 C           1.2370    1.7142   30.9711 C.3     1  UNL1        0.0420
     20 C           2.3771    0.7472   31.0930 C.3     1  UNL1        0.0585
     21 C           3.3910    0.4411   30.0309 C.3     1  UNL1        0.0175
     22 C           4.3441   -0.5788   30.5799 C.3     1  UNL1        0.0199
     23 C           3.9192   -0.9031   31.9814 C.3     1  UNL1        0.0856
     24 N           2.7036   -0.0836   32.2985 N.3     1  UNL1       -0.2971
     25 H           2.8936    0.5234   33.0960 H       1  UNL1        0.1233
     26 C           4.5919   -1.8760   32.9039 C.3     1  UNL1        0.1484
     27 O           3.8257   -2.4838   34.0412 O.3     1  UNL1       -0.3786
     28 H           4.4038   -3.0858   34.5354 H       1  UNL1        0.2108
     29 C           6.0308   -2.2412   32.6890 C.ar    1  UNL1        0.0247
     30 C           7.1172   -1.3486   33.2118 C.ar    1  UNL1        0.0012
     31 C           8.5561   -1.7138   32.9969 C.ar    1  UNL1        0.0204
     32 C           8.9087   -2.9715   32.2594 C.ar    1  UNL1        0.0989
     33 N           7.8222   -3.8640   31.7366 N.ar    1  UNL1       -0.2426
     34 C           6.3833   -3.4988   31.9515 C.ar    1  UNL1        0.0969
@<TRIPOS>BOND
     1     7     8    2
     2     8     9   am
     3     9     1    1
     4     1     2   ar
     5     2     3   ar
     6     3     4   ar
     7     4    19    1
     8    20    19    1
     9    20    21    1
    10    21    22    1
    11    23    22    1
    12    23    26    1
    13    26    27    1
    14    26    29    1
    15    29    30   ar
    16    30    31   ar
    17    31    32   ar
    18    32    33   ar
    19    33    34   ar
    20    23    24    1
    21     4     5   ar
    22     5     6   ar
    23    11     8    1
    24    11    12    1
    25    12    13    1
    26    13    14    1
    27    14    15   ar
    28    15    16   ar
    29    16    17   ar
    30    17    18   ar
    31     6     1   ar
    32    18    11    1
    33    24    20    1
    34    18    14   ar
    35    34    29   ar
    36     9    10    1
    37    27    28    1
    38    24    25    1
@<TRIPOS>MOLECULE
*****
 34 38 0 0 0
SMALL
GASTEIGER

@<TRIPOS>ATOM
      1 C          -0.5707    2.5372   26.7803 C.ar    1  UNL1        0.0503
      2 C           0.3370    3.5755   27.3701 C.ar    1  UNL1        0.0143
      3 C           0.8994    3.3850   28.7476 C.ar    1  UNL1       -0.0029
      4 C           0.5539    2.1562   29.5353 C.ar    1  UNL1       -0.0208
      5 C          -0.3539    1.1178   28.9456 C.ar    1  UNL1       -0.0029
      6 C          -0.9163    1.3084   27.5681 C.ar    1  UNL1        0.0143
      7 O          -3.2229    3.8916   26.4169 O.2     1  UNL1       -0.2727
      8 C          -2.4592    3.4050   25.2211 C.2     1  UNL1        0.2485
      9 N          -1.1331    2.7278   25.4028 N.am    1  UNL1       -0.2823
     10 H          -0.6318    2.4083   24.6180 H       1  UNL1        0.1549
     11 C          -3.0215    3.5955   23.8436 C.3     1  UNL1        0.1811
     12 C          -2.2389    3.5942   22.5639 C.3     1  UNL1        0.0400
     13 C          -3.1989    3.8187   21.4334 C.3     1  UNL1        0.0480
     14 C          -4.5747    3.9586   22.0143 C.ar    1  UNL1        0.0577
     15 C          -6.0183    4.1838   21.6747 C.ar    1  UNL1        0.0368
     16 C          -6.8008    4.1850   22.9544 C.ar    1  UNL1        0.1213
     17 N          -5.8409    3.9606   24.0849 N.ar    1  UNL1       -0.1676
     18 N          -4.4650    3.8207   23.5040 N.ar    1  UNL1       -0.2480
     19 C           1.1162    1.9657   30.9128 C.3     1  UNL1        0.0420
     20 C           2.2041    0.9598   31.1463 C.3     1  UNL1        0.0585
     21 C           3.1963    0.4818   30.1281 C.3     1  UNL1        0.0175
     22 C           4.0962   -0.5182   30.7915 C.3     1  UNL1        0.0199
     23 C           3.6602   -0.6582   32.2199 C.3     1  UNL1        0.0856
     24 N           2.4908    0.2553   32.4392 N.3     1  UNL1       -0.2971
     25 H           2.7158    0.9379   33.1629 H       1  UNL1        0.1233
     26 C           4.2841   -1.5543   33.2484 C.3     1  UNL1        0.1484
     27 O           3.9220   -3.0092   33.2942 O.3     1  UNL1       -0.3786
     28 H           4.4106   -3.4415   34.0120 H       1  UNL1        0.2108
     29 C           5.2700   -0.9955   34.2310 C.ar    1  UNL1        0.0247
     30 C           4.8302   -0.6573   35.6248 C.ar    1  UNL1        0.0012
     31 C           5.8162   -0.0985   36.6075 C.ar    1  UNL1        0.0204
     32 C           7.2418    0.1222   36.1965 C.ar    1  UNL1        0.0989
     33 N           7.6815   -0.2160   34.8028 N.ar    1  UNL1       -0.2426
     34 C           6.6956   -0.7748   33.8201 C.ar    1  UNL1        0.0969
@<TRIPOS>BOND
     1     7     8    2
     2     8     9   am
     3     9     1    1
     4     1     2   ar
     5     2     3   ar
     6     3     4   ar
     7     4    19    1
     8    20    19    1
     9    20    21    1
    10    21    22    1
    11    23    22    1
    12    23    26    1
    13    26    27    1
    14    26    29    1
    15    29    30   ar
    16    30    31   ar
    17    31    32   ar
    18    32    33   ar
    19    33    34   ar
    20    23    24    1
    21     4     5   ar
    22     5     6   ar
    23    11     8    1
    24    11    12    1
    25    12    13    1
    26    13    14    1
    27    14    15   ar
    28    15    16   ar
    29    16    17   ar
    30    17    18   ar
    31     6     1   ar
    32    18    11    1
    33    24    20    1
    34    18    14   ar
    35    34    29   ar
    36     9    10    1
    37    27    28    1
    38    24    25    1
