@<TRIPOS>MOLECULE
*****
 30 32 0 0 0
SMALL
GASTEIGER

@<TRIPOS>ATOM
      1 C          -9.8149  -19.2318   21.4937 C.ar    1  UNL1        0.0555
      2 C          -8.3926  -18.7559   21.4741 C.ar    1  UNL1        0.0168
      3 C          -7.5636  -18.9205   20.2349 C.ar    1  UNL1        0.0505
      4 C          -8.1570  -19.5611   19.0153 C.ar    1  UNL1        0.0170
      5 C          -9.5793  -20.0370   19.0348 C.ar    1  UNL1        0.0307
      6 C         -10.4083  -19.8724   20.2740 C.ar    1  UNL1        0.1402
      7 F         -11.8307  -20.3483   20.2936 F       1  UNL1       -0.2044
      8 C          -9.6113  -20.0315   23.2366 C.3     1  UNL1        0.0638
      9 C         -10.6440  -19.0671   22.7329 C.3     1  UNL1        0.2513
     10 N         -11.3887  -18.1600   21.7989 N.2     1  UNL1       -0.0663
     11 C         -12.6038  -17.4231   22.2790 C.2     1  UNL1        0.3195
     12 N         -13.3485  -16.5158   21.3450 N.pl3   1  UNL1       -0.2480
     13 C         -13.0741  -17.5934   23.6932 C.3     1  UNL1        0.2611
     14 O         -12.3294  -18.5005   24.6272 O.3     1  UNL1       -0.3108
     15 C         -11.1143  -19.2374   24.1471 C.3     1  UNL1        0.3281
     16 F         -10.3695  -20.1446   25.0810 F       1  UNL1       -0.1989
     17 H         -13.0398  -16.4041   20.4168 H       1  UNL1        0.2882
     18 H         -14.1460  -16.0322   21.6601 H       1  UNL1        0.2882
     19 N          -6.1412  -18.4446   20.2153 N.am    1  UNL1       -0.2791
     20 C          -5.0183  -19.4323   20.3312 C.2     1  UNL1        0.2672
     21 O          -5.3177  -20.8959   20.4667 O.2     1  UNL1       -0.2682
     22 H          -5.9447  -17.4840   20.1264 H       1  UNL1        0.1552
     23 C          -3.5959  -18.9564   20.3116 C.ar    1  UNL1        0.1348
     24 C          -3.0159  -18.3777   19.0552 C.ar    1  UNL1        0.0245
     25 C          -1.5934  -17.9019   19.0356 C.ar    1  UNL1        0.0135
     26 C          -0.7511  -18.0047   20.2725 C.ar    1  UNL1        0.0876
     27 C          -1.3312  -18.5833   21.5290 C.ar    1  UNL1        0.1092
     28 N          -2.7535  -19.0592   21.5486 N.ar    1  UNL1       -0.2385
     29 C           0.6712  -17.5288   20.2529 C.1     1  UNL1        0.1020
     30 N           2.0937  -17.0529   20.2333 N.1     1  UNL1       -0.1908
@<TRIPOS>BOND
     1     9     8    1
     2     9     1    1
     3     1     2   ar
     4     2     3   ar
     5     3    19    1
     6    19    20   am
     7    20    21    2
     8    20    23    1
     9    23    24   ar
    10    24    25   ar
    11    25    26   ar
    12    26    29    1
    13    29    30    3
    14    26    27   ar
    15    27    28   ar
    16     3     4   ar
    17     4     5   ar
    18     5     6   ar
    19     6     7    1
    20     9    10    1
    21    10    11    2
    22    11    12    1
    23    11    13    1
    24    13    14    1
    25    14    15    1
    26    15    16    1
    27    15     9    1
    28     6     1   ar
    29    28    23   ar
    30    19    22    1
    31    12    17    1
    32    12    18    1
@<TRIPOS>MOLECULE
*****
 30 32 0 0 0
SMALL
GASTEIGER

@<TRIPOS>ATOM
      1 C         -10.1157  -18.7708   21.1735 C.ar    1  UNL1        0.0555
      2 C          -8.6803  -18.3358   21.1918 C.ar    1  UNL1        0.0168
      3 C          -7.7430  -18.7974   20.1156 C.ar    1  UNL1        0.0505
      4 C          -8.2410  -19.6940   19.0211 C.ar    1  UNL1        0.0170
      5 C          -9.6764  -20.1290   19.0028 C.ar    1  UNL1        0.0307
      6 C         -10.6137  -19.6674   20.0790 C.ar    1  UNL1        0.1402
      7 F         -12.0492  -20.1024   20.0607 F       1  UNL1       -0.2044
      8 C         -11.4025  -17.3346   21.1643 C.3     1  UNL1        0.0638
      9 C         -11.0531  -18.3091   22.2497 C.3     1  UNL1        0.2513
     10 N         -10.3781  -19.4440   22.9614 N.2     1  UNL1       -0.0663
     11 C         -10.7619  -19.7788   24.3723 C.2     1  UNL1        0.3195
     12 N         -10.0869  -20.9137   25.0839 N.pl3   1  UNL1       -0.2480
     13 C         -11.8207  -18.9787   25.0715 C.3     1  UNL1        0.2611
     14 O         -12.4956  -17.8438   24.3599 O.3     1  UNL1       -0.3108
     15 C         -12.1118  -17.5090   22.9490 C.3     1  UNL1        0.3281
     16 F         -12.7868  -16.3742   22.2372 F       1  UNL1       -0.1989
     17 H          -9.3920  -21.4388   24.6250 H       1  UNL1        0.2882
     18 H         -10.3387  -21.1335   26.0099 H       1  UNL1        0.2882
     19 N          -6.3075  -18.3624   20.1339 N.am    1  UNL1       -0.2791
     20 C          -5.2160  -19.3833   20.2623 C.2     1  UNL1        0.2672
     21 O          -5.5601  -20.8392   20.3725 O.2     1  UNL1       -0.2682
     22 H          -6.0817  -17.4069   20.0616 H       1  UNL1        0.1552
     23 C          -3.7806  -18.9484   20.2806 C.ar    1  UNL1        0.1348
     24 C          -2.8700  -19.4133   21.3782 C.ar    1  UNL1        0.0245
     25 C          -1.4345  -18.9783   21.3964 C.ar    1  UNL1        0.0135
     26 C          -0.9097  -18.0785   20.3171 C.ar    1  UNL1        0.0876
     27 C          -1.8203  -17.6136   19.2195 C.ar    1  UNL1        0.1092
     28 N          -3.2558  -18.0485   19.2013 N.ar    1  UNL1       -0.2385
     29 C           0.5257  -17.6436   20.3354 C.1     1  UNL1        0.1020
     30 N           1.9612  -17.2086   20.3537 N.1     1  UNL1       -0.1908
@<TRIPOS>BOND
     1     9     8    1
     2     9     1    1
     3     1     2   ar
     4     2     3   ar
     5     3    19    1
     6    19    20   am
     7    20    21    2
     8    20    23    1
     9    23    24   ar
    10    24    25   ar
    11    25    26   ar
    12    26    29    1
    13    29    30    3
    14    26    27   ar
    15    27    28   ar
    16     3     4   ar
    17     4     5   ar
    18     5     6   ar
    19     6     7    1
    20     9    10    1
    21    10    11    2
    22    11    12    1
    23    11    13    1
    24    13    14    1
    25    14    15    1
    26    15    16    1
    27    15     9    1
    28     6     1   ar
    29    28    23   ar
    30    19    22    1
    31    12    17    1
    32    12    18    1
@<TRIPOS>MOLECULE
*****
 30 32 0 0 0
SMALL
GASTEIGER

@<TRIPOS>ATOM
      1 C           3.5299   -1.6445   19.4890 C.ar    1  UNL1        0.0555
      2 C           2.5279   -1.1352   20.4822 C.ar    1  UNL1        0.0168
      3 C           1.6811    0.0572   20.1490 C.ar    1  UNL1        0.0505
      4 C           1.8363    0.7403   18.8226 C.ar    1  UNL1        0.0170
      5 C           2.8384    0.2309   17.8294 C.ar    1  UNL1        0.0307
      6 C           3.6852   -0.9614   18.1626 C.ar    1  UNL1        0.1402
      7 F           4.6873   -1.4708   17.1694 F       1  UNL1       -0.2044
      8 C           3.1981   -3.5214   19.1958 C.3     1  UNL1        0.0638
      9 C           4.3768   -2.8370   19.8222 C.3     1  UNL1        0.2513
     10 N           5.2613   -1.7385   20.3328 N.2     1  UNL1       -0.0663
     11 C           6.5834   -2.0700   20.9591 C.2     1  UNL1        0.3195
     12 N           7.4679   -0.9714   21.4698 N.pl3   1  UNL1       -0.2480
     13 C           7.0209   -3.5002   21.0748 C.3     1  UNL1        0.2611
     14 O           6.1363   -4.5987   20.5641 O.3     1  UNL1       -0.3108
     15 C           4.8143   -4.2671   19.9378 C.3     1  UNL1        0.3281
     16 F           3.9297   -5.3656   19.4271 F       1  UNL1       -0.1989
     17 H           7.1808   -0.0328   21.3939 H       1  UNL1        0.2882
     18 H           8.3356   -1.1890   21.8809 H       1  UNL1        0.2882
     19 N           0.6790    0.5666   21.1422 N.am    1  UNL1       -0.2791
     20 C           1.0376    1.7021   22.0543 C.2     1  UNL1        0.2672
     21 O           2.3983    2.3282   21.9733 O.2     1  UNL1       -0.2682
     22 H          -0.2140    0.1557   21.1954 H       1  UNL1        0.1552
     23 C           0.0356    2.2115   23.0475 C.ar    1  UNL1        0.1348
     24 C           0.1006    1.7611   24.4768 C.ar    1  UNL1        0.0245
     25 C          -0.9015    2.2706   25.4700 C.ar    1  UNL1        0.0135
     26 C          -1.9685    3.2304   25.0339 C.ar    1  UNL1        0.0876
     27 C          -2.0335    3.6807   23.6046 C.ar    1  UNL1        0.1092
     28 N          -1.0315    3.1713   22.6114 N.ar    1  UNL1       -0.2385
     29 C          -2.9705    3.7398   26.0271 C.1     1  UNL1        0.1020
     30 N          -3.9726    4.2491   27.0203 N.1     1  UNL1       -0.1908
@<TRIPOS>BOND
     1     9     8    1
     2     9     1    1
     3     1     2   ar
     4     2     3   ar
     5     3    19    1
     6    19    20   am
     7    20    21    2
     8    20    23    1
     9    23    24   ar
    10    24    25   ar
    11    25    26   ar
    12    26    29    1
    13    29    30    3
    14    26    27   ar
    15    27    28   ar
    16     3     4   ar
    17     4     5   ar
    18     5     6   ar
    19     6     7    1
    20     9    10    1
    21    10    11    2
    22    11    12    1
    23    11    13    1
    24    13    14    1
    25    14    15    1
    26    15    16    1
    27    15     9    1
    28     6     1   ar
    29    28    23   ar
    30    19    22    1
    31    12    17    1
    32    12    18    1
@<TRIPOS>MOLECULE
*****
 30 32 0 0 0
SMALL
GASTEIGER

@<TRIPOS>ATOM
      1 C           3.2275   -1.5764   19.7058 C.ar    1  UNL1        0.0555
      2 C           2.0116   -0.9824   20.3528 C.ar    1  UNL1        0.0168
      3 C           1.2795    0.1424   19.6828 C.ar    1  UNL1        0.0505
      4 C           1.7634    0.6732   18.3660 C.ar    1  UNL1        0.0170
      5 C           2.9793    0.0792   17.7190 C.ar    1  UNL1        0.0307
      6 C           3.7114   -1.0456   18.3889 C.ar    1  UNL1        0.1402
      7 F           4.9274   -1.6397   17.7419 F       1  UNL1       -0.2044
      8 C           3.2187   -3.4656   19.3188 C.3     1  UNL1        0.0638
      9 C           3.9596   -2.7013   20.3757 C.3     1  UNL1        0.2513
     10 N           4.4463   -1.5464   21.1999 N.2     1  UNL1       -0.0663
     11 C           5.4077   -1.7818   22.3269 C.2     1  UNL1        0.3195
     12 N           5.8944   -0.6268   23.1512 N.pl3   1  UNL1       -0.2480
     13 C           5.8825   -3.1721   22.6297 C.3     1  UNL1        0.2611
     14 O           5.3959   -4.3270   21.8055 O.3     1  UNL1       -0.3108
     15 C           4.4344   -4.0916   20.6785 C.3     1  UNL1        0.3281
     16 F           3.9477   -5.2465   19.8542 F       1  UNL1       -0.1989
     17 H           5.5827    0.2857   22.9524 H       1  UNL1        0.2882
     18 H           6.5254   -0.7813   23.8909 H       1  UNL1        0.2882
     19 N           0.0636    0.7366   20.3298 N.am    1  UNL1       -0.2791
     20 C           0.1261    2.1132   20.9221 C.2     1  UNL1        0.2672
     21 O           1.4047    2.8958   20.8675 O.2     1  UNL1       -0.2682
     22 H          -0.7756    0.2229   20.3657 H       1  UNL1        0.1552
     23 C          -1.0898    2.7073   21.5691 C.ar    1  UNL1        0.1348
     24 C          -1.0205    3.2027   22.9832 C.ar    1  UNL1        0.0245
     25 C          -2.2365    3.7968   23.6302 C.ar    1  UNL1        0.0135
     26 C          -3.5216    3.8956   22.8630 C.ar    1  UNL1        0.0876
     27 C          -3.5909    3.4002   21.4488 C.ar    1  UNL1        0.1092
     28 N          -2.3750    2.8061   20.8019 N.ar    1  UNL1       -0.2385
     29 C          -4.7375    4.4897   23.5099 C.1     1  UNL1        0.1020
     30 N          -5.9535    5.0839   24.1569 N.1     1  UNL1       -0.1908
@<TRIPOS>BOND
     1     9     8    1
     2     9     1    1
     3     1     2   ar
     4     2     3   ar
     5     3    19    1
     6    19    20   am
     7    20    21    2
     8    20    23    1
     9    23    24   ar
    10    24    25   ar
    11    25    26   ar
    12    26    29    1
    13    29    30    3
    14    26    27   ar
    15    27    28   ar
    16     3     4   ar
    17     4     5   ar
    18     5     6   ar
    19     6     7    1
    20     9    10    1
    21    10    11    2
    22    11    12    1
    23    11    13    1
    24    13    14    1
    25    14    15    1
    26    15    16    1
    27    15     9    1
    28     6     1   ar
    29    28    23   ar
    30    19    22    1
    31    12    17    1
    32    12    18    1
@<TRIPOS>MOLECULE
*****
 30 32 0 0 0
SMALL
GASTEIGER

@<TRIPOS>ATOM
      1 C           2.7192   -0.3531   20.5421 C.ar    1  UNL1        0.0555
      2 C           1.3219    0.0569   20.9017 C.ar    1  UNL1        0.0168
      3 C           0.6330    1.1371   20.1217 C.ar    1  UNL1        0.0505
      4 C           1.3415    1.8073   18.9820 C.ar    1  UNL1        0.0170
      5 C           2.7388    1.3974   18.6223 C.ar    1  UNL1        0.0307
      6 C           3.4277    0.3171   19.4024 C.ar    1  UNL1        0.1402
      7 F           4.8250   -0.0929   19.0427 F       1  UNL1       -0.2044
      8 C           3.3331   -0.3628   22.3701 C.3     1  UNL1        0.0638
      9 C           3.4082   -1.4334   21.3221 C.3     1  UNL1        0.2513
     10 N           3.2440   -2.1288   20.0033 N.2     1  UNL1       -0.0663
     11 C           3.7426   -3.5326   19.8284 C.2     1  UNL1        0.3195
     12 N           3.5784   -4.2280   18.5095 N.pl3   1  UNL1       -0.2480
     13 C           4.4055   -4.2410   20.9725 C.3     1  UNL1        0.2611
     14 O           4.5697   -3.5457   22.2913 O.3     1  UNL1       -0.3108
     15 C           4.0711   -2.1418   22.4662 C.3     1  UNL1        0.3281
     16 F           4.2352   -1.4463   23.7850 F       1  UNL1       -0.1989
     17 H           3.1433   -3.7630   17.7586 H       1  UNL1        0.2882
     18 H           3.9056   -5.1494   18.3947 H       1  UNL1        0.2882
     19 N          -0.7643    1.5471   20.4813 N.am    1  UNL1       -0.2791
     20 C          -1.0005    2.8169   21.2441 C.2     1  UNL1        0.2672
     21 O           0.1607    3.6767   21.6473 O.2     1  UNL1       -0.2682
     22 H          -1.5264    0.9829   20.2167 H       1  UNL1        0.1552
     23 C          -2.3978    3.2270   21.6037 C.ar    1  UNL1        0.1348
     24 C          -2.6694    3.8884   22.9223 C.ar    1  UNL1        0.0245
     25 C          -4.0668    4.2985   23.2820 C.ar    1  UNL1        0.0135
     26 C          -5.1925    4.0471   22.3230 C.ar    1  UNL1        0.0876
     27 C          -4.9208    3.3857   21.0044 C.ar    1  UNL1        0.1092
     28 N          -3.5235    2.9756   20.6447 N.ar    1  UNL1       -0.2385
     29 C          -6.5897    4.4572   22.6826 C.1     1  UNL1        0.1020
     30 N          -7.9871    4.8673   23.0422 N.1     1  UNL1       -0.1908
@<TRIPOS>BOND
     1     9     8    1
     2     9     1    1
     3     1     2   ar
     4     2     3   ar
     5     3    19    1
     6    19    20   am
     7    20    21    2
     8    20    23    1
     9    23    24   ar
    10    24    25   ar
    11    25    26   ar
    12    26    29    1
    13    29    30    3
    14    26    27   ar
    15    27    28   ar
    16     3     4   ar
    17     4     5   ar
    18     5     6   ar
    19     6     7    1
    20     9    10    1
    21    10    11    2
    22    11    12    1
    23    11    13    1
    24    13    14    1
    25    14    15    1
    26    15    16    1
    27    15     9    1
    28     6     1   ar
    29    28    23   ar
    30    19    22    1
    31    12    17    1
    32    12    18    1
@<TRIPOS>MOLECULE
*****
 30 32 0 0 0
SMALL
GASTEIGER

@<TRIPOS>ATOM
      1 C           4.1367   -0.3629   18.8799 C.ar    1  UNL1        0.0555
      2 C           4.8231   -0.7723   20.1492 C.ar    1  UNL1        0.0168
      3 C           5.5801   -2.0658   20.2089 C.ar    1  UNL1        0.0505
      4 C           5.6506   -2.9501   18.9993 C.ar    1  UNL1        0.0170
      5 C           4.9642   -2.5407   17.7300 C.ar    1  UNL1        0.0307
      6 C           4.2072   -1.2472   17.6703 C.ar    1  UNL1        0.1402
      7 F           3.5207   -0.8378   16.4009 F       1  UNL1       -0.2044
      8 C           4.6821    1.3629   18.2144 C.3     1  UNL1        0.0638
      9 C           3.3797    0.9307   18.8202 C.3     1  UNL1        0.2513
     10 N           2.3401    0.0493   19.4466 N.2     1  UNL1       -0.0663
     11 C           0.9960    0.6116   19.8030 C.2     1  UNL1        0.3195
     12 N          -0.0436   -0.2698   20.4295 N.pl3   1  UNL1       -0.2480
     13 C           0.6913    2.0553   19.5328 C.3     1  UNL1        0.2611
     14 O           1.7308    2.9367   18.9064 O.3     1  UNL1       -0.3108
     15 C           3.0750    2.3744   18.5500 C.3     1  UNL1        0.3281
     16 F           4.1146    3.2558   17.9235 F       1  UNL1       -0.1989
     17 H           0.1564   -1.2174   20.6068 H       1  UNL1        0.2882
     18 H          -0.9258    0.0992   20.6634 H       1  UNL1        0.2882
     19 N           6.2666   -2.4752   21.4783 N.am    1  UNL1       -0.2791
     20 C           5.7295   -3.6194   22.2860 C.2     1  UNL1        0.2672
     21 O           4.5059   -4.3542   21.8243 O.2     1  UNL1       -0.2682
     22 H           7.0696   -1.9930   21.7813 H       1  UNL1        0.1552
     23 C           6.4159   -4.0288   23.5553 C.ar    1  UNL1        0.1348
     24 C           6.2197   -3.2256   24.8068 C.ar    1  UNL1        0.0245
     25 C           6.9062   -3.6351   26.0762 C.ar    1  UNL1        0.0135
     26 C           7.7888   -4.8477   26.0939 C.ar    1  UNL1        0.0876
     27 C           7.9850   -5.6510   24.8424 C.ar    1  UNL1        0.1092
     28 N           7.2986   -5.2416   23.5731 N.ar    1  UNL1       -0.2385
     29 C           8.4752   -5.2571   27.3632 C.1     1  UNL1        0.1020
     30 N           9.1616   -5.6666   28.6326 N.1     1  UNL1       -0.1908
@<TRIPOS>BOND
     1     9     8    1
     2     9     1    1
     3     1     2   ar
     4     2     3   ar
     5     3    19    1
     6    19    20   am
     7    20    21    2
     8    20    23    1
     9    23    24   ar
    10    24    25   ar
    11    25    26   ar
    12    26    29    1
    13    29    30    3
    14    26    27   ar
    15    27    28   ar
    16     3     4   ar
    17     4     5   ar
    18     5     6   ar
    19     6     7    1
    20     9    10    1
    21    10    11    2
    22    11    12    1
    23    11    13    1
    24    13    14    1
    25    14    15    1
    26    15    16    1
    27    15     9    1
    28     6     1   ar
    29    28    23   ar
    30    19    22    1
    31    12    17    1
    32    12    18    1
@<TRIPOS>MOLECULE
*****
 30 32 0 0 0
SMALL
GASTEIGER

@<TRIPOS>ATOM
      1 C           4.3261    1.4964   36.9736 C.ar    1  UNL1        0.0555
      2 C           4.3247    0.5382   35.8196 C.ar    1  UNL1        0.0168
      3 C           5.5836   -0.1859   35.4445 C.ar    1  UNL1        0.0505
      4 C           6.8440    0.0482   36.2234 C.ar    1  UNL1        0.0170
      5 C           6.8454    1.0065   37.3774 C.ar    1  UNL1        0.0307
      6 C           5.5864    1.7306   37.7525 C.ar    1  UNL1        0.1402
      7 F           5.5878    2.6888   38.9065 F       1  UNL1       -0.2044
      8 C           3.6754    3.2231   36.4133 C.3     1  UNL1        0.0638
      9 C           3.0671    2.2206   37.3487 C.3     1  UNL1        0.2513
     10 N           2.8961    0.9666   38.1538 N.2     1  UNL1       -0.0663
     11 C           1.6773    0.7849   39.0092 C.2     1  UNL1        0.3195
     12 N           1.5063   -0.4692   39.8143 N.pl3   1  UNL1       -0.2480
     13 C           0.6296    1.8572   39.0594 C.3     1  UNL1        0.2611
     14 O           0.8007    3.1112   38.2543 O.3     1  UNL1       -0.3108
     15 C           2.0194    3.2929   37.3989 C.3     1  UNL1        0.3281
     16 F           2.1906    4.5469   36.5938 F       1  UNL1       -0.1989
     17 H           2.1940   -1.1729   39.7813 H       1  UNL1        0.2882
     18 H           0.7064   -0.5884   40.3757 H       1  UNL1        0.2882
     19 N           5.5823   -1.1442   34.2904 N.am    1  UNL1       -0.2791
     20 C           6.4971   -0.9148   33.1240 C.2     1  UNL1        0.2672
     21 O           7.4132    0.2729   33.1117 O.2     1  UNL1       -0.2682
     22 H           4.9810   -1.9237   34.2986 H       1  UNL1        0.1552
     23 C           6.4957   -1.8730   31.9700 C.ar    1  UNL1        0.1348
     24 C           6.8119   -3.3215   32.1976 C.ar    1  UNL1        0.0245
     25 C           6.8105   -4.2798   31.0435 C.ar    1  UNL1        0.0135
     26 C           6.4931   -3.7894   29.6619 C.ar    1  UNL1        0.0876
     27 C           6.1770   -2.3409   29.4344 C.ar    1  UNL1        0.1092
     28 N           6.1783   -1.3827   30.5884 N.ar    1  UNL1       -0.2385
     29 C           6.4918   -4.7477   28.5079 C.1     1  UNL1        0.1020
     30 N           6.4905   -5.7060   27.3539 N.1     1  UNL1       -0.1908
@<TRIPOS>BOND
     1     9     8    1
     2     9     1    1
     3     1     2   ar
     4     2     3   ar
     5     3    19    1
     6    19    20   am
     7    20    21    2
     8    20    23    1
     9    23    24   ar
    10    24    25   ar
    11    25    26   ar
    12    26    29    1
    13    29    30    3
    14    26    27   ar
    15    27    28   ar
    16     3     4   ar
    17     4     5   ar
    18     5     6   ar
    19     6     7    1
    20     9    10    1
    21    10    11    2
    22    11    12    1
    23    11    13    1
    24    13    14    1
    25    14    15    1
    26    15    16    1
    27    15     9    1
    28     6     1   ar
    29    28    23   ar
    30    19    22    1
    31    12    17    1
    32    12    18    1
@<TRIPOS>MOLECULE
*****
 30 32 0 0 0
SMALL
GASTEIGER

@<TRIPOS>ATOM
      1 C           2.9858   -0.3164   20.3251 C.ar    1  UNL1        0.0555
      2 C           1.6015    0.1340   19.9636 C.ar    1  UNL1        0.0168
      3 C           0.7310    0.7854   20.9970 C.ar    1  UNL1        0.0505
      4 C           1.2448    0.9864   22.3918 C.ar    1  UNL1        0.0170
      5 C           2.6291    0.5359   22.7533 C.ar    1  UNL1        0.0307
      6 C           3.4996   -0.1155   21.7199 C.ar    1  UNL1        0.1402
      7 F           4.8840   -0.5660   22.0814 F       1  UNL1       -0.2044
      8 C           3.1173   -2.1685   19.8040 C.3     1  UNL1        0.0638
      9 C           3.8563   -0.9679   19.2917 C.3     1  UNL1        0.2513
     10 N           4.2931    0.4589   19.1383 N.2     1  UNL1       -0.0663
     11 C           5.3437    0.8173   18.1294 C.2     1  UNL1        0.3195
     12 N           5.7804    2.2441   17.9760 N.pl3   1  UNL1       -0.2480
     13 C           5.9575   -0.2511   17.2740 C.3     1  UNL1        0.2611
     14 O           5.5208   -1.6779   17.4274 O.3     1  UNL1       -0.3108
     15 C           4.4702   -2.0363   18.4363 C.3     1  UNL1        0.3281
     16 F           4.0334   -3.4630   18.5897 F       1  UNL1       -0.1989
     17 H           5.3775    2.9453   18.5375 H       1  UNL1        0.2882
     18 H           6.4699    2.4794   17.3139 H       1  UNL1        0.2882
     19 N          -0.6534    1.2359   20.6355 N.am    1  UNL1       -0.2791
     20 C          -0.9336    2.6924   20.4116 C.2     1  UNL1        0.2672
     21 O           0.1706    3.6983   20.5491 O.2     1  UNL1       -0.2682
     22 H          -1.3781    0.5756   20.5453 H       1  UNL1        0.1552
     23 C          -2.3179    3.1429   20.0502 C.ar    1  UNL1        0.1348
     24 C          -2.5540    3.8873   18.7695 C.ar    1  UNL1        0.0245
     25 C          -3.9384    4.3378   18.4081 C.ar    1  UNL1        0.0135
     26 C          -5.0867    4.0439   19.3273 C.ar    1  UNL1        0.0876
     27 C          -4.8506    3.2995   20.6080 C.ar    1  UNL1        0.1092
     28 N          -3.4663    2.8490   20.9694 N.ar    1  UNL1       -0.2385
     29 C          -6.4710    4.4944   18.9659 C.1     1  UNL1        0.1020
     30 N          -7.8554    4.9449   18.6045 N.1     1  UNL1       -0.1908
@<TRIPOS>BOND
     1     9     8    1
     2     9     1    1
     3     1     2   ar
     4     2     3   ar
     5     3    19    1
     6    19    20   am
     7    20    21    2
     8    20    23    1
     9    23    24   ar
    10    24    25   ar
    11    25    26   ar
    12    26    29    1
    13    29    30    3
    14    26    27   ar
    15    27    28   ar
    16     3     4   ar
    17     4     5   ar
    18     5     6   ar
    19     6     7    1
    20     9    10    1
    21    10    11    2
    22    11    12    1
    23    11    13    1
    24    13    14    1
    25    14    15    1
    26    15    16    1
    27    15     9    1
    28     6     1   ar
    29    28    23   ar
    30    19    22    1
    31    12    17    1
    32    12    18    1
@<TRIPOS>MOLECULE
*****
 30 32 0 0 0
SMALL
GASTEIGER

@<TRIPOS>ATOM
      1 C           3.7298   -0.8014   19.1908 C.ar    1  UNL1        0.0555
      2 C           4.4565   -1.2335   20.4298 C.ar    1  UNL1        0.0168
      3 C           5.5957   -2.2043   20.3310 C.ar    1  UNL1        0.0505
      4 C           6.0081   -2.7431   18.9933 C.ar    1  UNL1        0.0170
      5 C           5.2814   -2.3111   17.7543 C.ar    1  UNL1        0.0307
      6 C           4.1423   -1.3403   17.8530 C.ar    1  UNL1        0.1402
      7 F           3.4155   -0.9082   16.6140 F       1  UNL1       -0.2044
      8 C           1.9289   -1.0642   19.8283 C.3     1  UNL1        0.0638
      9 C           2.5906    0.1695   19.2895 C.3     1  UNL1        0.2513
     10 N           3.6479    1.0659   18.7165 N.2     1  UNL1       -0.0663
     11 C           3.3363    2.5048   18.4292 C.2     1  UNL1        0.3195
     12 N           4.3937    3.4012   17.8562 N.pl3   1  UNL1       -0.2480
     13 C           1.9673    3.0472   18.7151 C.3     1  UNL1        0.2611
     14 O           0.9100    2.1507   19.2881 O.3     1  UNL1       -0.3108
     15 C           1.2216    0.7119   19.5753 C.3     1  UNL1        0.3281
     16 F           0.1644   -0.1847   20.1484 F       1  UNL1       -0.1989
     17 H           5.2922    3.0452   17.6686 H       1  UNL1        0.2882
     18 H           4.1892    4.3456   17.6676 H       1  UNL1        0.2882
     19 N           6.3225   -2.6364   21.5701 N.am    1  UNL1       -0.2791
     20 C           5.8204   -3.8053   22.3649 C.2     1  UNL1        0.2672
     21 O           4.5917   -4.5421   21.9206 O.2     1  UNL1       -0.2682
     22 H           7.1289   -2.1528   21.8616 H       1  UNL1        0.1552
     23 C           6.5471   -4.2374   23.6039 C.ar    1  UNL1        0.1348
     24 C           6.3400   -3.4967   24.8917 C.ar    1  UNL1        0.0245
     25 C           7.0668   -3.9289   26.1307 C.ar    1  UNL1        0.0135
     26 C           8.0006   -5.1017   26.0819 C.ar    1  UNL1        0.0876
     27 C           8.2077   -5.8424   24.7941 C.ar    1  UNL1        0.1092
     28 N           7.4810   -5.4103   23.5551 N.ar    1  UNL1       -0.2385
     29 C           8.7273   -5.5338   27.3209 C.1     1  UNL1        0.1020
     30 N           9.4541   -5.9660   28.5599 N.1     1  UNL1       -0.1908
@<TRIPOS>BOND
     1     9     8    1
     2     9     1    1
     3     1     2   ar
     4     2     3   ar
     5     3    19    1
     6    19    20   am
     7    20    21    2
     8    20    23    1
     9    23    24   ar
    10    24    25   ar
    11    25    26   ar
    12    26    29    1
    13    29    30    3
    14    26    27   ar
    15    27    28   ar
    16     3     4   ar
    17     4     5   ar
    18     5     6   ar
    19     6     7    1
    20     9    10    1
    21    10    11    2
    22    11    12    1
    23    11    13    1
    24    13    14    1
    25    14    15    1
    26    15    16    1
    27    15     9    1
    28     6     1   ar
    29    28    23   ar
    30    19    22    1
    31    12    17    1
    32    12    18    1
