@<TRIPOS>MOLECULE
*****
 28 32 0 0 0
SMALL
GASTEIGER

@<TRIPOS>ATOM
      1 C          -6.8762  -16.7179   23.5295 C.ar    1  UNL1        0.1755
      2 N          -5.5183  -16.9761   22.9467 N.ar    1  UNL1       -0.2192
      3 C          -5.5870  -18.2502   22.1582 C.ar    1  UNL1        0.1186
      4 C          -4.5554  -18.9969   21.3656 C.ar    1  UNL1        0.1194
      5 N          -4.9240  -20.2728   20.6684 N.ar    1  UNL1       -0.2406
      6 C          -6.3243  -20.8020   20.7638 C.ar    1  UNL1        0.1005
      7 C          -7.3559  -20.0554   21.5563 C.ar    1  UNL1        0.0398
      8 C          -6.9873  -18.7795   22.2536 C.ar    1  UNL1        0.0865
      9 N          -7.7841  -17.8325   23.1011 N.ar    1  UNL1       -0.2853
     10 C          -9.2341  -17.9750   23.4576 C.ar    1  UNL1        0.0658
     11 C          -9.6332  -18.7411   24.6838 C.ar    1  UNL1        0.0173
     12 C         -11.0832  -18.8836   25.0403 C.ar    1  UNL1       -0.0028
     13 C         -12.1342  -18.2600   24.1706 C.ar    1  UNL1       -0.0224
     14 C         -11.7351  -17.4938   22.9442 C.ar    1  UNL1       -0.0026
     15 C         -12.7861  -16.8702   22.0745 C.ar    1  UNL1       -0.0003
     16 C         -12.3870  -16.1041   20.8482 C.ar    1  UNL1       -0.0000
     17 C         -10.9370  -15.9616   20.4917 C.ar    1  UNL1        0.0000
     18 C          -9.8860  -16.5852   21.3615 C.ar    1  UNL1        0.0014
     19 C         -10.2851  -17.3513   22.5877 C.ar    1  UNL1        0.0159
     20 C         -13.5842  -18.4025   24.5271 C.3     1  UNL1        0.0224
     21 C         -15.0188  -18.5281   24.1075 C.3     1  UNL1        0.0047
     22 C         -14.6611  -18.5238   25.5642 C.3     1  UNL1        0.0047
     23 S          -7.2590  -15.5502   24.3896 S.3     1  UNL1       -0.0722
     24 C          -5.4922  -15.3110   26.2794 C.3     1  UNL1        0.0181
     25 C          -6.9094  -15.5465   25.8483 C.3     1  UNL1        0.0910
     26 C          -7.9773  -15.7783   26.8760 C.2     1  UNL1        0.0605
     27 O          -8.5182  -17.1598   27.0970 O.co2   1  UNL1       -0.5483
     28 O          -8.5042  -14.6286   27.6826 O.co2   1  UNL1       -0.5483
@<TRIPOS>UNITY_ATOM_ATTR
27 1
charge -1
@<TRIPOS>BOND
     1    24    25    1
     2    25    23    1
     3    23     1    1
     4     1     2   ar
     5     2     3   ar
     6     3     4   ar
     7     4     5   ar
     8     5     6   ar
     9     6     7   ar
    10     7     8   ar
    11     8     9   ar
    12     9    10    1
    13    10    11   ar
    14    11    12   ar
    15    12    13   ar
    16    13    20    1
    17    20    21    1
    18    21    22    1
    19    13    14   ar
    20    14    15   ar
    21    15    16   ar
    22    16    17   ar
    23    17    18   ar
    24    18    19   ar
    25    25    26    1
    26    26    27   ar
    27    26    28   ar
    28     9     1   ar
    29    19    10   ar
    30     8     3   ar
    31    22    20    1
    32    19    14   ar
@<TRIPOS>MOLECULE
*****
 28 32 0 0 0
SMALL
GASTEIGER

@<TRIPOS>ATOM
      1 C          -7.2455  -18.3955   22.4309 C.ar    1  UNL1        0.1755
      2 N          -5.8440  -17.8655   22.5005 N.ar    1  UNL1       -0.2192
      3 C          -5.8156  -16.7619   23.5160 C.ar    1  UNL1        0.1186
      4 C          -4.7084  -15.8758   24.0047 C.ar    1  UNL1        0.1194
      5 N          -4.9852  -14.8376   25.0513 N.ar    1  UNL1       -0.2406
      6 C          -6.3692  -14.6856   25.6093 C.ar    1  UNL1        0.1005
      7 C          -7.4764  -15.5717   25.1207 C.ar    1  UNL1        0.0398
      8 C          -7.1996  -16.6099   24.0740 C.ar    1  UNL1        0.0865
      9 N          -8.0834  -17.6195   23.4034 N.ar    1  UNL1       -0.2853
     10 C          -9.5478  -17.8181   23.6602 C.ar    1  UNL1        0.0658
     11 C         -10.0011  -18.5588   24.8832 C.ar    1  UNL1        0.0173
     12 C         -11.4655  -18.7574   25.1400 C.ar    1  UNL1       -0.0028
     13 C         -12.4767  -18.2155   24.1737 C.ar    1  UNL1       -0.0224
     14 C         -12.0234  -17.4748   22.9506 C.ar    1  UNL1       -0.0026
     15 C         -13.0346  -16.9328   21.9843 C.ar    1  UNL1       -0.0003
     16 C         -12.5813  -16.1922   20.7612 C.ar    1  UNL1       -0.0000
     17 C         -11.1169  -15.9935   20.5044 C.ar    1  UNL1        0.0000
     18 C         -10.1057  -16.5355   21.4707 C.ar    1  UNL1        0.0014
     19 C         -10.5590  -17.2761   22.6938 C.ar    1  UNL1        0.0159
     20 C         -13.9411  -18.4142   24.4305 C.3     1  UNL1        0.0224
     21 C         -15.0813  -18.5754   25.3918 C.3     1  UNL1        0.0047
     22 C         -15.3374  -18.5970   23.9140 C.3     1  UNL1        0.0047
     23 S          -7.7250  -19.5065   21.5445 S.3     1  UNL1       -0.0722
     24 C          -8.1653  -19.5968   18.9856 C.3     1  UNL1        0.0181
     25 C          -7.2089  -19.6220   20.1408 C.3     1  UNL1        0.0910
     26 C          -5.7363  -19.7627   19.8924 C.2     1  UNL1        0.0605
     27 O          -5.0611  -21.0837   20.1142 O.co2   1  UNL1       -0.5483
     28 O          -4.9389  -18.5825   19.4221 O.co2   1  UNL1       -0.5483
@<TRIPOS>UNITY_ATOM_ATTR
27 1
charge -1
@<TRIPOS>BOND
     1    24    25    1
     2    25    23    1
     3    23     1    1
     4     1     2   ar
     5     2     3   ar
     6     3     4   ar
     7     4     5   ar
     8     5     6   ar
     9     6     7   ar
    10     7     8   ar
    11     8     9   ar
    12     9    10    1
    13    10    11   ar
    14    11    12   ar
    15    12    13   ar
    16    13    20    1
    17    20    21    1
    18    21    22    1
    19    13    14   ar
    20    14    15   ar
    21    15    16   ar
    22    16    17   ar
    23    17    18   ar
    24    18    19   ar
    25    25    26    1
    26    26    27   ar
    27    26    28   ar
    28     9     1   ar
    29    19    10   ar
    30     8     3   ar
    31    22    20    1
    32    19    14   ar
@<TRIPOS>MOLECULE
*****
 28 32 0 0 0
SMALL
GASTEIGER

@<TRIPOS>ATOM
      1 C          -7.2526  -19.0312   21.7759 C.ar    1  UNL1        0.1755
      2 N          -5.8171  -18.6234   21.6249 N.ar    1  UNL1       -0.2192
      3 C          -5.5460  -17.5130   22.5963 C.ar    1  UNL1        0.1186
      4 C          -4.3084  -16.7195   22.8937 C.ar    1  UNL1        0.1194
      5 N          -4.3388  -15.6475   23.9425 N.ar    1  UNL1       -0.2406
      6 C          -5.6069  -15.3691   24.6939 C.ar    1  UNL1        0.1005
      7 C          -6.8445  -16.1627   24.3964 C.ar    1  UNL1        0.0398
      8 C          -6.8141  -17.2346   23.3476 C.ar    1  UNL1        0.0865
      9 N          -7.8688  -18.1729   22.8406 N.ar    1  UNL1       -0.2853
     10 C          -9.2902  -18.2409   23.3150 C.ar    1  UNL1        0.0658
     11 C          -9.6533  -19.1239   24.4720 C.ar    1  UNL1        0.0173
     12 C         -11.0747  -19.1919   24.9463 C.ar    1  UNL1       -0.0028
     13 C         -12.1330  -18.3770   24.2638 C.ar    1  UNL1       -0.0224
     14 C         -11.7699  -17.4940   23.1068 C.ar    1  UNL1       -0.0026
     15 C         -12.8282  -16.6791   22.4242 C.ar    1  UNL1       -0.0003
     16 C         -12.4651  -15.7962   21.2673 C.ar    1  UNL1       -0.0000
     17 C         -11.0438  -15.7282   20.7929 C.ar    1  UNL1        0.0000
     18 C          -9.9855  -16.5431   21.4754 C.ar    1  UNL1        0.0014
     19 C         -10.3485  -17.4260   22.6324 C.ar    1  UNL1        0.0159
     20 C         -13.5544  -18.4450   24.7382 C.3     1  UNL1        0.0224
     21 C         -15.0128  -18.6414   24.4477 C.3     1  UNL1        0.0047
     22 C         -14.5578  -18.3665   25.8503 C.3     1  UNL1        0.0047
     23 S          -7.9496  -20.1083   20.9986 S.3     1  UNL1       -0.0722
     24 C          -8.2367  -19.5142   18.4858 C.3     1  UNL1        0.0181
     25 C          -8.8336  -19.7463   19.8421 C.3     1  UNL1        0.0910
     26 C         -10.3146  -19.6164   20.0420 C.2     1  UNL1        0.0605
     27 O         -10.9965  -20.3983   21.1253 O.co2   1  UNL1       -0.5483
     28 O         -11.1135  -18.7047   19.1586 O.co2   1  UNL1       -0.5483
@<TRIPOS>UNITY_ATOM_ATTR
27 1
charge -1
@<TRIPOS>BOND
     1    24    25    1
     2    25    23    1
     3    23     1    1
     4     1     2   ar
     5     2     3   ar
     6     3     4   ar
     7     4     5   ar
     8     5     6   ar
     9     6     7   ar
    10     7     8   ar
    11     8     9   ar
    12     9    10    1
    13    10    11   ar
    14    11    12   ar
    15    12    13   ar
    16    13    20    1
    17    20    21    1
    18    21    22    1
    19    13    14   ar
    20    14    15   ar
    21    15    16   ar
    22    16    17   ar
    23    17    18   ar
    24    18    19   ar
    25    25    26    1
    26    26    27   ar
    27    26    28   ar
    28     9     1   ar
    29    19    10   ar
    30     8     3   ar
    31    22    20    1
    32    19    14   ar
@<TRIPOS>MOLECULE
*****
 28 32 0 0 0
SMALL
GASTEIGER

@<TRIPOS>ATOM
      1 C           3.9734   -2.2800   20.3157 C.ar    1  UNL1        0.1755
      2 N           4.7121   -3.0860   21.3427 N.ar    1  UNL1       -0.2192
      3 C           4.5406   -2.4121   22.6718 C.ar    1  UNL1        0.1186
      4 C           5.0445   -2.7537   24.0427 C.ar    1  UNL1        0.1194
      5 N           4.7037   -1.8728   25.2080 N.ar    1  UNL1       -0.2406
      6 C           3.8591   -0.6504   25.0024 C.ar    1  UNL1        0.1005
      7 C           3.3552   -0.3088   23.6314 C.ar    1  UNL1        0.0398
      8 C           3.6960   -1.1897   22.4662 C.ar    1  UNL1        0.0865
      9 N           3.3454   -1.1080   21.0100 N.ar    1  UNL1       -0.2853
     10 C           2.5130   -0.0417   20.3619 C.ar    1  UNL1        0.0658
     11 C           1.0186   -0.1680   20.3377 C.ar    1  UNL1        0.0173
     12 C           0.1862    0.8984   19.6896 C.ar    1  UNL1       -0.0028
     13 C           0.8483    2.0911   19.0659 C.ar    1  UNL1       -0.0224
     14 C           2.3428    2.2175   19.0901 C.ar    1  UNL1       -0.0026
     15 C           3.0048    3.4102   18.4664 C.ar    1  UNL1       -0.0003
     16 C           4.4993    3.5365   18.4906 C.ar    1  UNL1       -0.0000
     17 C           5.3317    2.4701   19.1387 C.ar    1  UNL1        0.0000
     18 C           4.6696    1.2774   19.7624 C.ar    1  UNL1        0.0014
     19 C           3.1752    1.1511   19.7382 C.ar    1  UNL1        0.0159
     20 C           0.0159    3.1575   18.4178 C.3     1  UNL1        0.0224
     21 C          -0.7970    3.6432   17.2546 C.3     1  UNL1        0.0047
     22 C          -0.6129    4.5187   18.4586 C.3     1  UNL1        0.0047
     23 S           3.8793   -2.5914   18.8514 S.3     1  UNL1       -0.0722
     24 C           3.7852   -0.9255   16.8599 C.3     1  UNL1        0.0181
     25 C           4.5812   -1.7198   17.8525 C.3     1  UNL1        0.0910
     26 C           6.0792   -1.6426   17.8463 C.2     1  UNL1        0.0605
     27 O           6.7725   -0.5865   17.0376 O.co2   1  UNL1       -0.5483
     28 O           6.8840   -2.6215   18.6489 O.co2   1  UNL1       -0.5483
@<TRIPOS>UNITY_ATOM_ATTR
27 1
charge -1
@<TRIPOS>BOND
     1    24    25    1
     2    25    23    1
     3    23     1    1
     4     1     2   ar
     5     2     3   ar
     6     3     4   ar
     7     4     5   ar
     8     5     6   ar
     9     6     7   ar
    10     7     8   ar
    11     8     9   ar
    12     9    10    1
    13    10    11   ar
    14    11    12   ar
    15    12    13   ar
    16    13    20    1
    17    20    21    1
    18    21    22    1
    19    13    14   ar
    20    14    15   ar
    21    15    16   ar
    22    16    17   ar
    23    17    18   ar
    24    18    19   ar
    25    25    26    1
    26    26    27   ar
    27    26    28   ar
    28     9     1   ar
    29    19    10   ar
    30     8     3   ar
    31    22    20    1
    32    19    14   ar
@<TRIPOS>MOLECULE
*****
 28 32 0 0 0
SMALL
GASTEIGER

@<TRIPOS>ATOM
      1 C          -5.1214  -16.7672   23.4649 C.ar    1  UNL1        0.1755
      2 N          -3.7480  -17.3490   23.3060 N.ar    1  UNL1       -0.2192
      3 C          -3.8346  -18.4809   22.3255 C.ar    1  UNL1        0.1186
      4 C          -2.7985  -19.4195   21.7821 C.ar    1  UNL1        0.1194
      5 N          -3.1893  -20.4759   20.7915 N.ar    1  UNL1       -0.2406
      6 C          -4.6163  -20.5937   20.3444 C.ar    1  UNL1        0.1005
      7 C          -5.6524  -19.6550   20.8879 C.ar    1  UNL1        0.0398
      8 C          -5.2616  -18.5986   21.8784 C.ar    1  UNL1        0.0865
      9 N          -6.0569  -17.5395   22.5826 N.ar    1  UNL1       -0.2853
     10 C          -7.5292  -17.2956   22.4311 C.ar    1  UNL1        0.0658
     11 C          -8.0198  -15.9955   21.8664 C.ar    1  UNL1        0.0173
     12 C          -9.4920  -15.7515   21.7149 C.ar    1  UNL1       -0.0028
     13 C         -10.4737  -16.8078   22.1280 C.ar    1  UNL1       -0.0224
     14 C          -9.9831  -18.1080   22.6927 C.ar    1  UNL1       -0.0026
     15 C         -10.9647  -19.1642   23.1058 C.ar    1  UNL1       -0.0003
     16 C         -10.4741  -20.4644   23.6704 C.ar    1  UNL1       -0.0000
     17 C          -9.0019  -20.7083   23.8219 C.ar    1  UNL1        0.0000
     18 C          -8.0202  -19.6521   23.4088 C.ar    1  UNL1        0.0014
     19 C          -8.5108  -18.3519   22.8442 C.ar    1  UNL1        0.0159
     20 C         -11.9459  -16.5638   21.9765 C.3     1  UNL1        0.0224
     21 C         -13.1995  -15.8679   22.4172 C.3     1  UNL1        0.0047
     22 C         -13.2423  -16.8373   21.2733 C.3     1  UNL1        0.0047
     23 S          -5.4940  -15.6154   24.3506 S.3     1  UNL1       -0.0722
     24 C          -5.0239  -16.4833   26.7539 C.3     1  UNL1        0.0181
     25 C          -5.9580  -15.8681   25.7544 C.3     1  UNL1        0.0910
     26 C          -7.3563  -15.5054   26.1588 C.2     1  UNL1        0.0605
     27 O          -7.6395  -15.0611   27.5632 O.co2   1  UNL1       -0.5483
     28 O          -8.4713  -15.5872   25.1587 O.co2   1  UNL1       -0.5483
@<TRIPOS>UNITY_ATOM_ATTR
27 1
charge -1
@<TRIPOS>BOND
     1    24    25    1
     2    25    23    1
     3    23     1    1
     4     1     2   ar
     5     2     3   ar
     6     3     4   ar
     7     4     5   ar
     8     5     6   ar
     9     6     7   ar
    10     7     8   ar
    11     8     9   ar
    12     9    10    1
    13    10    11   ar
    14    11    12   ar
    15    12    13   ar
    16    13    20    1
    17    20    21    1
    18    21    22    1
    19    13    14   ar
    20    14    15   ar
    21    15    16   ar
    22    16    17   ar
    23    17    18   ar
    24    18    19   ar
    25    25    26    1
    26    26    27   ar
    27    26    28   ar
    28     9     1   ar
    29    19    10   ar
    30     8     3   ar
    31    22    20    1
    32    19    14   ar
@<TRIPOS>MOLECULE
*****
 28 32 0 0 0
SMALL
GASTEIGER

@<TRIPOS>ATOM
      1 C           3.4600    0.9132   19.4523 C.ar    1  UNL1        0.1755
      2 N           2.3002    1.7868   19.8286 N.ar    1  UNL1       -0.2192
      3 C           1.9572    1.5097   21.2624 C.ar    1  UNL1        0.1186
      4 C           0.9042    2.0738   22.1696 C.ar    1  UNL1        0.1194
      5 N           0.7992    1.5930   23.5866 N.ar    1  UNL1       -0.2406
      6 C           1.7471    0.5482   24.0963 C.ar    1  UNL1        0.1005
      7 C           2.8000   -0.0159   23.1891 C.ar    1  UNL1        0.0398
      8 C           2.9051    0.4648   21.7721 C.ar    1  UNL1        0.0865
      9 N           3.8339    0.0962   20.6535 N.ar    1  UNL1       -0.2853
     10 C           4.9420   -0.9124   20.7236 C.ar    1  UNL1        0.0658
     11 C           6.2606   -0.5368   21.3319 C.ar    1  UNL1        0.0173
     12 C           7.3687   -1.5454   21.4020 C.ar    1  UNL1       -0.0028
     13 C           7.1581   -2.9296   20.8639 C.ar    1  UNL1       -0.0224
     14 C           5.8395   -3.3052   20.2556 C.ar    1  UNL1       -0.0026
     15 C           5.6289   -4.6894   19.7174 C.ar    1  UNL1       -0.0003
     16 C           4.3103   -5.0650   19.1091 C.ar    1  UNL1       -0.0000
     17 C           3.2022   -4.0565   19.0390 C.ar    1  UNL1        0.0000
     18 C           3.4127   -2.6723   19.5771 C.ar    1  UNL1        0.0014
     19 C           4.7314   -2.2967   20.1854 C.ar    1  UNL1        0.0159
     20 C           8.2662   -3.9381   20.9340 C.3     1  UNL1        0.0224
     21 C           9.5347   -4.5150   20.3790 C.3     1  UNL1        0.0047
     22 C           8.9170   -5.1081   21.6106 C.3     1  UNL1        0.0047
     23 S           4.1286    0.8651   18.1104 S.3     1  UNL1       -0.0722
     24 C           6.2006    2.2911   18.7609 C.3     1  UNL1        0.0181
     25 C           5.5959    1.1536   17.9926 C.3     1  UNL1        0.0910
     26 C           6.4583    0.3046   17.1063 C.2     1  UNL1        0.0605
     27 O           6.4965   -1.1825   17.2987 O.co2   1  UNL1       -0.5483
     28 O           7.2826    0.9427   16.0278 O.co2   1  UNL1       -0.5483
@<TRIPOS>UNITY_ATOM_ATTR
27 1
charge -1
@<TRIPOS>BOND
     1    24    25    1
     2    25    23    1
     3    23     1    1
     4     1     2   ar
     5     2     3   ar
     6     3     4   ar
     7     4     5   ar
     8     5     6   ar
     9     6     7   ar
    10     7     8   ar
    11     8     9   ar
    12     9    10    1
    13    10    11   ar
    14    11    12   ar
    15    12    13   ar
    16    13    20    1
    17    20    21    1
    18    21    22    1
    19    13    14   ar
    20    14    15   ar
    21    15    16   ar
    22    16    17   ar
    23    17    18   ar
    24    18    19   ar
    25    25    26    1
    26    26    27   ar
    27    26    28   ar
    28     9     1   ar
    29    19    10   ar
    30     8     3   ar
    31    22    20    1
    32    19    14   ar
@<TRIPOS>MOLECULE
*****
 28 32 0 0 0
SMALL
GASTEIGER

@<TRIPOS>ATOM
      1 C           4.2478   -1.4860   18.7618 C.ar    1  UNL1        0.1755
      2 N           5.2050   -1.4190   17.6088 N.ar    1  UNL1       -0.2192
      3 C           5.6344    0.0089   17.4452 C.ar    1  UNL1        0.1186
      4 C           6.5660    0.6719   16.4744 C.ar    1  UNL1        0.1194
      5 N           6.8057    2.1504   16.5554 N.ar    1  UNL1       -0.2406
      6 C           6.1138    2.9658   17.6072 C.ar    1  UNL1        0.1005
      7 C           5.1823    2.3028   18.5780 C.ar    1  UNL1        0.0398
      8 C           4.9425    0.8243   18.4970 C.ar    1  UNL1        0.0865
      9 N           4.0856   -0.0995   19.3107 N.ar    1  UNL1       -0.2853
     10 C           3.2186    0.2940   20.4698 C.ar    1  UNL1        0.0658
     11 C           3.5979   -0.1139   21.8626 C.ar    1  UNL1        0.0173
     12 C           2.7309    0.2796   23.0217 C.ar    1  UNL1       -0.0028
     13 C           1.4847    1.0810   22.7881 C.ar    1  UNL1       -0.0224
     14 C           1.1054    1.4889   21.3953 C.ar    1  UNL1       -0.0026
     15 C          -0.1409    2.2903   21.1616 C.ar    1  UNL1       -0.0003
     16 C          -0.5202    2.6982   19.7689 C.ar    1  UNL1       -0.0000
     17 C           0.3468    2.3047   18.6098 C.ar    1  UNL1        0.0000
     18 C           1.5930    1.5033   18.8434 C.ar    1  UNL1        0.0014
     19 C           1.9723    1.0954   20.2362 C.ar    1  UNL1        0.0159
     20 C           0.6177    1.4745   23.9472 C.3     1  UNL1        0.0224
     21 C           0.0514    1.1801   25.3045 C.3     1  UNL1        0.0047
     22 C          -0.3175    2.4505   24.5974 C.3     1  UNL1        0.0047
     23 S           3.5716   -2.7224   19.2755 S.3     1  UNL1       -0.0722
     24 C           4.5076   -5.0964   18.7877 C.3     1  UNL1        0.0181
     25 C           4.3912   -3.9069   19.6939 C.3     1  UNL1        0.0910
     26 C           5.0946   -3.9018   21.0189 C.2     1  UNL1        0.0605
     27 O           6.5382   -4.3006   21.1032 O.co2   1  UNL1       -0.5483
     28 O           4.3545   -3.4978   22.2594 O.co2   1  UNL1       -0.5483
@<TRIPOS>UNITY_ATOM_ATTR
27 1
charge -1
@<TRIPOS>BOND
     1    24    25    1
     2    25    23    1
     3    23     1    1
     4     1     2   ar
     5     2     3   ar
     6     3     4   ar
     7     4     5   ar
     8     5     6   ar
     9     6     7   ar
    10     7     8   ar
    11     8     9   ar
    12     9    10    1
    13    10    11   ar
    14    11    12   ar
    15    12    13   ar
    16    13    20    1
    17    20    21    1
    18    21    22    1
    19    13    14   ar
    20    14    15   ar
    21    15    16   ar
    22    16    17   ar
    23    17    18   ar
    24    18    19   ar
    25    25    26    1
    26    26    27   ar
    27    26    28   ar
    28     9     1   ar
    29    19    10   ar
    30     8     3   ar
    31    22    20    1
    32    19    14   ar
@<TRIPOS>MOLECULE
*****
 28 32 0 0 0
SMALL
GASTEIGER

@<TRIPOS>ATOM
      1 C           4.4759    3.2022   18.4853 C.ar    1  UNL1        0.1755
      2 N           3.8758    4.5680   18.3285 N.ar    1  UNL1       -0.2192
      3 C           2.3854    4.4139   18.2569 C.ar    1  UNL1        0.1186
      4 C           1.2791    5.4152   18.1038 C.ar    1  UNL1        0.1194
      5 N          -0.1482    4.9555   18.0632 N.ar    1  UNL1       -0.2406
      6 C          -0.4691    3.4946   18.1759 C.ar    1  UNL1        0.1005
      7 C           0.6373    2.4933   18.3290 C.ar    1  UNL1        0.0398
      8 C           2.0645    2.9530   18.3696 C.ar    1  UNL1        0.0865
      9 N           3.3565    2.2041   18.5107 N.ar    1  UNL1       -0.2853
     10 C           3.5033    0.7180   18.6524 C.ar    1  UNL1        0.0658
     11 C           3.6795   -0.1378   17.4332 C.ar    1  UNL1        0.0173
     12 C           3.8263   -1.6239   17.5749 C.ar    1  UNL1       -0.0028
     13 C           3.7969   -2.2541   18.9357 C.ar    1  UNL1       -0.0224
     14 C           3.6207   -1.3982   20.1550 C.ar    1  UNL1       -0.0026
     15 C           3.5913   -2.0284   21.5158 C.ar    1  UNL1       -0.0003
     16 C           3.4152   -1.1726   22.7350 C.ar    1  UNL1       -0.0000
     17 C           3.2684    0.3135   22.5933 C.ar    1  UNL1        0.0000
     18 C           3.2977    0.9437   21.2325 C.ar    1  UNL1        0.0014
     19 C           3.4739    0.0878   20.0133 C.ar    1  UNL1        0.0159
     20 C           3.9437   -3.7401   19.0773 C.3     1  UNL1        0.0224
     21 C           4.7188   -4.9990   18.8234 C.3     1  UNL1        0.0047
     22 C           3.4229   -5.0552   19.5767 C.3     1  UNL1        0.0047
     23 S           5.9387    2.8896   18.5972 S.3     1  UNL1       -0.0722
     24 C           6.7005    2.0189   16.2709 C.3     1  UNL1        0.0181
     25 C           6.5422    1.8105   17.7478 C.3     1  UNL1        0.0910
     26 C           6.9874    0.5229   18.3756 C.2     1  UNL1        0.0605
     27 O           7.3006   -0.6633   17.5126 O.co2   1  UNL1       -0.5483
     28 O           7.1192    0.4216   19.8664 O.co2   1  UNL1       -0.5483
@<TRIPOS>UNITY_ATOM_ATTR
27 1
charge -1
@<TRIPOS>BOND
     1    24    25    1
     2    25    23    1
     3    23     1    1
     4     1     2   ar
     5     2     3   ar
     6     3     4   ar
     7     4     5   ar
     8     5     6   ar
     9     6     7   ar
    10     7     8   ar
    11     8     9   ar
    12     9    10    1
    13    10    11   ar
    14    11    12   ar
    15    12    13   ar
    16    13    20    1
    17    20    21    1
    18    21    22    1
    19    13    14   ar
    20    14    15   ar
    21    15    16   ar
    22    16    17   ar
    23    17    18   ar
    24    18    19   ar
    25    25    26    1
    26    26    27   ar
    27    26    28   ar
    28     9     1   ar
    29    19    10   ar
    30     8     3   ar
    31    22    20    1
    32    19    14   ar
@<TRIPOS>MOLECULE
*****
 28 32 0 0 0
SMALL
GASTEIGER

@<TRIPOS>ATOM
      1 C           4.1241   -1.5196   18.7858 C.ar    1  UNL1        0.1755
      2 N           5.0412   -1.4403   17.6015 N.ar    1  UNL1       -0.2192
      3 C           5.4149   -0.0016   17.4000 C.ar    1  UNL1        0.1186
      4 C           6.2913    0.6756   16.3885 C.ar    1  UNL1        0.1194
      5 N           6.4815    2.1627   16.4368 N.ar    1  UNL1       -0.2406
      6 C           5.7954    2.9725   17.4967 C.ar    1  UNL1        0.1005
      7 C           4.9190    2.2953   18.5082 C.ar    1  UNL1        0.0398
      8 C           4.7287    0.8082   18.4599 C.ar    1  UNL1        0.0865
      9 N           3.9310   -0.1299   19.3164 N.ar    1  UNL1       -0.2853
     10 C           3.0881    0.2542   20.4962 C.ar    1  UNL1        0.0658
     11 C           1.6279    0.5437   20.3124 C.ar    1  UNL1        0.0173
     12 C           0.7850    0.9278   21.4922 C.ar    1  UNL1       -0.0028
     13 C           1.4024    1.0224   22.8560 C.ar    1  UNL1       -0.0224
     14 C           2.8627    0.7330   23.0399 C.ar    1  UNL1       -0.0026
     15 C           3.4801    0.8276   24.4036 C.ar    1  UNL1       -0.0003
     16 C           4.9404    0.5381   24.5875 C.ar    1  UNL1       -0.0000
     17 C           5.7832    0.1540   23.4077 C.ar    1  UNL1        0.0000
     18 C           5.1658    0.0594   22.0439 C.ar    1  UNL1        0.0014
     19 C           3.7056    0.3489   21.8600 C.ar    1  UNL1        0.0159
     20 C           0.5596    1.4065   24.0358 C.3     1  UNL1        0.0224
     21 C          -0.3183    2.4006   24.7365 C.3     1  UNL1        0.0047
     22 C          -0.0224    1.0777   25.3786 C.3     1  UNL1        0.0047
     23 S           3.5083   -2.7691   19.3420 S.3     1  UNL1       -0.0722
     24 C           4.5811   -5.0841   18.8520 C.3     1  UNL1        0.0181
     25 C           4.3827   -3.9117   19.7663 C.3     1  UNL1        0.0910
     26 C           5.0587   -3.8817   21.1051 C.2     1  UNL1        0.0605
     27 O           6.4741   -4.3592   21.2414 O.co2   1  UNL1       -0.5483
     28 O           4.3192   -3.3744   22.3074 O.co2   1  UNL1       -0.5483
@<TRIPOS>UNITY_ATOM_ATTR
27 1
charge -1
@<TRIPOS>BOND
     1    24    25    1
     2    25    23    1
     3    23     1    1
     4     1     2   ar
     5     2     3   ar
     6     3     4   ar
     7     4     5   ar
     8     5     6   ar
     9     6     7   ar
    10     7     8   ar
    11     8     9   ar
    12     9    10    1
    13    10    11   ar
    14    11    12   ar
    15    12    13   ar
    16    13    20    1
    17    20    21    1
    18    21    22    1
    19    13    14   ar
    20    14    15   ar
    21    15    16   ar
    22    16    17   ar
    23    17    18   ar
    24    18    19   ar
    25    25    26    1
    26    26    27   ar
    27    26    28   ar
    28     9     1   ar
    29    19    10   ar
    30     8     3   ar
    31    22    20    1
    32    19    14   ar
