@<TRIPOS>MOLECULE
*****
 26 28 0 0 0
SMALL
GASTEIGER

@<TRIPOS>ATOM
      1 C          -3.1719  -19.3992   20.4352 C.2     1  UNL1        0.0919
      2 C          -3.7121  -20.6276   19.7650 C.2     1  UNL1        0.0183
      3 C          -5.1220  -21.0668   20.0280 C.2     1  UNL1        0.0511
      4 C          -5.9918  -20.2776   20.9611 C.2     1  UNL1        0.2322
      5 N          -7.4104  -20.4650   21.4107 N.2     1  UNL1       -0.0308
      6 C          -7.7470  -19.3523   22.3588 C.2     1  UNL1        0.3753
      7 N          -6.5364  -18.4773   22.4951 N.2     1  UNL1       -0.0347
      8 C          -5.4515  -19.0492   21.6312 C.2     1  UNL1        0.2191
      9 C          -4.0416  -18.6100   21.3683 C.3     1  UNL1        0.1226
     10 C          -9.0633  -19.1503   23.0493 C.ar    1  UNL1        0.0914
     11 C          -9.4491  -20.0308   24.2008 C.ar    1  UNL1        0.0079
     12 C         -10.7652  -19.8288   24.8914 C.ar    1  UNL1        0.0034
     13 C         -11.6956  -18.7462   24.4304 C.ar    1  UNL1        0.0372
     14 C         -11.3098  -17.8657   23.2789 C.ar    1  UNL1        0.1471
     15 C          -9.9936  -18.0678   22.5884 C.ar    1  UNL1        0.0449
     16 O         -12.2403  -16.7832   22.8180 O.3     1  UNL1       -0.4045
     17 C         -12.3381  -16.4493   21.3590 C.3     1  UNL1        0.5753
     18 F         -12.4360  -16.1154   19.8999 F       1  UNL1       -0.1328
     19 F         -13.3398  -17.5505   21.1742 F       1  UNL1       -0.1328
     20 F         -11.3365  -15.3481   21.5438 F       1  UNL1       -0.1328
     21 S          -1.7619  -18.9600   20.1723 S.O2    1  UNL1        0.0054
     22 O          -2.1260  -18.6412   18.7524 O.2     1  UNL1       -0.1689
     23 O          -1.3979  -19.2787   21.5921 O.2     1  UNL1       -0.1689
     24 C          -0.3520  -18.5208   19.9093 C.3     1  UNL1        0.1556
     25 C          -0.8941  -16.1645   20.8602 C.3     1  UNL1        0.0019
     26 C           0.0496  -17.0977   20.1612 C.3     1  UNL1        0.0257
@<TRIPOS>BOND
     1    25    26    1
     2    26    24    1
     3    24    21    1
     4    21    22    2
     5    21    23    2
     6    21     1    1
     7     1     2    2
     8     2     3    1
     9     3     4    2
    10     4     5    1
    11     5     6    2
    12     6    10    1
    13    10    11   ar
    14    11    12   ar
    15    12    13   ar
    16    13    14   ar
    17    14    16    1
    18    16    17    1
    19    17    18    1
    20    17    19    1
    21    17    20    1
    22    14    15   ar
    23     6     7    1
    24     7     8    2
    25     8     9    1
    26     9     1    1
    27     8     4    1
    28    15    10   ar
@<TRIPOS>MOLECULE
*****
 26 28 0 0 0
SMALL
GASTEIGER

@<TRIPOS>ATOM
      1 C         -11.4585  -18.2281   22.1669 C.2     1  UNL1        0.0919
      2 C         -11.6631  -18.5019   20.7064 C.2     1  UNL1        0.0183
      3 C         -10.4940  -18.8690   19.8412 C.2     1  UNL1        0.0511
      4 C          -9.1204  -18.9622   20.4366 C.2     1  UNL1        0.2322
      5 N          -7.7874  -19.2996   19.8371 N.2     1  UNL1       -0.0308
      6 C          -6.7590  -19.2343   20.9272 C.2     1  UNL1        0.3753
      7 N          -7.4564  -18.8565   22.2003 N.2     1  UNL1       -0.0347
      8 C          -8.9158  -18.6884   21.8971 C.2     1  UNL1        0.2191
      9 C         -10.0849  -18.3213   22.7622 C.3     1  UNL1        0.1226
     10 C          -5.2909  -19.5000   20.7714 C.ar    1  UNL1        0.0914
     11 C          -4.8228  -20.6687   19.9560 C.ar    1  UNL1        0.0079
     12 C          -3.3548  -20.9345   19.8001 C.ar    1  UNL1        0.0034
     13 C          -2.3550  -20.0316   20.4597 C.ar    1  UNL1        0.0372
     14 C          -2.8232  -18.8629   21.2751 C.ar    1  UNL1        0.1471
     15 C          -4.2911  -18.5971   21.4309 C.ar    1  UNL1        0.0449
     16 O          -1.8233  -17.9600   21.9347 O.3     1  UNL1       -0.4045
     17 C          -1.1312  -16.8962   21.1351 C.3     1  UNL1        0.5753
     18 F          -0.4391  -15.8325   20.3354 F       1  UNL1       -0.1328
     19 F          -0.1879  -17.9242   20.5841 F       1  UNL1       -0.1328
     20 F          -2.0745  -15.8683   21.6860 F       1  UNL1       -0.1328
     21 S         -12.6276  -17.8610   23.0321 S.O2    1  UNL1        0.0054
     22 O         -11.8280  -18.1980   24.2556 O.2     1  UNL1       -0.1689
     23 O         -13.4272  -17.5240   21.8086 O.2     1  UNL1       -0.1689
     24 C         -13.7967  -17.4939   23.8973 C.3     1  UNL1        0.1556
     25 C         -14.5526  -18.4662   26.1849 C.3     1  UNL1        0.0019
     26 C         -14.5062  -18.5528   24.6881 C.3     1  UNL1        0.0257
@<TRIPOS>BOND
     1    25    26    1
     2    26    24    1
     3    24    21    1
     4    21    22    2
     5    21    23    2
     6    21     1    1
     7     1     2    2
     8     2     3    1
     9     3     4    2
    10     4     5    1
    11     5     6    2
    12     6    10    1
    13    10    11   ar
    14    11    12   ar
    15    12    13   ar
    16    13    14   ar
    17    14    16    1
    18    16    17    1
    19    17    18    1
    20    17    19    1
    21    17    20    1
    22    14    15   ar
    23     6     7    1
    24     7     8    2
    25     8     9    1
    26     9     1    1
    27     8     4    1
    28    15    10   ar
@<TRIPOS>MOLECULE
*****
 26 28 0 0 0
SMALL
GASTEIGER

@<TRIPOS>ATOM
      1 C         -10.9954  -18.5472   21.7967 C.2     1  UNL1        0.0919
      2 C         -11.0330  -19.2436   20.4688 C.2     1  UNL1        0.0183
      3 C          -9.7531  -19.6068   19.7759 C.2     1  UNL1        0.0511
      4 C          -8.4357  -19.2734   20.4109 C.2     1  UNL1        0.2322
      5 N          -7.0212  -19.5050   19.9687 N.2     1  UNL1       -0.0308
      6 C          -6.1094  -18.9516   21.0234 C.2     1  UNL1        0.3753
      7 N          -6.9603  -18.3781   22.1174 N.2     1  UNL1       -0.0347
      8 C          -8.3981  -18.5770   21.7388 C.2     1  UNL1        0.2191
      9 C          -9.6780  -18.2138   22.4317 C.3     1  UNL1        0.1226
     10 C          -4.6098  -18.9689   20.9900 C.ar    1  UNL1        0.0914
     11 C          -3.8346  -19.2367   22.2459 C.ar    1  UNL1        0.0079
     12 C          -2.3351  -19.2539   22.2125 C.ar    1  UNL1        0.0034
     13 C          -1.6108  -19.0033   20.9231 C.ar    1  UNL1        0.0372
     14 C          -2.3860  -18.7355   19.6672 C.ar    1  UNL1        0.1471
     15 C          -3.8855  -18.7182   19.7006 C.ar    1  UNL1        0.0449
     16 O          -1.6616  -18.4849   18.3778 O.3     1  UNL1       -0.4045
     17 C          -2.1094  -17.3791   17.4685 C.3     1  UNL1        0.5753
     18 F          -2.5573  -16.2734   16.5593 F       1  UNL1       -0.1328
     19 F          -2.8958  -16.7731   18.5930 F       1  UNL1       -0.1328
     20 F          -1.3230  -17.9852   16.3442 F       1  UNL1       -0.1328
     21 S         -12.2752  -18.1840   22.4897 S.O2    1  UNL1        0.0054
     22 O         -11.7217  -18.7026   23.7838 O.2     1  UNL1       -0.1689
     23 O         -12.8287  -17.6654   21.1956 O.2     1  UNL1       -0.1689
     24 C         -13.5550  -17.8209   23.1826 C.3     1  UNL1        0.1556
     25 C         -15.1505  -18.6111   25.0747 C.3     1  UNL1        0.0019
     26 C         -13.7771  -18.2276   24.6092 C.3     1  UNL1        0.0257
@<TRIPOS>BOND
     1    25    26    1
     2    26    24    1
     3    24    21    1
     4    21    22    2
     5    21    23    2
     6    21     1    1
     7     1     2    2
     8     2     3    1
     9     3     4    2
    10     4     5    1
    11     5     6    2
    12     6    10    1
    13    10    11   ar
    14    11    12   ar
    15    12    13   ar
    16    13    14   ar
    17    14    16    1
    18    16    17    1
    19    17    18    1
    20    17    19    1
    21    17    20    1
    22    14    15   ar
    23     6     7    1
    24     7     8    2
    25     8     9    1
    26     9     1    1
    27     8     4    1
    28    15    10   ar
@<TRIPOS>MOLECULE
*****
 26 28 0 0 0
SMALL
GASTEIGER

@<TRIPOS>ATOM
      1 C          -4.1877  -19.5651   20.5931 C.2     1  UNL1        0.0919
      2 C          -4.8726  -20.8164   20.1291 C.2     1  UNL1        0.0183
      3 C          -6.3669  -20.9247   20.2024 C.2     1  UNL1        0.0511
      4 C          -7.1763  -19.7818   20.7397 C.2     1  UNL1        0.2322
      5 N          -8.6528  -19.6004   20.9315 N.2     1  UNL1       -0.0308
      6 C          -8.8805  -18.2370   21.5141 C.2     1  UNL1        0.3753
      7 N          -7.5447  -17.5758   21.6823 N.2     1  UNL1       -0.0347
      8 C          -6.4914  -18.5306   21.2036 C.2     1  UNL1        0.2191
      9 C          -4.9971  -18.4223   21.1303 C.3     1  UNL1        0.1226
     10 C         -10.2106  -17.6397   21.8666 C.ar    1  UNL1        0.0914
     11 C         -10.4833  -16.1932   21.5780 C.ar    1  UNL1        0.0079
     12 C         -11.8133  -15.5959   21.9304 C.ar    1  UNL1        0.0034
     13 C         -12.8706  -16.4451   22.5715 C.ar    1  UNL1        0.0372
     14 C         -12.5979  -17.8916   22.8601 C.ar    1  UNL1        0.1471
     15 C         -11.2679  -18.4889   22.5077 C.ar    1  UNL1        0.0449
     16 O         -13.6552  -18.7408   23.5012 O.3     1  UNL1       -0.4045
     17 C         -14.0053  -18.5391   24.9457 C.3     1  UNL1        0.5753
     18 F         -14.3554  -18.3375   26.3903 F       1  UNL1       -0.1328
     19 F         -15.4635  -18.5520   24.5941 F       1  UNL1       -0.1328
     20 F         -12.5472  -18.5262   25.2973 F       1  UNL1       -0.1328
     21 S          -2.6934  -19.4568   20.5198 S.O2    1  UNL1        0.0054
     22 O          -2.8002  -18.9308   19.1191 O.2     1  UNL1       -0.1689
     23 O          -2.5866  -19.9828   21.9205 O.2     1  UNL1       -0.1689
     24 C          -1.1991  -19.3484   20.4465 C.3     1  UNL1        0.1556
     25 C          -0.4144  -16.8779   20.2712 C.3     1  UNL1        0.0019
     26 C          -0.5652  -18.2395   19.6602 C.3     1  UNL1        0.0257
@<TRIPOS>BOND
     1    25    26    1
     2    26    24    1
     3    24    21    1
     4    21    22    2
     5    21    23    2
     6    21     1    1
     7     1     2    2
     8     2     3    1
     9     3     4    2
    10     4     5    1
    11     5     6    2
    12     6    10    1
    13    10    11   ar
    14    11    12   ar
    15    12    13   ar
    16    13    14   ar
    17    14    16    1
    18    16    17    1
    19    17    18    1
    20    17    19    1
    21    17    20    1
    22    14    15   ar
    23     6     7    1
    24     7     8    2
    25     8     9    1
    26     9     1    1
    27     8     4    1
    28    15    10   ar
@<TRIPOS>MOLECULE
*****
 26 28 0 0 0
SMALL
GASTEIGER

@<TRIPOS>ATOM
      1 C         -10.9991  -17.5444   23.3596 C.2     1  UNL1        0.0919
      2 C         -10.2674  -16.3409   23.8754 C.2     1  UNL1        0.0183
      3 C          -8.7888  -16.2122   23.6586 C.2     1  UNL1        0.0511
      4 C          -8.0418  -17.2870   22.9261 C.2     1  UNL1        0.2322
      5 N          -6.5936  -17.4347   22.5643 N.2     1  UNL1       -0.0308
      6 C          -6.4302  -18.7295   21.8248 C.2     1  UNL1        0.3753
      7 N          -7.7774  -19.3821   21.7296 N.2     1  UNL1       -0.0347
      8 C          -8.7734  -18.4906   22.4103 C.2     1  UNL1        0.2191
      9 C         -10.2521  -18.6193   22.6270 C.3     1  UNL1        0.1226
     10 C          -5.1452  -19.2758   21.2767 C.ar    1  UNL1        0.0914
     11 C          -5.1669  -20.4497   20.3432 C.ar    1  UNL1        0.0079
     12 C          -3.8820  -20.9960   19.7951 C.ar    1  UNL1        0.0034
     13 C          -2.5753  -20.3684   20.1806 C.ar    1  UNL1        0.0372
     14 C          -2.5535  -19.1945   21.1141 C.ar    1  UNL1        0.1471
     15 C          -3.8385  -18.6482   21.6622 C.ar    1  UNL1        0.0449
     16 O          -1.2468  -18.5669   21.4996 O.3     1  UNL1       -0.4045
     17 C          -0.6688  -17.4640   20.6632 C.3     1  UNL1        0.5753
     18 F          -0.0909  -16.3611   19.8269 F       1  UNL1       -0.1328
     19 F          -1.4520  -16.4561   21.4512 F       1  UNL1       -0.1328
     20 F           0.1143  -18.4718   19.8753 F       1  UNL1       -0.1328
     21 S         -12.4778  -17.6731   23.5763 S.O2    1  UNL1        0.0054
     22 O         -12.7017  -16.4106   22.7979 O.2     1  UNL1       -0.1689
     23 O         -12.2538  -18.9356   24.3547 O.2     1  UNL1       -0.1689
     24 C         -13.9564  -17.8018   23.7930 C.3     1  UNL1        0.1556
     25 C         -14.5454  -18.2875   26.2764 C.3     1  UNL1        0.0019
     26 C         -14.4820  -18.7325   24.8453 C.3     1  UNL1        0.0257
@<TRIPOS>BOND
     1    25    26    1
     2    26    24    1
     3    24    21    1
     4    21    22    2
     5    21    23    2
     6    21     1    1
     7     1     2    2
     8     2     3    1
     9     3     4    2
    10     4     5    1
    11     5     6    2
    12     6    10    1
    13    10    11   ar
    14    11    12   ar
    15    12    13   ar
    16    13    14   ar
    17    14    16    1
    18    16    17    1
    19    17    18    1
    20    17    19    1
    21    17    20    1
    22    14    15   ar
    23     6     7    1
    24     7     8    2
    25     8     9    1
    26     9     1    1
    27     8     4    1
    28    15    10   ar
@<TRIPOS>MOLECULE
*****
 26 28 0 0 0
SMALL
GASTEIGER

@<TRIPOS>ATOM
      1 C           7.4447   -5.9305   27.5298 C.2     1  UNL1        0.0919
      2 C           7.9205   -7.2041   26.8962 C.2     1  UNL1        0.0183
      3 C           8.1129   -7.2763   25.4103 C.2     1  UNL1        0.0511
      4 C           7.8295   -6.0749   24.5581 C.2     1  UNL1        0.2322
      5 N           7.9265   -5.8484   23.0785 N.2     1  UNL1       -0.0308
      6 C           7.5107   -4.4348   22.7976 C.2     1  UNL1        0.3753
      7 N           7.1566   -3.7877   24.1037 N.2     1  UNL1       -0.0347
      8 C           7.3536   -4.8014   25.1917 C.2     1  UNL1        0.2191
      9 C           7.1612   -4.7291   26.6776 C.3     1  UNL1        0.1226
     10 C           7.4581   -3.7829   21.4477 C.ar    1  UNL1        0.0914
     11 C           8.7134   -3.2501   20.8228 C.ar    1  UNL1        0.0079
     12 C           8.6609   -2.5982   19.4729 C.ar    1  UNL1        0.0034
     13 C           7.3531   -2.4791   18.7480 C.ar    1  UNL1        0.0372
     14 C           6.0979   -3.0119   19.3729 C.ar    1  UNL1        0.1471
     15 C           6.1504   -3.6638   20.7227 C.ar    1  UNL1        0.0449
     16 O           4.7901   -2.8927   18.6478 O.3     1  UNL1       -0.4045
     17 C           3.7020   -3.8953   18.8941 C.3     1  UNL1        0.5753
     18 F           2.6138   -4.8978   19.1405 F       1  UNL1       -0.1328
     19 F           2.8773   -2.8357   19.5631 F       1  UNL1       -0.1328
     20 F           4.5266   -4.9547   18.2252 F       1  UNL1       -0.1328
     21 S           7.2523   -5.8583   29.0157 S.O2    1  UNL1        0.0054
     22 O           8.3411   -6.8723   29.2059 O.2     1  UNL1       -0.1689
     23 O           6.1634   -4.8443   28.8254 O.2     1  UNL1       -0.1689
     24 C           7.0599   -5.7861   30.5015 C.3     1  UNL1        0.1556
     25 C           6.6846   -3.7883   32.1195 C.3     1  UNL1        0.0019
     26 C           7.6021   -4.6191   31.2722 C.3     1  UNL1        0.0257
@<TRIPOS>BOND
     1    25    26    1
     2    26    24    1
     3    24    21    1
     4    21    22    2
     5    21    23    2
     6    21     1    1
     7     1     2    2
     8     2     3    1
     9     3     4    2
    10     4     5    1
    11     5     6    2
    12     6    10    1
    13    10    11   ar
    14    11    12   ar
    15    12    13   ar
    16    13    14   ar
    17    14    16    1
    18    16    17    1
    19    17    18    1
    20    17    19    1
    21    17    20    1
    22    14    15   ar
    23     6     7    1
    24     7     8    2
    25     8     9    1
    26     9     1    1
    27     8     4    1
    28    15    10   ar
@<TRIPOS>MOLECULE
*****
 26 28 0 0 0
SMALL
GASTEIGER

@<TRIPOS>ATOM
      1 C           0.3563    1.7107   25.5974 C.2     1  UNL1        0.0919
      2 C          -0.5684    2.5192   24.7365 C.2     1  UNL1        0.0183
      3 C          -0.4448    2.4614   23.2428 C.2     1  UNL1        0.0511
      4 C           0.6034    1.5951   22.6099 C.2     1  UNL1        0.2322
      5 N           0.9612    1.3375   21.1761 N.2     1  UNL1       -0.0308
      6 C           2.1070    0.3698   21.1509 C.2     1  UNL1        0.3753
      7 N           2.4574    0.0293   22.5691 N.2     1  UNL1       -0.0347
      8 C           1.5281    0.7866   23.4708 C.2     1  UNL1        0.2191
      9 C           1.4045    0.8444   24.9646 C.3     1  UNL1        0.1226
     10 C           2.7836   -0.1638   19.9231 C.ar    1  UNL1        0.0914
     11 C           2.9761    0.7221   18.7280 C.ar    1  UNL1        0.0079
     12 C           3.6526    0.1886   17.5001 C.ar    1  UNL1        0.0034
     13 C           4.1367   -1.2307   17.4674 C.ar    1  UNL1        0.0372
     14 C           3.9443   -2.1166   18.6625 C.ar    1  UNL1        0.1471
     15 C           3.2677   -1.5831   19.8903 C.ar    1  UNL1        0.0449
     16 O           4.4284   -3.5360   18.6297 O.3     1  UNL1       -0.4045
     17 C           3.8769   -4.5391   19.5989 C.3     1  UNL1        0.5753
     18 F           3.3253   -5.5422   20.5681 F       1  UNL1       -0.1328
     19 F           2.6604   -4.7033   18.7367 F       1  UNL1       -0.1328
     20 F           5.0933   -4.3749   20.4611 F       1  UNL1       -0.1328
     21 S           0.2327    1.7685   27.0912 S.O2    1  UNL1        0.0054
     22 O           1.5135    0.9997   27.2270 O.2     1  UNL1       -0.1689
     23 O          -1.0482    2.5373   26.9555 O.2     1  UNL1       -0.1689
     24 C           0.1091    1.8263   28.5850 C.3     1  UNL1        0.1556
     25 C          -1.3909   -0.2895   28.7378 C.3     1  UNL1        0.0019
     26 C          -0.3683    0.6246   29.3451 C.3     1  UNL1        0.0257
@<TRIPOS>BOND
     1    25    26    1
     2    26    24    1
     3    24    21    1
     4    21    22    2
     5    21    23    2
     6    21     1    1
     7     1     2    2
     8     2     3    1
     9     3     4    2
    10     4     5    1
    11     5     6    2
    12     6    10    1
    13    10    11   ar
    14    11    12   ar
    15    12    13   ar
    16    13    14   ar
    17    14    16    1
    18    16    17    1
    19    17    18    1
    20    17    19    1
    21    17    20    1
    22    14    15   ar
    23     6     7    1
    24     7     8    2
    25     8     9    1
    26     9     1    1
    27     8     4    1
    28    15    10   ar
@<TRIPOS>MOLECULE
*****
 26 28 0 0 0
SMALL
GASTEIGER

@<TRIPOS>ATOM
      1 C           3.2860   -1.0030   19.8076 C.2     1  UNL1        0.0919
      2 C           2.4557   -0.1327   18.9115 C.2     1  UNL1        0.0183
      3 C           1.4568    0.8168   19.5037 C.2     1  UNL1        0.0511
      4 C           1.2881    0.8959   20.9920 C.2     1  UNL1        0.2322
      5 N           0.3905    1.7296   21.8576 N.2     1  UNL1       -0.0308
      6 C           0.6660    1.3746   23.2887 C.2     1  UNL1        0.3753
      7 N           1.7340    0.3214   23.3076 N.2     1  UNL1       -0.0347
      8 C           2.1185    0.0256   21.8882 C.2     1  UNL1        0.2191
      9 C           3.1174   -0.9238   21.2960 C.3     1  UNL1        0.1226
     10 C          -0.0081    1.9685   24.4899 C.ar    1  UNL1        0.0914
     11 C          -0.9255    3.1444   24.3302 C.ar    1  UNL1        0.0079
     12 C          -1.5996    3.7383   25.5314 C.ar    1  UNL1        0.0034
     13 C          -1.3562    3.1562   26.8923 C.ar    1  UNL1        0.0372
     14 C          -0.4388    1.9803   27.0520 C.ar    1  UNL1        0.1471
     15 C           0.2353    1.3864   25.8508 C.ar    1  UNL1        0.0449
     16 O          -0.1954    1.3983   28.4129 O.3     1  UNL1       -0.4045
     17 C          -0.7609    0.0546   28.7660 C.3     1  UNL1        0.5753
     18 F          -1.3263   -1.2891   29.1191 F       1  UNL1       -0.1328
     19 F          -2.1397    0.6443   28.8019 F       1  UNL1       -0.1328
     20 F           0.6179   -0.5350   28.7301 F       1  UNL1       -0.1328
     21 S           4.2849   -1.9524   19.2154 S.O2    1  UNL1        0.0054
     22 O           3.7390   -1.6729   17.8465 O.2     1  UNL1       -0.1689
     23 O           4.8308   -2.2320   20.5843 O.2     1  UNL1       -0.1689
     24 C           5.2838   -2.9019   18.6232 C.3     1  UNL1        0.1556
     25 C           3.6909   -4.8925   19.1231 C.3     1  UNL1        0.0019
     26 C           5.0023   -4.3751   18.6106 C.3     1  UNL1        0.0257
@<TRIPOS>BOND
     1    25    26    1
     2    26    24    1
     3    24    21    1
     4    21    22    2
     5    21    23    2
     6    21     1    1
     7     1     2    2
     8     2     3    1
     9     3     4    2
    10     4     5    1
    11     5     6    2
    12     6    10    1
    13    10    11   ar
    14    11    12   ar
    15    12    13   ar
    16    13    14   ar
    17    14    16    1
    18    16    17    1
    19    17    18    1
    20    17    19    1
    21    17    20    1
    22    14    15   ar
    23     6     7    1
    24     7     8    2
    25     8     9    1
    26     9     1    1
    27     8     4    1
    28    15    10   ar
@<TRIPOS>MOLECULE
*****
 26 28 0 0 0
SMALL
GASTEIGER

@<TRIPOS>ATOM
      1 C           3.3449   -0.8458   19.3279 C.2     1  UNL1        0.0919
      2 C           3.6015    0.2238   18.3082 C.2     1  UNL1        0.0183
      3 C           2.7020    1.4220   18.2354 C.2     1  UNL1        0.0511
      4 C           1.5460    1.5506   19.1825 C.2     1  UNL1        0.2322
      5 N           0.4966    2.6096   19.3474 N.2     1  UNL1       -0.0308
      6 C          -0.4086    2.1945   20.4692 C.2     1  UNL1        0.3753
      7 N           0.0814    0.8789   20.9975 N.2     1  UNL1       -0.0347
      8 C           1.2894    0.4810   20.2022 C.2     1  UNL1        0.2191
      9 C           2.1889   -0.7172   20.2750 C.3     1  UNL1        0.1226
     10 C          -1.5954    2.9605   20.9740 C.ar    1  UNL1        0.0914
     11 C          -1.7121    3.2866   22.4335 C.ar    1  UNL1        0.0079
     12 C          -2.8988    4.0526   22.9383 C.ar    1  UNL1        0.0034
     13 C          -3.9688    4.4925   21.9836 C.ar    1  UNL1        0.0372
     14 C          -3.8522    4.1665   20.5242 C.ar    1  UNL1        0.1471
     15 C          -2.6654    3.4005   20.0194 C.ar    1  UNL1        0.0449
     16 O          -4.9223    4.6065   19.5695 O.3     1  UNL1       -0.4045
     17 C          -5.9484    3.6238   19.0884 C.3     1  UNL1        0.5753
     18 F          -6.9745    2.6412   18.6072 F       1  UNL1       -0.1328
     19 F          -5.0851    3.3021   17.9045 F       1  UNL1       -0.1328
     20 F          -6.8115    3.9455   20.2721 F       1  UNL1       -0.1328
     21 S           4.2444   -2.0440   19.4007 S.O2    1  UNL1        0.0054
     22 O           4.3923   -2.0235   17.9081 O.2     1  UNL1       -0.1689
     23 O           4.0965   -2.0644   20.8932 O.2     1  UNL1       -0.1689
     24 C           5.1439   -3.2422   19.4734 C.3     1  UNL1        0.1556
     25 C           3.3335   -5.1032   19.3778 C.3     1  UNL1        0.0019
     26 C           4.6700   -4.5682   18.9566 C.3     1  UNL1        0.0257
@<TRIPOS>BOND
     1    25    26    1
     2    26    24    1
     3    24    21    1
     4    21    22    2
     5    21    23    2
     6    21     1    1
     7     1     2    2
     8     2     3    1
     9     3     4    2
    10     4     5    1
    11     5     6    2
    12     6    10    1
    13    10    11   ar
    14    11    12   ar
    15    12    13   ar
    16    13    14   ar
    17    14    16    1
    18    16    17    1
    19    17    18    1
    20    17    19    1
    21    17    20    1
    22    14    15   ar
    23     6     7    1
    24     7     8    2
    25     8     9    1
    26     9     1    1
    27     8     4    1
    28    15    10   ar
