@<TRIPOS>MOLECULE
*****
 31 34 0 0 0
SMALL
GASTEIGER

@<TRIPOS>ATOM
      1 C         -10.3041  -19.0982   20.9100 C.ar    1  UNL1       -0.0110
      2 C          -9.3368  -19.3194   22.0348 C.ar    1  UNL1       -0.0033
      3 C          -7.8970  -19.6175   21.7380 C.ar    1  UNL1        0.0042
      4 C          -7.4246  -19.6945   20.3165 C.ar    1  UNL1        0.0533
      5 C          -8.3919  -19.4733   19.1916 C.ar    1  UNL1        0.0042
      6 C          -9.8317  -19.1751   19.4884 C.ar    1  UNL1       -0.0033
      7 C          -5.9847  -19.9927   20.0197 C.2     1  UNL1        0.2461
      8 O          -5.4872  -21.4071   20.0638 O.2     1  UNL1       -0.2701
      9 N          -5.0425  -18.8765   19.6789 N.am    1  UNL1       -0.2969
     10 H          -5.3690  -17.9482   19.6500 H       1  UNL1        0.1501
     11 C          -3.6027  -19.1748   19.3822 C.3     1  UNL1        0.1166
     12 C          -2.5289  -18.2472   19.8689 C.ar    1  UNL1       -0.0026
     13 C          -2.8121  -17.2969   20.9943 C.ar    1  UNL1       -0.0026
     14 C          -1.7384  -16.3694   21.4810 C.ar    1  UNL1       -0.0003
     15 C          -0.3814  -16.3923   20.8421 C.ar    1  UNL1       -0.0000
     16 C          -0.0981  -17.3426   19.7167 C.ar    1  UNL1       -0.0003
     17 C          -1.1719  -18.2701   19.2300 C.ar    1  UNL1       -0.0026
     18 C         -11.7440  -18.8000   21.2067 C.3     1  UNL1        0.0884
     19 S         -12.1024  -17.8869   22.3415 S.3     1  UNL1       -0.1088
     20 N          -6.5376  -14.7649   26.9143 N.pl3   1  UNL1       -0.3375
     21 C          -7.6097  -15.5688   26.2402 C.ar    1  UNL1        0.1567
     22 N          -8.1935  -16.8562   26.7419 N.ar    1  UNL1       -0.2245
     23 C          -9.2309  -17.3094   25.7578 C.ar    1  UNL1        0.0893
     24 C         -10.1307  -18.5092   25.7290 C.ar    1  UNL1        0.0202
     25 C         -11.0878  -18.7017   24.5903 C.ar    1  UNL1        0.0077
     26 C         -11.1452  -17.6944   23.4803 C.ar    1  UNL1        0.0261
     27 C         -10.2454  -16.4946   23.5091 C.ar    1  UNL1        0.0142
     28 C          -9.2883  -16.3021   24.6478 C.ar    1  UNL1        0.0502
     29 S          -8.2863  -15.2263   24.9460 S.2     1  UNL1       -0.0520
     30 H          -6.1532  -15.0737   27.7664 H       1  UNL1        0.1442
     31 H          -6.2184  -13.9286   26.5046 H       1  UNL1        0.1442
@<TRIPOS>BOND
     1    20    21    1
     2    21    22   ar
     3    22    23   ar
     4    23    24   ar
     5    24    25   ar
     6    25    26   ar
     7    26    19    1
     8    19    18    1
     9    18     1    1
    10     1     2   ar
    11     2     3   ar
    12     3     4   ar
    13     4     7    1
    14     7     8    2
    15     7     9   am
    16     9    11    1
    17    11    12    1
    18    12    13   ar
    19    13    14   ar
    20    14    15   ar
    21    15    16   ar
    22    16    17   ar
    23     4     5   ar
    24     5     6   ar
    25    26    27   ar
    26    27    28   ar
    27    28    29   ar
    28    29    21   ar
    29    28    23   ar
    30     6     1   ar
    31    17    12   ar
    32    20    30    1
    33    20    31    1
    34     9    10    1
@<TRIPOS>MOLECULE
*****
 31 34 0 0 0
SMALL
GASTEIGER

@<TRIPOS>ATOM
      1 C           7.8578   -5.4481   24.9416 C.ar    1  UNL1       -0.0110
      2 C           6.9864   -5.5615   26.1572 C.ar    1  UNL1       -0.0033
      3 C           6.9529   -6.8410   26.9393 C.ar    1  UNL1        0.0042
      4 C           7.7908   -8.0071   26.5057 C.ar    1  UNL1        0.0533
      5 C           8.6621   -7.8938   25.2901 C.ar    1  UNL1        0.0042
      6 C           8.6956   -6.6143   24.5080 C.ar    1  UNL1       -0.0033
      7 C           7.7572   -9.2867   27.2878 C.2     1  UNL1        0.2461
      8 O           8.9909   -9.7674   27.9928 O.2     1  UNL1       -0.2701
      9 N           6.4900  -10.0856   27.3650 N.am    1  UNL1       -0.2969
     10 H           5.6803   -9.7701   26.9023 H       1  UNL1        0.1501
     11 C           6.4565  -11.3651   28.1471 C.3     1  UNL1        0.1166
     12 C           5.2161  -12.2085   28.1526 C.ar    1  UNL1       -0.0026
     13 C           4.9849  -13.2095   27.0596 C.ar    1  UNL1       -0.0026
     14 C           3.7446  -14.0529   27.0651 C.ar    1  UNL1       -0.0003
     15 C           2.7353  -13.8954   28.1636 C.ar    1  UNL1       -0.0000
     16 C           2.9664  -12.8944   29.2565 C.ar    1  UNL1       -0.0003
     17 C           4.2069  -12.0509   29.2510 C.ar    1  UNL1       -0.0026
     18 C           7.8913   -4.1685   24.1595 C.3     1  UNL1        0.0884
     19 S           7.9249   -4.2065   22.6604 S.3     1  UNL1       -0.1088
     20 N           3.7470   -1.2257   16.7204 N.pl3   1  UNL1       -0.3375
     21 C           4.2972   -1.7803   18.0009 C.ar    1  UNL1        0.1567
     22 N           3.5275   -1.9997   19.2695 N.ar    1  UNL1       -0.2245
     23 C           4.4684   -2.5679   20.2902 C.ar    1  UNL1        0.0893
     24 C           4.2693   -2.9823   21.7180 C.ar    1  UNL1        0.0202
     25 C           5.4214   -3.5285   22.5080 C.ar    1  UNL1        0.0077
     26 C           6.7727   -3.6603   21.8703 C.ar    1  UNL1        0.0261
     27 C           6.9718   -3.2459   20.4425 C.ar    1  UNL1        0.0142
     28 C           5.8196   -2.6997   19.6525 C.ar    1  UNL1        0.0502
     29 S           5.7138   -2.2130   18.2376 S.2     1  UNL1       -0.0520
     30 H           2.7983   -0.9688   16.6627 H       1  UNL1        0.1442
     31 H           4.3345   -1.1187   15.9377 H       1  UNL1        0.1442
@<TRIPOS>BOND
     1    20    21    1
     2    21    22   ar
     3    22    23   ar
     4    23    24   ar
     5    24    25   ar
     6    25    26   ar
     7    26    19    1
     8    19    18    1
     9    18     1    1
    10     1     2   ar
    11     2     3   ar
    12     3     4   ar
    13     4     7    1
    14     7     8    2
    15     7     9   am
    16     9    11    1
    17    11    12    1
    18    12    13   ar
    19    13    14   ar
    20    14    15   ar
    21    15    16   ar
    22    16    17   ar
    23     4     5   ar
    24     5     6   ar
    25    26    27   ar
    26    27    28   ar
    27    28    29   ar
    28    29    21   ar
    29    28    23   ar
    30     6     1   ar
    31    17    12   ar
    32    20    30    1
    33    20    31    1
    34     9    10    1
@<TRIPOS>MOLECULE
*****
 31 34 0 0 0
SMALL
GASTEIGER

@<TRIPOS>ATOM
      1 C           7.8062   -4.7038   23.0340 C.ar    1  UNL1       -0.0110
      2 C           6.4507   -4.2104   23.4453 C.ar    1  UNL1       -0.0033
      3 C           5.4982   -3.6860   22.4121 C.ar    1  UNL1        0.0042
      4 C           5.9011   -3.6550   20.9675 C.ar    1  UNL1        0.0533
      5 C           7.2566   -4.1484   20.5562 C.ar    1  UNL1        0.0042
      6 C           8.2091   -4.6728   21.5895 C.ar    1  UNL1       -0.0033
      7 C           4.9485   -3.1306   19.9343 C.2     1  UNL1        0.2461
      8 O           3.9905   -4.0638   19.2550 O.2     1  UNL1       -0.2701
      9 N           4.9538   -1.6730   19.5804 N.am    1  UNL1       -0.2969
     10 H           5.5825   -1.0604   20.0262 H       1  UNL1        0.1501
     11 C           4.0012   -1.1486   18.5472 C.3     1  UNL1        0.1166
     12 C           2.7597   -0.4216   18.9719 C.ar    1  UNL1       -0.0026
     13 C           2.3334    0.8209   18.2476 C.ar    1  UNL1       -0.0026
     14 C           1.0920    1.5479   18.6723 C.ar    1  UNL1       -0.0003
     15 C           0.2769    1.0324   19.8212 C.ar    1  UNL1       -0.0000
     16 C           0.7032   -0.2100   20.5455 C.ar    1  UNL1       -0.0003
     17 C           1.9447   -0.9370   20.1208 C.ar    1  UNL1       -0.0026
     18 C           8.7588   -5.2283   24.0673 C.3     1  UNL1        0.0884
     19 S           8.4817   -6.5359   24.7479 S.3     1  UNL1       -0.1088
     20 N           6.5829   -5.3528   32.2723 N.pl3   1  UNL1       -0.3375
     21 C           7.1509   -5.7500   30.9421 C.ar    1  UNL1        0.1567
     22 N           8.3089   -6.6770   30.7190 N.ar    1  UNL1       -0.2245
     23 C           8.5342   -6.7898   29.2404 C.ar    1  UNL1        0.0893
     24 C           9.5355   -7.5624   28.4338 C.ar    1  UNL1        0.0202
     25 C           9.5180   -7.4777   26.9363 C.ar    1  UNL1        0.0077
     26 C           8.4992   -6.6205   26.2454 C.ar    1  UNL1        0.0261
     27 C           7.4980   -5.8480   27.0520 C.ar    1  UNL1        0.0142
     28 C           7.5155   -5.9326   28.5495 C.ar    1  UNL1        0.0502
     29 S           6.6605   -5.2900   29.6012 S.2     1  UNL1       -0.0520
     30 H           6.9756   -5.7097   33.1016 H       1  UNL1        0.1442
     31 H           5.8175   -4.7352   32.3162 H       1  UNL1        0.1442
@<TRIPOS>BOND
     1    20    21    1
     2    21    22   ar
     3    22    23   ar
     4    23    24   ar
     5    24    25   ar
     6    25    26   ar
     7    26    19    1
     8    19    18    1
     9    18     1    1
    10     1     2   ar
    11     2     3   ar
    12     3     4   ar
    13     4     7    1
    14     7     8    2
    15     7     9   am
    16     9    11    1
    17    11    12    1
    18    12    13   ar
    19    13    14   ar
    20    14    15   ar
    21    15    16   ar
    22    16    17   ar
    23     4     5   ar
    24     5     6   ar
    25    26    27   ar
    26    27    28   ar
    27    28    29   ar
    28    29    21   ar
    29    28    23   ar
    30     6     1   ar
    31    17    12   ar
    32    20    30    1
    33    20    31    1
    34     9    10    1
@<TRIPOS>MOLECULE
*****
 31 34 0 0 0
SMALL
GASTEIGER

@<TRIPOS>ATOM
      1 C           8.2974   -5.2112   25.7989 C.ar    1  UNL1       -0.0110
      2 C           8.7446   -6.3641   24.9500 C.ar    1  UNL1       -0.0033
      3 C           8.6837   -7.7618   25.4910 C.ar    1  UNL1        0.0042
      4 C           8.1755   -8.0065   26.8809 C.ar    1  UNL1        0.0533
      5 C           7.7283   -6.8536   27.7298 C.ar    1  UNL1        0.0042
      6 C           7.7893   -5.4559   27.1888 C.ar    1  UNL1       -0.0033
      7 C           8.1146   -9.4043   27.4219 C.2     1  UNL1        0.2461
      8 O           9.3798  -10.1241   27.7843 O.2     1  UNL1       -0.2701
      9 N           6.7885  -10.0822   27.6005 N.am    1  UNL1       -0.2969
     10 H           5.9582   -9.6098   27.3627 H       1  UNL1        0.1501
     11 C           6.7277  -11.4799   28.1415 C.3     1  UNL1        0.1166
     12 C           5.4309  -12.2338   28.1274 C.ar    1  UNL1       -0.0026
     13 C           5.1573  -13.2352   27.0446 C.ar    1  UNL1       -0.0026
     14 C           3.8606  -13.9890   27.0304 C.ar    1  UNL1       -0.0003
     15 C           2.8375  -13.7416   28.0991 C.ar    1  UNL1       -0.0000
     16 C           3.1111  -12.7403   29.1819 C.ar    1  UNL1       -0.0003
     17 C           4.4078  -11.9864   29.1960 C.ar    1  UNL1       -0.0026
     18 C           8.3584   -3.8134   25.2579 C.3     1  UNL1        0.0884
     19 S           9.0948   -3.5348   23.9812 S.3     1  UNL1       -0.1088
     20 N           3.2448   -3.8436   18.7558 N.pl3   1  UNL1       -0.3375
     21 C           4.5212   -3.6982   19.5301 C.ar    1  UNL1        0.1567
     22 N           5.8436   -3.2582   18.9754 N.ar    1  UNL1       -0.2245
     23 C           6.8392   -3.2553   20.0974 C.ar    1  UNL1        0.0893
     24 C           8.2982   -2.9102   20.1439 C.ar    1  UNL1        0.0202
     25 C           9.0500   -3.0034   21.4384 C.ar    1  UNL1        0.0077
     26 C           8.3429   -3.4416   22.6866 C.ar    1  UNL1        0.0261
     27 C           6.8839   -3.7866   22.6402 C.ar    1  UNL1        0.0142
     28 C           6.1320   -3.6935   21.3456 C.ar    1  UNL1        0.0502
     29 S           4.6995   -3.9672   20.9949 S.2     1  UNL1       -0.0520
     30 H           3.2278   -3.6422   17.7923 H       1  UNL1        0.1442
     31 H           2.4239   -4.1404   19.2112 H       1  UNL1        0.1442
@<TRIPOS>BOND
     1    20    21    1
     2    21    22   ar
     3    22    23   ar
     4    23    24   ar
     5    24    25   ar
     6    25    26   ar
     7    26    19    1
     8    19    18    1
     9    18     1    1
    10     1     2   ar
    11     2     3   ar
    12     3     4   ar
    13     4     7    1
    14     7     8    2
    15     7     9   am
    16     9    11    1
    17    11    12    1
    18    12    13   ar
    19    13    14   ar
    20    14    15   ar
    21    15    16   ar
    22    16    17   ar
    23     4     5   ar
    24     5     6   ar
    25    26    27   ar
    26    27    28   ar
    27    28    29   ar
    28    29    21   ar
    29    28    23   ar
    30     6     1   ar
    31    17    12   ar
    32    20    30    1
    33    20    31    1
    34     9    10    1
@<TRIPOS>MOLECULE
*****
 31 34 0 0 0
SMALL
GASTEIGER

@<TRIPOS>ATOM
      1 C           8.2180   -5.3641   25.9236 C.ar    1  UNL1       -0.0110
      2 C           8.0878   -6.5142   24.9696 C.ar    1  UNL1       -0.0033
      3 C           7.9964   -7.9166   25.4936 C.ar    1  UNL1        0.0042
      4 C           8.0351   -8.1690   26.9717 C.ar    1  UNL1        0.0533
      5 C           8.1653   -7.0189   27.9258 C.ar    1  UNL1        0.0042
      6 C           8.2567   -5.6164   27.4017 C.ar    1  UNL1       -0.0033
      7 C           7.9437   -9.5716   27.4958 C.2     1  UNL1        0.2461
      8 O           9.1907  -10.3113   27.8803 O.2     1  UNL1       -0.2701
      9 N           6.6053  -10.2343   27.6353 N.am    1  UNL1       -0.2969
     10 H           5.7869   -9.7488   27.3829 H       1  UNL1        0.1501
     11 C           6.5140  -11.6368   28.1593 C.3     1  UNL1        0.1166
     12 C           5.1934  -12.3482   28.1719 C.ar    1  UNL1       -0.0026
     13 C           4.8507  -13.3129   27.0756 C.ar    1  UNL1       -0.0026
     14 C           3.5302  -14.0243   27.0882 C.ar    1  UNL1       -0.0003
     15 C           2.5523  -13.7710   28.1972 C.ar    1  UNL1       -0.0000
     16 C           2.8951  -12.8063   29.2935 C.ar    1  UNL1       -0.0003
     17 C           4.2156  -12.0949   29.2809 C.ar    1  UNL1       -0.0026
     18 C           8.3094   -3.9615   25.3996 C.3     1  UNL1        0.0884
     19 S           7.9487   -3.6687   23.9734 S.3     1  UNL1       -0.1088
     20 N           1.8504   -0.8278   19.9283 N.pl3   1  UNL1       -0.3375
     21 C           2.8843   -1.2525   20.9286 C.ar    1  UNL1        0.1567
     22 N           2.8552   -0.9687   22.4012 N.ar    1  UNL1       -0.2245
     23 C           4.0818   -1.5764   23.0147 C.ar    1  UNL1        0.0893
     24 C           4.5836   -1.6145   24.4277 C.ar    1  UNL1        0.0202
     25 C           5.8725   -2.3119   24.7473 C.ar    1  UNL1        0.0077
     26 C           6.6597   -2.9712   23.6538 C.ar    1  UNL1        0.0261
     27 C           6.1579   -2.9331   22.2408 C.ar    1  UNL1        0.0142
     28 C           4.8689   -2.2357   21.9212 C.ar    1  UNL1        0.0502
     29 S           4.1288   -2.0355   20.6319 S.2     1  UNL1       -0.0520
     30 H           1.0637   -0.3136   20.2215 H       1  UNL1        0.1442
     31 H           1.9585   -1.0631   18.9784 H       1  UNL1        0.1442
@<TRIPOS>BOND
     1    20    21    1
     2    21    22   ar
     3    22    23   ar
     4    23    24   ar
     5    24    25   ar
     6    25    26   ar
     7    26    19    1
     8    19    18    1
     9    18     1    1
    10     1     2   ar
    11     2     3   ar
    12     3     4   ar
    13     4     7    1
    14     7     8    2
    15     7     9   am
    16     9    11    1
    17    11    12    1
    18    12    13   ar
    19    13    14   ar
    20    14    15   ar
    21    15    16   ar
    22    16    17   ar
    23     4     5   ar
    24     5     6   ar
    25    26    27   ar
    26    27    28   ar
    27    28    29   ar
    28    29    21   ar
    29    28    23   ar
    30     6     1   ar
    31    17    12   ar
    32    20    30    1
    33    20    31    1
    34     9    10    1
@<TRIPOS>MOLECULE
*****
 31 34 0 0 0
SMALL
GASTEIGER

@<TRIPOS>ATOM
      1 C           7.2462   -4.4463   23.0804 C.ar    1  UNL1       -0.0110
      2 C           7.6260   -4.3782   21.6309 C.ar    1  UNL1       -0.0033
      3 C           6.6475   -3.8518   20.6232 C.ar    1  UNL1        0.0042
      4 C           5.2892   -3.3936   21.0651 C.ar    1  UNL1        0.0533
      5 C           4.9095   -3.4617   22.5146 C.ar    1  UNL1        0.0042
      6 C           5.8880   -3.9881   23.5222 C.ar    1  UNL1       -0.0033
      7 C           4.3107   -2.8671   20.0573 C.2     1  UNL1        0.2461
      8 O           3.2453   -3.7672   19.5053 O.2     1  UNL1       -0.2701
      9 N           4.3977   -1.4407   19.6016 N.am    1  UNL1       -0.2969
     10 H           5.0970   -0.8500   19.9638 H       1  UNL1        0.1501
     11 C           3.4193   -0.9144   18.5939 C.3     1  UNL1        0.1166
     12 C           2.2574   -0.0782   19.0423 C.ar    1  UNL1       -0.0026
     13 C           1.9062    1.1771   18.3002 C.ar    1  UNL1       -0.0026
     14 C           0.7444    2.0133   18.7486 C.ar    1  UNL1       -0.0003
     15 C          -0.0662    1.5941   19.9391 C.ar    1  UNL1       -0.0000
     16 C           0.2850    0.3387   20.6812 C.ar    1  UNL1       -0.0003
     17 C           1.4469   -0.4974   20.2327 C.ar    1  UNL1       -0.0026
     18 C           8.2247   -4.9727   24.0882 C.3     1  UNL1        0.0884
     19 S           8.8542   -4.0404   25.0803 S.3     1  UNL1       -0.1088
     20 N           6.5967   -5.9245   32.3588 N.pl3   1  UNL1       -0.3375
     21 C           6.9272   -5.3030   31.0342 C.ar    1  UNL1        0.1567
     22 N           6.6686   -3.8793   30.6392 N.ar    1  UNL1       -0.2245
     23 C           7.1559   -3.6925   29.2329 C.ar    1  UNL1        0.0893
     24 C           7.1622   -2.5001   28.3229 C.ar    1  UNL1        0.0202
     25 C           7.7283   -2.6161   26.9387 C.ar    1  UNL1        0.0077
     26 C           8.2881   -3.9244   26.4646 C.ar    1  UNL1        0.0261
     27 C           8.2818   -5.1168   27.3746 C.ar    1  UNL1        0.0142
     28 C           7.7157   -5.0008   28.7588 C.ar    1  UNL1        0.0502
     29 S           7.5743   -5.9962   29.8720 S.2     1  UNL1       -0.0520
     30 H           6.1700   -5.3848   33.0630 H       1  UNL1        0.1442
     31 H           6.8064   -6.8721   32.5240 H       1  UNL1        0.1442
@<TRIPOS>BOND
     1    20    21    1
     2    21    22   ar
     3    22    23   ar
     4    23    24   ar
     5    24    25   ar
     6    25    26   ar
     7    26    19    1
     8    19    18    1
     9    18     1    1
    10     1     2   ar
    11     2     3   ar
    12     3     4   ar
    13     4     7    1
    14     7     8    2
    15     7     9   am
    16     9    11    1
    17    11    12    1
    18    12    13   ar
    19    13    14   ar
    20    14    15   ar
    21    15    16   ar
    22    16    17   ar
    23     4     5   ar
    24     5     6   ar
    25    26    27   ar
    26    27    28   ar
    27    28    29   ar
    28    29    21   ar
    29    28    23   ar
    30     6     1   ar
    31    17    12   ar
    32    20    30    1
    33    20    31    1
    34     9    10    1
@<TRIPOS>MOLECULE
*****
 31 34 0 0 0
SMALL
GASTEIGER

@<TRIPOS>ATOM
      1 C           6.6972   -3.6064   21.0671 C.ar    1  UNL1       -0.0110
      2 C           5.7033   -3.3720   22.1658 C.ar    1  UNL1       -0.0033
      3 C           5.9827   -3.8772   23.5502 C.ar    1  UNL1        0.0042
      4 C           7.2560   -4.6168   23.8360 C.ar    1  UNL1        0.0533
      5 C           8.2499   -4.8513   22.7373 C.ar    1  UNL1        0.0042
      6 C           7.9705   -4.3461   21.3529 C.ar    1  UNL1       -0.0033
      7 C           7.5354   -5.1220   25.2205 C.2     1  UNL1        0.2461
      8 O           8.9334   -5.4968   25.6142 O.2     1  UNL1       -0.2701
      9 N           6.4167   -5.2525   26.2112 N.am    1  UNL1       -0.2969
     10 H           5.4991   -5.0065   25.9528 H       1  UNL1        0.1501
     11 C           6.6961   -5.7576   27.5956 C.3     1  UNL1        0.1166
     12 C           6.6562   -4.8137   28.7608 C.ar    1  UNL1       -0.0026
     13 C           6.4152   -3.3508   28.5329 C.ar    1  UNL1       -0.0026
     14 C           6.3753   -2.4069   29.6979 C.ar    1  UNL1       -0.0003
     15 C           6.5765   -2.9258   31.0909 C.ar    1  UNL1       -0.0000
     16 C           6.8175   -4.3887   31.3188 C.ar    1  UNL1       -0.0003
     17 C           6.8574   -5.3326   30.1537 C.ar    1  UNL1       -0.0026
     18 C           6.4178   -3.1012   19.6826 C.3     1  UNL1        0.0884
     19 S           5.0680   -3.3149   19.0645 S.3     1  UNL1       -0.1088
     20 N          -0.7172    1.7799   20.5472 N.pl3   1  UNL1       -0.3375
     21 C           0.4254    0.9610   20.0238 C.ar    1  UNL1        0.1567
     22 N           1.1651    1.1981   18.7406 N.ar    1  UNL1       -0.2245
     23 C           2.2257    0.1449   18.6155 C.ar    1  UNL1        0.0893
     24 C           3.2573   -0.1202   17.5593 C.ar    1  UNL1        0.0202
     25 C           4.2046   -1.2734   17.7090 C.ar    1  UNL1        0.0077
     26 C           4.1205   -2.1616   18.9148 C.ar    1  UNL1        0.0261
     27 C           3.0889   -1.8965   19.9710 C.ar    1  UNL1        0.0142
     28 C           2.1416   -0.7433   19.8213 C.ar    1  UNL1        0.0502
     29 S           1.0289   -0.2389   20.6917 S.2     1  UNL1       -0.0520
     30 H          -1.0443    2.5534   20.0336 H       1  UNL1        0.1442
     31 H          -1.1400    1.5438   21.4044 H       1  UNL1        0.1442
@<TRIPOS>BOND
     1    20    21    1
     2    21    22   ar
     3    22    23   ar
     4    23    24   ar
     5    24    25   ar
     6    25    26   ar
     7    26    19    1
     8    19    18    1
     9    18     1    1
    10     1     2   ar
    11     2     3   ar
    12     3     4   ar
    13     4     7    1
    14     7     8    2
    15     7     9   am
    16     9    11    1
    17    11    12    1
    18    12    13   ar
    19    13    14   ar
    20    14    15   ar
    21    15    16   ar
    22    16    17   ar
    23     4     5   ar
    24     5     6   ar
    25    26    27   ar
    26    27    28   ar
    27    28    29   ar
    28    29    21   ar
    29    28    23   ar
    30     6     1   ar
    31    17    12   ar
    32    20    30    1
    33    20    31    1
    34     9    10    1
@<TRIPOS>MOLECULE
*****
 31 34 0 0 0
SMALL
GASTEIGER

@<TRIPOS>ATOM
      1 C           2.4859   -1.2712   20.4572 C.ar    1  UNL1       -0.0110
      2 C           3.0764   -2.3817   19.6399 C.ar    1  UNL1       -0.0033
      3 C           4.2724   -3.1317   20.1467 C.ar    1  UNL1        0.0042
      4 C           4.8779   -2.7713   21.4709 C.ar    1  UNL1        0.0533
      5 C           4.2874   -1.6608   22.2882 C.ar    1  UNL1        0.0042
      6 C           3.0914   -0.9108   21.7814 C.ar    1  UNL1       -0.0033
      7 C           6.0740   -3.5214   21.9777 C.2     1  UNL1        0.2461
      8 O           6.6866   -4.6076   21.1441 O.2     1  UNL1       -0.2701
      9 N           6.6575   -3.1853   23.3180 N.am    1  UNL1       -0.2969
     10 H           6.2554   -2.4724   23.8652 H       1  UNL1        0.1501
     11 C           7.8535   -3.9354   23.8248 C.3     1  UNL1        0.1166
     12 C           7.6677   -5.1787   24.6432 C.ar    1  UNL1       -0.0026
     13 C           8.2640   -6.4757   24.1827 C.ar    1  UNL1       -0.0026
     14 C           8.0782   -7.7190   25.0010 C.ar    1  UNL1       -0.0003
     15 C           7.2960   -7.6653   26.2799 C.ar    1  UNL1       -0.0000
     16 C           6.6997   -6.3682   26.7403 C.ar    1  UNL1       -0.0003
     17 C           6.8856   -5.1249   25.9220 C.ar    1  UNL1       -0.0026
     18 C           1.2898   -0.5211   19.9504 C.3     1  UNL1        0.0884
     19 S           1.4225    0.3907   18.7668 S.3     1  UNL1       -0.1088
     20 N           8.7299    1.9377   16.3520 N.pl3   1  UNL1       -0.3375
     21 C           7.3407    1.9107   16.9170 C.ar    1  UNL1        0.1567
     22 N           6.6623    3.0340   17.6435 N.ar    1  UNL1       -0.2245
     23 C           5.2882    2.5732   18.0302 C.ar    1  UNL1        0.0893
     24 C           4.1706    3.2539   18.7632 C.ar    1  UNL1        0.0202
     25 C           2.8820    2.5264   19.0088 C.ar    1  UNL1        0.0077
     26 C           2.7111    1.1182   18.5213 C.ar    1  UNL1        0.0261
     27 C           3.8288    0.4375   17.7882 C.ar    1  UNL1        0.0142
     28 C           5.1173    1.1650   17.5427 C.ar    1  UNL1        0.0502
     29 S           6.3858    0.7555   16.8547 S.2     1  UNL1       -0.0520
     30 H           9.2830    2.7470   16.4437 H       1  UNL1        0.1442
     31 H           9.0887    1.1461   15.8895 H       1  UNL1        0.1442
@<TRIPOS>BOND
     1    20    21    1
     2    21    22   ar
     3    22    23   ar
     4    23    24   ar
     5    24    25   ar
     6    25    26   ar
     7    26    19    1
     8    19    18    1
     9    18     1    1
    10     1     2   ar
    11     2     3   ar
    12     3     4   ar
    13     4     7    1
    14     7     8    2
    15     7     9   am
    16     9    11    1
    17    11    12    1
    18    12    13   ar
    19    13    14   ar
    20    14    15   ar
    21    15    16   ar
    22    16    17   ar
    23     4     5   ar
    24     5     6   ar
    25    26    27   ar
    26    27    28   ar
    27    28    29   ar
    28    29    21   ar
    29    28    23   ar
    30     6     1   ar
    31    17    12   ar
    32    20    30    1
    33    20    31    1
    34     9    10    1
@<TRIPOS>MOLECULE
*****
 31 34 0 0 0
SMALL
GASTEIGER

@<TRIPOS>ATOM
      1 C          -5.8822  -15.6591   26.1996 C.ar    1  UNL1       -0.0110
      2 C          -4.9747  -16.7935   26.5733 C.ar    1  UNL1       -0.0033
      3 C          -4.0943  -17.4230   25.5348 C.ar    1  UNL1        0.0042
      4 C          -4.1213  -16.9181   24.1226 C.ar    1  UNL1        0.0533
      5 C          -5.0288  -15.7838   23.7489 C.ar    1  UNL1        0.0042
      6 C          -5.9092  -15.1543   24.7874 C.ar    1  UNL1       -0.0033
      7 C          -3.2409  -17.5476   23.0840 C.2     1  UNL1        0.2461
      8 O          -2.2071  -16.7222   22.3769 O.2     1  UNL1       -0.2701
      9 N          -3.3941  -19.0025   22.7527 N.am    1  UNL1       -0.2969
     10 H          -4.0726  -19.5442   23.2169 H       1  UNL1        0.1501
     11 C          -2.5137  -19.6320   21.7142 C.3     1  UNL1        0.1166
     12 C          -2.2414  -18.9132   20.4260 C.ar    1  UNL1       -0.0026
     13 C          -3.3802  -18.5117   19.5361 C.ar    1  UNL1       -0.0026
     14 C          -3.1080  -17.7929   18.2480 C.ar    1  UNL1       -0.0003
     15 C          -1.6970  -17.4757   17.8497 C.ar    1  UNL1       -0.0000
     16 C          -0.5583  -17.8772   18.7397 C.ar    1  UNL1       -0.0003
     17 C          -0.8305  -18.5960   20.0279 C.ar    1  UNL1       -0.0026
     18 C          -6.7627  -15.0296   27.2382 C.3     1  UNL1        0.0884
     19 S          -8.2442  -15.2617   27.2061 S.3     1  UNL1       -0.1088
     20 N         -11.1870  -17.8747   20.4138 N.pl3   1  UNL1       -0.3375
     21 C         -10.6715  -17.6443   21.8034 C.ar    1  UNL1        0.1567
     22 N         -10.6069  -18.6653   22.9004 N.ar    1  UNL1       -0.2245
     23 C         -10.0256  -18.0044   24.1151 C.ar    1  UNL1        0.0893
     24 C          -9.7265  -18.5196   25.4917 C.ar    1  UNL1        0.0202
     25 C          -9.1327  -17.6054   26.5220 C.ar    1  UNL1        0.0077
     26 C          -8.8380  -16.1760   26.1757 C.ar    1  UNL1        0.0261
     27 C          -9.1371  -15.6608   24.7991 C.ar    1  UNL1        0.0142
     28 C          -9.7309  -16.5750   23.7688 C.ar    1  UNL1        0.0502
     29 S         -10.1301  -16.3525   22.3401 S.2     1  UNL1       -0.0520
     30 H         -11.5237  -18.7628   20.1546 H       1  UNL1        0.1442
     31 H         -11.1887  -17.1378   19.7609 H       1  UNL1        0.1442
@<TRIPOS>BOND
     1    20    21    1
     2    21    22   ar
     3    22    23   ar
     4    23    24   ar
     5    24    25   ar
     6    25    26   ar
     7    26    19    1
     8    19    18    1
     9    18     1    1
    10     1     2   ar
    11     2     3   ar
    12     3     4   ar
    13     4     7    1
    14     7     8    2
    15     7     9   am
    16     9    11    1
    17    11    12    1
    18    12    13   ar
    19    13    14   ar
    20    14    15   ar
    21    15    16   ar
    22    16    17   ar
    23     4     5   ar
    24     5     6   ar
    25    26    27   ar
    26    27    28   ar
    27    28    29   ar
    28    29    21   ar
    29    28    23   ar
    30     6     1   ar
    31    17    12   ar
    32    20    30    1
    33    20    31    1
    34     9    10    1
