@<TRIPOS>MOLECULE
*****
 35 38 0 0 0
SMALL
GASTEIGER

@<TRIPOS>ATOM
      1 C           7.1095   -3.6917   22.1727 C.3     1  UNL1        0.0413
      2 C           8.1777   -4.6879   22.5139 C.3     1  UNL1        0.0765
      3 N           7.9305   -5.1722   23.9119 N.3     1  UNL1       -0.2723
      4 C           6.7094   -4.4753   24.4347 C.3     1  UNL1        0.0741
      5 C           6.2020   -3.5603   23.3598 C.3     1  UNL1        0.0410
      6 C           6.6994   -1.4847   18.2726 C.ar    1  UNL1        0.1387
      7 C           7.5042   -0.8899   19.3899 C.ar    1  UNL1        0.0366
      8 C           7.6409   -1.6255   20.6899 C.ar    1  UNL1       -0.0011
      9 C           6.9728   -2.9560   20.8726 C.ar    1  UNL1       -0.0209
     10 C           6.1680   -3.5508   19.7553 C.ar    1  UNL1       -0.0011
     11 C           6.0313   -2.8151   18.4553 C.ar    1  UNL1        0.0366
     12 C           6.9038    0.7097   16.8967 C.3     1  UNL1        0.2525
     13 O           6.5626   -0.7490   16.9725 O.3     1  UNL1       -0.4714
     14 C           8.7588   -6.1770   24.6563 C.3     1  UNL1        0.0721
     15 C           8.2391   -7.5680   24.8683 C.3     1  UNL1        0.0173
     16 C           7.3324   -7.8614   26.0266 C.3     1  UNL1        0.0015
     17 C           7.4534   -7.0675   27.2937 C.3     1  UNL1        0.0028
     18 C           6.4761   -5.9679   27.5860 C.3     1  UNL1        0.0171
     19 C           6.5973   -5.1741   28.8531 C.3     1  UNL1        0.0686
     20 N           7.6956   -5.4800   29.8277 N.3     1  UNL1       -0.2975
     21 C           8.6730   -6.5797   29.5353 C.3     1  UNL1        0.0686
     22 C           8.5519   -7.3735   28.2683 C.3     1  UNL1        0.0171
     23 H           7.2469   -5.7127   30.7136 H       1  UNL1        0.1232
     24 C           4.9984   -2.6702   23.4552 C.3     1  UNL1        0.0914
     25 N           4.3552   -2.1421   22.2074 N.am    1  UNL1       -0.3008
     26 C           3.2398   -1.1438   22.3032 C.2     1  UNL1        0.2459
     27 O           2.7675   -0.6736   23.6470 O.2     1  UNL1       -0.2701
     28 H           4.6651   -2.4508   21.3254 H       1  UNL1        0.1497
     29 C           2.5966   -0.6158   21.0552 C.ar    1  UNL1        0.0542
     30 C           1.2590    0.0591   21.1287 C.ar    1  UNL1        0.0046
     31 C           0.6158    0.5872   19.8807 C.ar    1  UNL1        0.0010
     32 C           1.3101    0.4404   18.5593 C.ar    1  UNL1        0.0114
     33 C           2.6477   -0.2345   18.4858 C.ar    1  UNL1        0.0578
     34 CL          3.3421   -0.3813   17.1642 Cl      1  UNL1       -0.0822
     35 C           3.2909   -0.7626   19.7338 C.ar    1  UNL1        0.0159
@<TRIPOS>BOND
     1    12    13    1
     2    13     6    1
     3     6     7   ar
     4     7     8   ar
     5     8     9   ar
     6     1     9    1
     7     1     2    1
     8     2     3    1
     9     3    14    1
    10    14    15    1
    11    15    16    1
    12    16    17    1
    13    17    18    1
    14    18    19    1
    15    19    20    1
    16    20    21    1
    17    21    22    1
    18     3     4    1
    19     4     5    1
    20     5    24    1
    21    24    25    1
    22    25    26   am
    23    26    27    2
    24    26    29    1
    25    29    30   ar
    26    30    31   ar
    27    31    32   ar
    28    32    33   ar
    29    33    34    1
    30    33    35   ar
    31     9    10   ar
    32    10    11   ar
    33    11     6   ar
    34     5     1    1
    35    35    29   ar
    36    22    17    1
    37    20    23    1
    38    25    28    1
@<TRIPOS>MOLECULE
*****
 35 38 0 0 0
SMALL
GASTEIGER

@<TRIPOS>ATOM
      1 C           8.5253   -6.7484   27.4418 C.3     1  UNL1        0.0413
      2 C           8.6177   -5.6031   28.4061 C.3     1  UNL1        0.0765
      3 N           8.5774   -6.1637   29.7968 N.3     1  UNL1       -0.2723
      4 C           8.4600   -7.6555   29.6920 C.3     1  UNL1        0.0741
      5 C           8.4278   -8.0167   28.2365 C.3     1  UNL1        0.0410
      6 C           8.5381   -6.4340   22.9528 C.ar    1  UNL1        0.1387
      7 C           7.7679   -5.4412   23.7719 C.ar    1  UNL1        0.0366
      8 C           7.7636   -5.5460   25.2683 C.ar    1  UNL1       -0.0011
      9 C           8.5295   -6.6436   25.9454 C.ar    1  UNL1       -0.0209
     10 C           9.2998   -7.6364   25.1263 C.ar    1  UNL1       -0.0011
     11 C           9.3041   -7.5316   23.6300 C.ar    1  UNL1        0.0366
     12 C           8.4621   -4.9836   20.7986 C.3     1  UNL1        0.2525
     13 O           8.5424   -6.3293   21.4565 O.3     1  UNL1       -0.4714
     14 C           8.6429   -5.3717   31.0689 C.3     1  UNL1        0.0721
     15 C           7.4301   -4.6370   31.5583 C.3     1  UNL1        0.0173
     16 C           7.3966   -3.1378   31.5235 C.3     1  UNL1        0.0015
     17 C           6.0989   -2.4118   31.7217 C.3     1  UNL1        0.0028
     18 C           5.5267   -1.5819   30.6111 C.3     1  UNL1        0.0171
     19 C           4.2290   -0.8560   30.8094 C.3     1  UNL1        0.0686
     20 N           3.5038   -0.9600   32.1183 N.3     1  UNL1       -0.2975
     21 C           4.0762   -1.7900   33.2289 C.3     1  UNL1        0.0686
     22 C           5.3737   -2.5159   33.0306 C.3     1  UNL1        0.0171
     23 H           2.5794   -1.3395   31.9134 H       1  UNL1        0.1232
     24 C           8.3175   -9.4031   27.6745 C.3     1  UNL1        0.0914
     25 N           6.9838  -10.0875   27.6226 N.am    1  UNL1       -0.3008
     26 C           6.8816  -11.5546   27.9177 C.2     1  UNL1        0.2459
     27 O           8.1132  -12.3374   28.2648 O.2     1  UNL1       -0.2701
     28 H           6.1755   -9.5737   27.3948 H       1  UNL1        0.1497
     29 C           5.5478  -12.2390   27.8658 C.ar    1  UNL1        0.0542
     30 C           5.1940  -13.1043   26.6928 C.ar    1  UNL1        0.0046
     31 C           3.8602  -13.7886   26.6409 C.ar    1  UNL1        0.0010
     32 C           2.8802  -13.6077   27.7619 C.ar    1  UNL1        0.0114
     33 C           3.2341  -12.7424   28.9350 C.ar    1  UNL1        0.0578
     34 CL          2.2541  -12.5614   30.0561 Cl      1  UNL1       -0.0822
     35 C           4.5678  -12.0580   28.9869 C.ar    1  UNL1        0.0159
@<TRIPOS>BOND
     1    12    13    1
     2    13     6    1
     3     6     7   ar
     4     7     8   ar
     5     8     9   ar
     6     1     9    1
     7     1     2    1
     8     2     3    1
     9     3    14    1
    10    14    15    1
    11    15    16    1
    12    16    17    1
    13    17    18    1
    14    18    19    1
    15    19    20    1
    16    20    21    1
    17    21    22    1
    18     3     4    1
    19     4     5    1
    20     5    24    1
    21    24    25    1
    22    25    26   am
    23    26    27    2
    24    26    29    1
    25    29    30   ar
    26    30    31   ar
    27    31    32   ar
    28    32    33   ar
    29    33    34    1
    30    33    35   ar
    31     9    10   ar
    32    10    11   ar
    33    11     6   ar
    34     5     1    1
    35    35    29   ar
    36    22    17    1
    37    20    23    1
    38    25    28    1
@<TRIPOS>MOLECULE
*****
 35 38 0 0 0
SMALL
GASTEIGER

@<TRIPOS>ATOM
      1 C           0.2912    1.8023   24.7509 C.3     1  UNL1        0.0413
      2 C           0.9465    1.1435   23.5734 C.3     1  UNL1        0.0765
      3 N           0.4039    1.7768   22.3266 N.3     1  UNL1       -0.2723
      4 C          -0.5867    2.8271   22.7335 C.3     1  UNL1        0.0741
      5 C          -0.6564    2.8428   24.2318 C.3     1  UNL1        0.0410
      6 C           1.0370    0.8282   29.0804 C.ar    1  UNL1        0.1387
      7 C           2.1603    1.3245   28.2191 C.ar    1  UNL1        0.0366
      8 C           1.9116    1.6492   26.7759 C.ar    1  UNL1       -0.0011
      9 C           0.5398    1.4776   26.1941 C.ar    1  UNL1       -0.0209
     10 C          -0.5834    0.9813   27.0554 C.ar    1  UNL1       -0.0011
     11 C          -0.3348    0.6566   28.4986 C.ar    1  UNL1        0.0366
     12 C           2.6395    0.0308   30.9636 C.3     1  UNL1        0.2525
     13 O           1.2857    0.5036   30.5236 O.3     1  UNL1       -0.4714
     14 C           0.7851    1.4222   20.9198 C.3     1  UNL1        0.0721
     15 C           0.8425   -0.0162   20.4984 C.3     1  UNL1        0.0173
     16 C           2.0892   -0.8170   20.7320 C.3     1  UNL1        0.0015
     17 C           2.9472   -1.2248   19.5711 C.3     1  UNL1        0.0028
     18 C           3.0453   -0.3401   18.3638 C.3     1  UNL1        0.0171
     19 C           3.9033   -0.7480   17.2029 C.3     1  UNL1        0.0686
     20 N           4.6632   -2.0404   17.2494 N.3     1  UNL1       -0.2975
     21 C           4.5650   -2.9251   18.4568 C.3     1  UNL1        0.0686
     22 C           3.7071   -2.5172   19.6176 C.3     1  UNL1        0.0171
     23 H           5.6494   -1.8064   17.1352 H       1  UNL1        0.1232
     24 C          -1.5217    3.7413   25.0648 C.3     1  UNL1        0.0914
     25 N          -2.8692    4.1642   24.5595 N.am    1  UNL1       -0.3008
     26 C          -4.0553    4.1422   25.4775 C.2     1  UNL1        0.2459
     27 O          -3.8939    3.6974   26.9008 O.2     1  UNL1       -0.2701
     28 H          -2.9751    4.4562   23.6253 H       1  UNL1        0.1497
     29 C          -5.4028    4.5651   24.9721 C.ar    1  UNL1        0.0542
     30 C          -5.9385    3.9910   23.6941 C.ar    1  UNL1        0.0046
     31 C          -7.2860    4.4139   23.1887 C.ar    1  UNL1        0.0010
     32 C          -8.0978    5.4109   23.9612 C.ar    1  UNL1        0.0114
     33 C          -7.5620    5.9850   25.2392 C.ar    1  UNL1        0.0578
     34 CL         -8.3738    6.9821   26.0119 Cl      1  UNL1       -0.0822
     35 C          -6.2146    5.5621   25.7446 C.ar    1  UNL1        0.0159
@<TRIPOS>BOND
     1    12    13    1
     2    13     6    1
     3     6     7   ar
     4     7     8   ar
     5     8     9   ar
     6     1     9    1
     7     1     2    1
     8     2     3    1
     9     3    14    1
    10    14    15    1
    11    15    16    1
    12    16    17    1
    13    17    18    1
    14    18    19    1
    15    19    20    1
    16    20    21    1
    17    21    22    1
    18     3     4    1
    19     4     5    1
    20     5    24    1
    21    24    25    1
    22    25    26   am
    23    26    27    2
    24    26    29    1
    25    29    30   ar
    26    30    31   ar
    27    31    32   ar
    28    32    33   ar
    29    33    34    1
    30    33    35   ar
    31     9    10   ar
    32    10    11   ar
    33    11     6   ar
    34     5     1    1
    35    35    29   ar
    36    22    17    1
    37    20    23    1
    38    25    28    1
@<TRIPOS>MOLECULE
*****
 35 38 0 0 0
SMALL
GASTEIGER

@<TRIPOS>ATOM
      1 C         -16.6343   -6.3178   17.4162 C.3     1  UNL1        0.0413
      2 C         -17.4616   -7.2720   16.6068 C.3     1  UNL1        0.0765
      3 N         -18.9046   -6.9068   16.7923 N.3     1  UNL1       -0.2723
      4 C         -18.9691   -5.7270   17.7163 C.3     1  UNL1        0.0741
      5 C         -17.5660   -5.3630   18.1019 C.3     1  UNL1        0.0410
      6 C         -12.1453   -6.3196   17.7318 C.ar    1  UNL1        0.1387
      7 C         -12.8144   -5.6676   16.5583 C.ar    1  UNL1        0.0366
      8 C         -14.3107   -5.6670   16.4531 C.ar    1  UNL1       -0.0011
      9 C         -15.1379   -6.3184   17.5214 C.ar    1  UNL1       -0.0209
     10 C         -14.4689   -6.9704   18.6949 C.ar    1  UNL1       -0.0011
     11 C         -12.9726   -6.9710   18.8002 C.ar    1  UNL1        0.0366
     12 C          -9.9810   -5.7094   19.0331 C.3     1  UNL1        0.2525
     13 O         -10.6490   -6.3202   17.8371 O.3     1  UNL1       -0.4714
     14 C         -20.0772   -7.5998   16.1640 C.3     1  UNL1        0.0721
     15 C         -20.4638   -8.9773   16.6145 C.3     1  UNL1        0.0173
     16 C         -20.3171   -9.3636   18.0565 C.3     1  UNL1        0.0015
     17 C         -18.9514   -9.5604   18.6450 C.3     1  UNL1        0.0028
     18 C         -18.5013   -8.7109   19.7963 C.3     1  UNL1        0.0171
     19 C         -17.1356   -8.9078   20.3847 C.3     1  UNL1        0.0686
     20 N         -16.2201   -9.9541   19.8218 N.3     1  UNL1       -0.2975
     21 C         -16.6703  -10.8037   18.6704 C.3     1  UNL1        0.0686
     22 C         -18.0359  -10.6068   18.0820 C.3     1  UNL1        0.0171
     23 H         -15.9945  -10.5903   20.5865 H       1  UNL1        0.1232
     24 C         -17.1649   -4.2411   19.0132 C.3     1  UNL1        0.0914
     25 N         -16.0584   -3.3102   18.6148 N.am    1  UNL1       -0.3008
     26 C         -14.7986   -3.2515   19.4270 C.2     1  UNL1        0.2459
     27 O         -14.6455   -4.1237   20.6377 O.2     1  UNL1       -0.2701
     28 H         -16.1588   -2.7377   17.8202 H       1  UNL1        0.1497
     29 C         -13.6921   -2.3205   19.0285 C.ar    1  UNL1        0.0542
     30 C         -12.2675   -2.7888   19.0673 C.ar    1  UNL1        0.0046
     31 C         -11.1609   -1.8578   18.6688 C.ar    1  UNL1        0.0010
     32 C         -11.4788   -0.4586   18.2316 C.ar    1  UNL1        0.0114
     33 C         -12.9033    0.0096   18.1929 C.ar    1  UNL1        0.0578
     34 CL        -13.2212    1.4089   17.7556 Cl      1  UNL1       -0.0822
     35 C         -14.0099   -0.9213   18.5913 C.ar    1  UNL1        0.0159
@<TRIPOS>BOND
     1    12    13    1
     2    13     6    1
     3     6     7   ar
     4     7     8   ar
     5     8     9   ar
     6     1     9    1
     7     1     2    1
     8     2     3    1
     9     3    14    1
    10    14    15    1
    11    15    16    1
    12    16    17    1
    13    17    18    1
    14    18    19    1
    15    19    20    1
    16    20    21    1
    17    21    22    1
    18     3     4    1
    19     4     5    1
    20     5    24    1
    21    24    25    1
    22    25    26   am
    23    26    27    2
    24    26    29    1
    25    29    30   ar
    26    30    31   ar
    27    31    32   ar
    28    32    33   ar
    29    33    34    1
    30    33    35   ar
    31     9    10   ar
    32    10    11   ar
    33    11     6   ar
    34     5     1    1
    35    35    29   ar
    36    22    17    1
    37    20    23    1
    38    25    28    1
@<TRIPOS>MOLECULE
*****
 35 38 0 0 0
SMALL
GASTEIGER

@<TRIPOS>ATOM
      1 C           3.2293   -0.7179   23.9803 C.3     1  UNL1        0.0413
      2 C           2.1698    0.3146   24.2281 C.3     1  UNL1        0.0765
      3 N           2.2970    0.7776   25.6492 N.3     1  UNL1       -0.2723
      4 C           3.4351    0.0311   26.2798 C.3     1  UNL1        0.0741
      5 C           4.0113   -0.8931   25.2483 C.3     1  UNL1        0.0410
      6 C           3.9376   -2.9056   20.1122 C.ar    1  UNL1        0.1387
      7 C           3.0964   -1.6638   20.1284 C.ar    1  UNL1        0.0366
      8 C           2.8604   -0.9346   21.4178 C.ar    1  UNL1       -0.0011
      9 C           3.4654   -1.4471   22.6910 C.ar    1  UNL1       -0.0209
     10 C           4.3065   -2.6890   22.6748 C.ar    1  UNL1       -0.0011
     11 C           4.5426   -3.4182   21.3855 C.ar    1  UNL1        0.0366
     12 C           4.5852   -5.0772   18.8415 C.3     1  UNL1        0.2525
     13 O           4.1736   -3.6349   18.8229 O.3     1  UNL1       -0.4714
     14 C           1.4370    1.8063   26.3217 C.3     1  UNL1        0.0721
     15 C          -0.0033    1.5053   26.6130 C.3     1  UNL1        0.0173
     16 C          -0.3685    0.6641   27.8000 C.3     1  UNL1        0.0015
     17 C           0.4908    0.6884   29.0293 C.3     1  UNL1        0.0028
     18 C           0.3223    1.7833   30.0405 C.3     1  UNL1        0.0171
     19 C           1.1816    1.8076   31.2698 C.3     1  UNL1        0.0686
     20 N           2.2093    0.7370   31.4878 N.3     1  UNL1       -0.2975
     21 C           2.3777   -0.3580   30.4766 C.3     1  UNL1        0.0686
     22 C           1.5184   -0.3823   29.2473 C.3     1  UNL1        0.0171
     23 H           1.9818    0.2866   32.3743 H       1  UNL1        0.1232
     24 C           5.1666   -1.8283   25.4496 C.3     1  UNL1        0.0914
     25 N           5.3247   -2.5557   26.7518 N.am    1  UNL1       -0.3008
     26 C           6.6392   -3.1870   27.1036 C.2     1  UNL1        0.2459
     27 O           7.7956   -3.0908   26.1531 O.2     1  UNL1       -0.2701
     28 H           4.5657   -2.6189   27.3757 H       1  UNL1        0.1497
     29 C           6.7972   -3.9144   28.4058 C.ar    1  UNL1        0.0542
     30 C           7.2669   -5.3389   28.4170 C.ar    1  UNL1        0.0046
     31 C           7.4249   -6.0663   29.7193 C.ar    1  UNL1        0.0010
     32 C           7.1133   -5.3693   31.0104 C.ar    1  UNL1        0.0114
     33 C           6.6436   -3.9447   30.9992 C.ar    1  UNL1        0.0578
     34 CL          6.3320   -3.2476   32.2904 Cl      1  UNL1       -0.0822
     35 C           6.4856   -3.2173   29.6969 C.ar    1  UNL1        0.0159
@<TRIPOS>BOND
     1    12    13    1
     2    13     6    1
     3     6     7   ar
     4     7     8   ar
     5     8     9   ar
     6     1     9    1
     7     1     2    1
     8     2     3    1
     9     3    14    1
    10    14    15    1
    11    15    16    1
    12    16    17    1
    13    17    18    1
    14    18    19    1
    15    19    20    1
    16    20    21    1
    17    21    22    1
    18     3     4    1
    19     4     5    1
    20     5    24    1
    21    24    25    1
    22    25    26   am
    23    26    27    2
    24    26    29    1
    25    29    30   ar
    26    30    31   ar
    27    31    32   ar
    28    32    33   ar
    29    33    34    1
    30    33    35   ar
    31     9    10   ar
    32    10    11   ar
    33    11     6   ar
    34     5     1    1
    35    35    29   ar
    36    22    17    1
    37    20    23    1
    38    25    28    1
@<TRIPOS>MOLECULE
*****
 35 38 0 0 0
SMALL
GASTEIGER

@<TRIPOS>ATOM
      1 C          -0.8190    2.6746   21.0960 C.3     1  UNL1        0.0413
      2 C          -2.2127    2.9488   20.6139 C.3     1  UNL1        0.0765
      3 N          -2.8627    3.8890   21.5853 N.3     1  UNL1       -0.2723
      4 C          -1.8707    4.1959   22.6677 C.3     1  UNL1        0.0741
      5 C          -0.6077    3.4454   22.3653 C.3     1  UNL1        0.0410
      6 C           2.1981    0.0081   19.0869 C.ar    1  UNL1        0.1387
      7 C           1.3125   -0.5411   20.1658 C.ar    1  UNL1        0.0366
      8 C           0.3068    0.3477   20.8354 C.ar    1  UNL1       -0.0011
      9 C           0.1867    1.7858   20.4263 C.ar    1  UNL1       -0.0209
     10 C           1.0723    2.3350   19.3475 C.ar    1  UNL1       -0.0011
     11 C           2.0781    1.4462   18.6778 C.ar    1  UNL1        0.0366
     12 C           3.6737   -0.5678   17.0276 C.3     1  UNL1        0.2525
     13 O           3.2039   -0.8808   18.4173 O.3     1  UNL1       -0.4714
     14 C          -4.2594    4.4277   21.4908 C.3     1  UNL1        0.0721
     15 C          -5.4007    3.6626   22.0926 C.3     1  UNL1        0.0173
     16 C          -6.3008    4.3229   23.0944 C.3     1  UNL1        0.0015
     17 C          -5.8285    4.5341   24.5025 C.3     1  UNL1        0.0028
     18 C          -4.6949    3.7148   25.0441 C.3     1  UNL1        0.0171
     19 C          -4.2226    3.9261   26.4521 C.3     1  UNL1        0.0686
     20 N          -4.8839    4.9567   27.3183 N.3     1  UNL1       -0.2975
     21 C          -6.0176    5.7760   26.7766 C.3     1  UNL1        0.0686
     22 C          -6.4899    5.5648   25.3687 C.3     1  UNL1        0.0171
     23 H          -4.1565    5.6124   27.6033 H       1  UNL1        0.1232
     24 C           0.6466    3.4626   23.1879 C.3     1  UNL1        0.0914
     25 N           0.5756    3.2344   24.6686 N.am    1  UNL1       -0.3008
     26 C           0.7592    1.8533   25.2244 C.2     1  UNL1        0.2459
     27 O           1.0138    0.7003   24.2993 O.2     1  UNL1       -0.2701
     28 H           0.4085    3.9911   25.2758 H       1  UNL1        0.1497
     29 C           0.6882    1.6251   26.7052 C.ar    1  UNL1        0.0542
     30 C           1.8378    2.0254   27.5817 C.ar    1  UNL1        0.0046
     31 C           1.7668    1.7973   29.0625 C.ar    1  UNL1        0.0010
     32 C           0.5463    1.1688   29.6670 C.ar    1  UNL1        0.0114
     33 C          -0.6033    0.7686   28.7905 C.ar    1  UNL1        0.0578
     34 CL         -1.8239    0.1401   29.3948 Cl      1  UNL1       -0.0822
     35 C          -0.5323    0.9967   27.3096 C.ar    1  UNL1        0.0159
@<TRIPOS>BOND
     1    12    13    1
     2    13     6    1
     3     6     7   ar
     4     7     8   ar
     5     8     9   ar
     6     1     9    1
     7     1     2    1
     8     2     3    1
     9     3    14    1
    10    14    15    1
    11    15    16    1
    12    16    17    1
    13    17    18    1
    14    18    19    1
    15    19    20    1
    16    20    21    1
    17    21    22    1
    18     3     4    1
    19     4     5    1
    20     5    24    1
    21    24    25    1
    22    25    26   am
    23    26    27    2
    24    26    29    1
    25    29    30   ar
    26    30    31   ar
    27    31    32   ar
    28    32    33   ar
    29    33    34    1
    30    33    35   ar
    31     9    10   ar
    32    10    11   ar
    33    11     6   ar
    34     5     1    1
    35    35    29   ar
    36    22    17    1
    37    20    23    1
    38    25    28    1
@<TRIPOS>MOLECULE
*****
 35 38 0 0 0
SMALL
GASTEIGER

@<TRIPOS>ATOM
      1 C           0.6221    2.4678   19.0281 C.3     1  UNL1        0.0413
      2 C          -0.2792    3.2399   18.1108 C.3     1  UNL1        0.0765
      3 N          -1.4788    3.6763   18.8985 N.3     1  UNL1       -0.2723
      4 C          -1.3189    3.1738   20.3028 C.3     1  UNL1        0.0741
      5 C          -0.0205    2.4270   20.3829 C.3     1  UNL1        0.0410
      6 C           4.5619    0.6018   17.9120 C.ar    1  UNL1        0.1387
      7 C           3.2815   -0.1316   17.6425 C.ar    1  UNL1        0.0366
      8 C           1.9683    0.4904   18.0145 C.ar    1  UNL1       -0.0011
      9 C           1.9354    1.8458   18.6561 C.ar    1  UNL1       -0.0209
     10 C           3.2157    2.5792   18.9257 C.ar    1  UNL1       -0.0011
     11 C           4.5290    1.9572   18.5536 C.ar    1  UNL1        0.0366
     12 C           6.8336    0.7227   16.6572 C.3     1  UNL1        0.2525
     13 O           5.8752   -0.0202   17.5400 O.3     1  UNL1       -0.4714
     14 C          -2.6352    4.4748   18.3740 C.3     1  UNL1        0.0721
     15 C          -3.7810    4.8186   19.2790 C.3     1  UNL1        0.0173
     16 C          -4.7411    3.7507   19.7121 C.3     1  UNL1        0.0015
     17 C          -5.2788    3.7487   21.1126 C.3     1  UNL1        0.0028
     18 C          -6.5967    4.3999   21.4108 C.3     1  UNL1        0.0171
     19 C          -7.1343    4.3979   22.8112 C.3     1  UNL1        0.0686
     20 N          -6.3540    3.7447   23.9132 N.3     1  UNL1       -0.2975
     21 C          -5.0361    3.0935   23.6149 C.3     1  UNL1        0.0686
     22 C          -4.4985    3.0955   22.2145 C.3     1  UNL1        0.0171
     23 H          -6.9552    3.0237   24.3122 H       1  UNL1        0.1232
     24 C           0.5373    1.7570   21.6035 C.3     1  UNL1        0.0914
     25 N           1.2043    0.4187   21.4858 N.am    1  UNL1       -0.3008
     26 C           2.6329    0.2526   21.9117 C.2     1  UNL1        0.2459
     27 O           3.3946    1.4248   22.4554 O.2     1  UNL1       -0.2701
     28 H           0.7044   -0.3507   21.1290 H       1  UNL1        0.1497
     29 C           3.2999   -1.0858   21.7939 C.ar    1  UNL1        0.0542
     30 C           3.1691   -1.8802   20.5283 C.ar    1  UNL1        0.0046
     31 C           3.8361   -3.2186   20.4105 C.ar    1  UNL1        0.0010
     32 C           4.6337   -3.7627   21.5583 C.ar    1  UNL1        0.0114
     33 C           4.7645   -2.9683   22.8240 C.ar    1  UNL1        0.0578
     34 CL          5.5622   -3.5124   23.9720 Cl      1  UNL1       -0.0822
     35 C           4.0975   -1.6299   22.9418 C.ar    1  UNL1        0.0159
@<TRIPOS>BOND
     1    12    13    1
     2    13     6    1
     3     6     7   ar
     4     7     8   ar
     5     8     9   ar
     6     1     9    1
     7     1     2    1
     8     2     3    1
     9     3    14    1
    10    14    15    1
    11    15    16    1
    12    16    17    1
    13    17    18    1
    14    18    19    1
    15    19    20    1
    16    20    21    1
    17    21    22    1
    18     3     4    1
    19     4     5    1
    20     5    24    1
    21    24    25    1
    22    25    26   am
    23    26    27    2
    24    26    29    1
    25    29    30   ar
    26    30    31   ar
    27    31    32   ar
    28    32    33   ar
    29    33    34    1
    30    33    35   ar
    31     9    10   ar
    32    10    11   ar
    33    11     6   ar
    34     5     1    1
    35    35    29   ar
    36    22    17    1
    37    20    23    1
    38    25    28    1
@<TRIPOS>MOLECULE
*****
 35 38 0 0 0
SMALL
GASTEIGER

@<TRIPOS>ATOM
      1 C           7.1741   -2.8546   22.2549 C.3     1  UNL1        0.0413
      2 C           8.4167   -2.9965   23.0829 C.3     1  UNL1        0.0765
      3 N           8.0432   -3.6768   24.3666 N.3     1  UNL1       -0.2723
      4 C           6.5697   -3.9552   24.3319 C.3     1  UNL1        0.0741
      5 C           6.0326   -3.4471   23.0268 C.3     1  UNL1        0.0410
      6 C           6.9161   -0.9804   18.1719 C.ar    1  UNL1        0.1387
      7 C           6.9362   -2.4737   18.3118 C.ar    1  UNL1        0.0366
      8 C           7.0222   -3.0984   19.6728 C.ar    1  UNL1       -0.0011
      9 C           7.0881   -2.2298   20.8939 C.ar    1  UNL1       -0.0209
     10 C           7.0680   -0.7365   20.7540 C.ar    1  UNL1       -0.0011
     11 C           6.9820   -0.1118   19.3931 C.ar    1  UNL1        0.0366
     12 C           6.2674    1.0260   16.6541 C.3     1  UNL1        0.2525
     13 O           6.8301   -0.3556   16.8109 O.3     1  UNL1       -0.4714
     14 C           8.9790   -4.0185   25.4881 C.3     1  UNL1        0.0721
     15 C           8.4503   -4.1832   26.8821 C.3     1  UNL1        0.0173
     16 C           8.1344   -5.5521   27.4076 C.3     1  UNL1        0.0015
     17 C           8.1609   -5.8130   28.8846 C.3     1  UNL1        0.0028
     18 C           9.3909   -6.3868   29.5229 C.3     1  UNL1        0.0171
     19 C           9.4173   -6.6476   30.9999 C.3     1  UNL1        0.0686
     20 N           8.2136   -6.3347   31.8384 N.3     1  UNL1       -0.2975
     21 C           6.9835   -5.7610   31.2000 C.3     1  UNL1        0.0686
     22 C           6.9571   -5.5001   29.7231 C.3     1  UNL1        0.0171
     23 H           8.5150   -5.6679   32.5489 H       1  UNL1        0.1232
     24 C           4.6046   -3.5188   22.5733 C.3     1  UNL1        0.0914
     25 N           3.9664   -2.3321   21.9144 N.am    1  UNL1       -0.3008
     26 C           3.4606   -2.4380   20.5062 C.2     1  UNL1        0.2459
     27 O           3.5930   -3.7306   19.7569 O.2     1  UNL1       -0.2701
     28 H           3.8794   -1.4837   22.4062 H       1  UNL1        0.1497
     29 C           2.8223   -1.2512   19.8473 C.ar    1  UNL1        0.0542
     30 C           3.3891   -0.7081   18.5691 C.ar    1  UNL1        0.0046
     31 C           2.7508    0.4787   17.9102 C.ar    1  UNL1        0.0010
     32 C           1.5458    1.1225   18.5295 C.ar    1  UNL1        0.0114
     33 C           0.9791    0.5794   19.8077 C.ar    1  UNL1        0.0578
     34 CL         -0.2260    1.2231   20.4271 Cl      1  UNL1       -0.0822
     35 C           1.6173   -0.6074   20.4666 C.ar    1  UNL1        0.0159
@<TRIPOS>BOND
     1    12    13    1
     2    13     6    1
     3     6     7   ar
     4     7     8   ar
     5     8     9   ar
     6     1     9    1
     7     1     2    1
     8     2     3    1
     9     3    14    1
    10    14    15    1
    11    15    16    1
    12    16    17    1
    13    17    18    1
    14    18    19    1
    15    19    20    1
    16    20    21    1
    17    21    22    1
    18     3     4    1
    19     4     5    1
    20     5    24    1
    21    24    25    1
    22    25    26   am
    23    26    27    2
    24    26    29    1
    25    29    30   ar
    26    30    31   ar
    27    31    32   ar
    28    32    33   ar
    29    33    34    1
    30    33    35   ar
    31     9    10   ar
    32    10    11   ar
    33    11     6   ar
    34     5     1    1
    35    35    29   ar
    36    22    17    1
    37    20    23    1
    38    25    28    1
@<TRIPOS>MOLECULE
*****
 35 38 0 0 0
SMALL
GASTEIGER

@<TRIPOS>ATOM
      1 C           1.6679    1.3997   22.6944 C.3     1  UNL1        0.0413
      2 C           1.1180    2.1142   23.8932 C.3     1  UNL1        0.0765
      3 N          -0.1719    2.7667   23.4928 N.3     1  UNL1       -0.2723
      4 C          -0.4192    2.4555   22.0464 C.3     1  UNL1        0.0741
      5 C           0.7178    1.6107   21.5530 C.3     1  UNL1        0.0410
      6 C           5.4957   -0.9618   22.5478 C.ar    1  UNL1        0.1387
      7 C           4.2150   -1.6332   22.9468 C.ar    1  UNL1        0.0366
      8 C           2.9391   -0.8460   22.9956 C.ar    1  UNL1       -0.0011
      9 C           2.9438    0.6126   22.6455 C.ar    1  UNL1       -0.0209
     10 C           4.2245    1.2839   22.2466 C.ar    1  UNL1       -0.0011
     11 C           5.5004    0.4967   22.1978 C.ar    1  UNL1        0.0366
     12 C           7.3889   -2.0954   21.1766 C.3     1  UNL1        0.2525
     13 O           6.7716   -1.7490   22.4990 O.3     1  UNL1       -0.4714
     14 C          -1.0587    3.5864   24.3825 C.3     1  UNL1        0.0721
     15 C          -1.7382    2.9482   25.5576 C.3     1  UNL1        0.0173
     16 C          -1.1219    3.0415   26.9219 C.3     1  UNL1        0.0015
     17 C          -0.4711    1.8370   27.5349 C.3     1  UNL1        0.0028
     18 C           1.0140    1.6530   27.4319 C.3     1  UNL1        0.0171
     19 C           1.6647    0.4484   28.0449 C.3     1  UNL1        0.0686
     20 N           0.8304   -0.5720   28.7608 N.3     1  UNL1       -0.2975
     21 C          -0.6547   -0.3879   28.8639 C.3     1  UNL1        0.0686
     22 C          -1.3054    0.8166   28.2509 C.3     1  UNL1        0.0171
     23 H           1.1872   -0.6271   29.7148 H       1  UNL1        0.1232
     24 C           0.8769    1.0716   20.1623 C.3     1  UNL1        0.0914
     25 N           1.6131   -0.2155   19.9365 N.am    1  UNL1       -0.3008
     26 C           2.9466   -0.2063   19.2495 C.2     1  UNL1        0.2459
     27 O           3.5437    1.0901   18.7883 O.2     1  UNL1       -0.2701
     28 H           1.2212   -1.0664   20.2392 H       1  UNL1        0.1497
     29 C           3.6828   -1.4936   19.0237 C.ar    1  UNL1        0.0542
     30 C           4.9762   -1.4945   18.2640 C.ar    1  UNL1        0.0046
     31 C           5.7125   -2.7817   18.0382 C.ar    1  UNL1        0.0010
     32 C           5.1554   -4.0680   18.5721 C.ar    1  UNL1        0.0114
     33 C           3.8620   -4.0671   19.3318 C.ar    1  UNL1        0.0578
     34 CL          3.3049   -5.3534   19.8658 Cl      1  UNL1       -0.0822
     35 C           3.1258   -2.7799   19.5576 C.ar    1  UNL1        0.0159
@<TRIPOS>BOND
     1    12    13    1
     2    13     6    1
     3     6     7   ar
     4     7     8   ar
     5     8     9   ar
     6     1     9    1
     7     1     2    1
     8     2     3    1
     9     3    14    1
    10    14    15    1
    11    15    16    1
    12    16    17    1
    13    17    18    1
    14    18    19    1
    15    19    20    1
    16    20    21    1
    17    21    22    1
    18     3     4    1
    19     4     5    1
    20     5    24    1
    21    24    25    1
    22    25    26   am
    23    26    27    2
    24    26    29    1
    25    29    30   ar
    26    30    31   ar
    27    31    32   ar
    28    32    33   ar
    29    33    34    1
    30    33    35   ar
    31     9    10   ar
    32    10    11   ar
    33    11     6   ar
    34     5     1    1
    35    35    29   ar
    36    22    17    1
    37    20    23    1
    38    25    28    1
