@<TRIPOS>MOLECULE
*****
 34 37 0 0 0
SMALL
GASTEIGER

@<TRIPOS>ATOM
      1 N           6.2650   -2.1443   22.7557 N.am    1  UNL1       -0.2438
      2 C           5.5600   -0.8742   22.3816 C.3     1  UNL1        0.1009
      3 C           4.5175   -0.8847   21.3031 C.3     1  UNL1        0.0662
      4 C           4.1800   -2.1653   20.5987 C.3     1  UNL1        0.1600
      5 O           4.8850   -3.4354   20.9727 O.3     1  UNL1       -0.4374
      6 C           5.9274   -3.4249   22.0512 C.2     1  UNL1        0.4051
      7 O           6.6323   -4.6950   22.4252 O.2     1  UNL1       -0.2262
      8 C           3.2451   -1.2267   19.8951 C.ar    1  UNL1        0.0138
      9 C           1.8542   -1.0216   20.4179 C.ar    1  UNL1       -0.0010
     10 C           0.9193   -0.0830   19.7144 C.ar    1  UNL1       -0.0002
     11 C           1.3753    0.6505   18.4879 C.ar    1  UNL1       -0.0000
     12 C           2.7661    0.4454   17.9651 C.ar    1  UNL1       -0.0002
     13 C           3.7011   -0.4932   18.6686 C.ar    1  UNL1       -0.0010
     14 C           7.3074   -2.1339   23.8341 C.3     1  UNL1        0.1011
     15 C           8.7621   -2.1810   23.4715 C.3     1  UNL1        0.0265
     16 C           6.0706   -1.9612   28.1574 C.ar    1  UNL1        0.0194
     17 C           6.2886   -0.6919   27.3884 C.ar    1  UNL1        0.0013
     18 C           6.7008   -0.7495   25.9473 C.ar    1  UNL1       -0.0026
     19 C           6.8951   -2.0763   25.2752 C.ar    1  UNL1       -0.0042
     20 C           6.6771   -3.3456   26.0442 C.ar    1  UNL1       -0.0026
     21 C           6.2649   -3.2880   27.4853 C.ar    1  UNL1        0.0013
     22 C           4.4215   -1.7309   33.9217 C.3     1  UNL1        0.0540
     23 C           4.8338   -1.7885   32.4806 C.ar    1  UNL1        0.0809
     24 C           5.8944   -2.7541   32.0420 C.ar    1  UNL1        0.0181
     25 C           6.3067   -2.8117   30.6009 C.ar    1  UNL1        0.0222
     26 C           5.6583   -1.9036   29.5985 C.ar    1  UNL1        0.1029
     27 N           4.5976   -0.9380   30.0371 N.ar    1  UNL1       -0.1483
     28 N           4.1854   -0.8804   31.4782 N.ar    1  UNL1       -0.1524
     29 C           3.5178   -3.1199   19.6499 C.3     1  UNL1        0.0714
     30 C           4.2497   -4.3440   19.1850 C.3     1  UNL1        0.0922
     31 C           5.2204   -3.4793   18.4365 C.3     1  UNL1        0.0294
     32 C           3.2790   -5.2086   19.9335 C.3     1  UNL1        0.0294
     33 O           4.9815   -5.5680   18.7201 O.3     1  UNL1       -0.3866
     34 H           5.7311   -5.3048   18.1635 H       1  UNL1        0.2102
@<TRIPOS>BOND
     1    22    23    1
     2    23    24   ar
     3    24    25   ar
     4    25    26   ar
     5    26    16    1
     6    16    17   ar
     7    17    18   ar
     8    18    19   ar
     9    19    14    1
    10    14    15    1
    11    14     1    1
    12     1     2    1
    13     2     3    1
    14     3     4    1
    15     4    29    1
    16    29    30    1
    17    30    31    1
    18    30    32    1
    19    30    33    1
    20     4     8    1
    21     8     9   ar
    22     9    10   ar
    23    10    11   ar
    24    11    12   ar
    25    12    13   ar
    26     4     5    1
    27     5     6    1
    28     6     7    2
    29    19    20   ar
    30    20    21   ar
    31    26    27   ar
    32    27    28   ar
    33    28    23   ar
    34    21    16   ar
    35     6     1   am
    36    13     8   ar
    37    33    34    1
@<TRIPOS>MOLECULE
*****
 34 37 0 0 0
SMALL
GASTEIGER

@<TRIPOS>ATOM
      1 N          -1.9794    4.8537   19.8820 N.am    1  UNL1       -0.2438
      2 C          -2.2982    5.2978   21.2789 C.3     1  UNL1        0.1009
      3 C          -3.7144    5.2634   21.7720 C.3     1  UNL1        0.0662
      4 C          -4.8118    4.7849   20.8683 C.3     1  UNL1        0.1600
      5 O          -4.4931    4.3408   19.4715 O.3     1  UNL1       -0.4374
      6 C          -3.0769    4.3752   18.9783 C.2     1  UNL1        0.4051
      7 O          -2.7581    3.9310   17.5815 O.2     1  UNL1       -0.2262
      8 C          -5.6077    5.1010   22.0998 C.ar    1  UNL1        0.0138
      9 C          -6.6366    4.1297   22.5977 C.ar    1  UNL1       -0.0010
     10 C          -7.4325    4.4458   23.8292 C.ar    1  UNL1       -0.0002
     11 C          -7.1994    5.7332   24.5629 C.ar    1  UNL1       -0.0000
     12 C          -6.1706    6.7045   24.0651 C.ar    1  UNL1       -0.0002
     13 C          -5.3746    6.3885   22.8335 C.ar    1  UNL1       -0.0010
     14 C          -0.5632    4.8881   19.3889 C.3     1  UNL1        0.1011
     15 C           0.0624    6.1933   18.9954 C.3     1  UNL1        0.0265
     16 C           1.8084    1.0754   19.0898 C.ar    1  UNL1        0.0194
     17 C           0.5287    1.1033   19.8718 C.ar    1  UNL1        0.0013
     18 C          -0.2619    2.3742   19.9715 C.ar    1  UNL1       -0.0026
     19 C           0.2273    3.6172   19.2892 C.ar    1  UNL1       -0.0042
     20 C           1.5070    3.5893   18.5072 C.ar    1  UNL1       -0.0026
     21 C           2.2975    2.3184   18.4075 C.ar    1  UNL1        0.0013
     22 C           4.9705   -4.0081   18.6911 C.3     1  UNL1        0.0540
     23 C           4.1800   -2.7372   18.7908 C.ar    1  UNL1        0.0809
     24 C           3.3309   -2.4749   19.9992 C.ar    1  UNL1        0.0181
     25 C           2.5404   -1.2040   20.0989 C.ar    1  UNL1        0.0222
     26 C           2.5989   -0.1954   18.9902 C.ar    1  UNL1        0.1029
     27 N           3.4480   -0.4577   17.7818 N.ar    1  UNL1       -0.1483
     28 N           4.2385   -1.7286   17.6821 N.ar    1  UNL1       -0.1524
     29 C          -6.1857    4.4162   20.3923 C.3     1  UNL1        0.0714
     30 C          -6.5847    4.6859   18.9717 C.3     1  UNL1        0.0922
     31 C          -6.5181    6.1615   19.2332 C.3     1  UNL1        0.0294
     32 C          -6.6513    3.2104   18.7102 C.3     1  UNL1        0.0294
     33 O          -6.9838    4.9557   17.5511 O.3     1  UNL1       -0.3866
     34 H          -7.0292    5.9135   17.4043 H       1  UNL1        0.2102
@<TRIPOS>BOND
     1    22    23    1
     2    23    24   ar
     3    24    25   ar
     4    25    26   ar
     5    26    16    1
     6    16    17   ar
     7    17    18   ar
     8    18    19   ar
     9    19    14    1
    10    14    15    1
    11    14     1    1
    12     1     2    1
    13     2     3    1
    14     3     4    1
    15     4    29    1
    16    29    30    1
    17    30    31    1
    18    30    32    1
    19    30    33    1
    20     4     8    1
    21     8     9   ar
    22     9    10   ar
    23    10    11   ar
    24    11    12   ar
    25    12    13   ar
    26     4     5    1
    27     5     6    1
    28     6     7    2
    29    19    20   ar
    30    20    21   ar
    31    26    27   ar
    32    27    28   ar
    33    28    23   ar
    34    21    16   ar
    35     6     1   am
    36    13     8   ar
    37    33    34    1
@<TRIPOS>MOLECULE
*****
 34 37 0 0 0
SMALL
GASTEIGER

@<TRIPOS>ATOM
      1 N           7.0475   -1.9861   22.0013 N.am    1  UNL1       -0.2438
      2 C           6.2999   -0.7258   21.6807 C.3     1  UNL1        0.1009
      3 C           5.0382   -0.7874   20.8718 C.3     1  UNL1        0.0662
      4 C           4.5239   -2.1092   20.3836 C.3     1  UNL1        0.1600
      5 O           5.2715   -3.3695   20.7043 O.3     1  UNL1       -0.4374
      6 C           6.5332   -3.3080   21.5131 C.2     1  UNL1        0.4051
      7 O           7.2807   -4.5683   21.8337 O.2     1  UNL1       -0.2262
      8 C           3.4709   -1.1980   19.8262 C.ar    1  UNL1        0.0138
      9 C           2.0691   -1.2589   20.3566 C.ar    1  UNL1       -0.0010
     10 C           1.0160   -0.3478   19.7992 C.ar    1  UNL1       -0.0002
     11 C           1.3646    0.6243   18.7114 C.ar    1  UNL1       -0.0000
     12 C           2.7663    0.6853   18.1809 C.ar    1  UNL1       -0.0002
     13 C           3.8195   -0.2259   18.7383 C.ar    1  UNL1       -0.0010
     14 C           8.3092   -1.9246   22.8101 C.3     1  UNL1        0.1011
     15 C           9.4770   -1.1220   22.3182 C.3     1  UNL1        0.0265
     16 C           8.5910   -4.1480   26.7123 C.ar    1  UNL1        0.0194
     17 C           9.5265   -4.4833   25.5888 C.ar    1  UNL1        0.0013
     18 C           9.4326   -3.7422   24.2881 C.ar    1  UNL1       -0.0026
     19 C           8.4031   -2.6658   24.1109 C.ar    1  UNL1       -0.0042
     20 C           7.4676   -2.3304   25.2344 C.ar    1  UNL1       -0.0026
     21 C           7.5615   -3.0716   26.5351 C.ar    1  UNL1        0.0013
     22 C           8.9667   -7.1125   31.9153 C.3     1  UNL1        0.0540
     23 C           8.8728   -6.3713   30.6146 C.ar    1  UNL1        0.0809
     24 C           8.7352   -7.1295   29.3276 C.ar    1  UNL1        0.0181
     25 C           8.6413   -6.3884   28.0269 C.ar    1  UNL1        0.0222
     26 C           8.6849   -4.8891   28.0131 C.ar    1  UNL1        0.1029
     27 N           8.8225   -4.1310   29.3000 N.ar    1  UNL1       -0.1483
     28 N           8.9164   -4.8721   30.6007 N.ar    1  UNL1       -0.1524
     29 C           3.6440   -3.1146   19.7019 C.3     1  UNL1        0.0714
     30 C           4.2277   -4.3992   19.1927 C.3     1  UNL1        0.0922
     31 C           3.3897   -5.1677   20.1711 C.3     1  UNL1        0.0294
     32 C           5.0657   -3.6306   18.2144 C.3     1  UNL1        0.0294
     33 O           4.8115   -5.6837   18.6836 O.3     1  UNL1       -0.3866
     34 H           4.4264   -6.4292   19.1703 H       1  UNL1        0.2102
@<TRIPOS>BOND
     1    22    23    1
     2    23    24   ar
     3    24    25   ar
     4    25    26   ar
     5    26    16    1
     6    16    17   ar
     7    17    18   ar
     8    18    19   ar
     9    19    14    1
    10    14    15    1
    11    14     1    1
    12     1     2    1
    13     2     3    1
    14     3     4    1
    15     4    29    1
    16    29    30    1
    17    30    31    1
    18    30    32    1
    19    30    33    1
    20     4     8    1
    21     8     9   ar
    22     9    10   ar
    23    10    11   ar
    24    11    12   ar
    25    12    13   ar
    26     4     5    1
    27     5     6    1
    28     6     7    2
    29    19    20   ar
    30    20    21   ar
    31    26    27   ar
    32    27    28   ar
    33    28    23   ar
    34    21    16   ar
    35     6     1   am
    36    13     8   ar
    37    33    34    1
@<TRIPOS>MOLECULE
*****
 34 37 0 0 0
SMALL
GASTEIGER

@<TRIPOS>ATOM
      1 N           1.1756    1.6413   19.5189 N.am    1  UNL1       -0.2438
      2 C           0.8844    0.1750   19.6423 C.3     1  UNL1        0.1009
      3 C           2.0031   -0.7938   19.8877 C.3     1  UNL1        0.0662
      4 C           3.4129   -0.2962   20.0097 C.3     1  UNL1        0.1600
      5 O           3.7041    1.1701   19.8862 O.3     1  UNL1       -0.4374
      6 C           2.5855    2.1388   19.6409 C.2     1  UNL1        0.4051
      7 O           2.8766    3.6051   19.5175 O.2     1  UNL1       -0.2262
      8 C           3.6385   -1.7670   20.1981 C.ar    1  UNL1        0.0138
      9 C           4.1861   -2.2816   21.4963 C.ar    1  UNL1       -0.0010
     10 C           4.4118   -3.7524   21.6848 C.ar    1  UNL1       -0.0002
     11 C           4.0898   -4.7089   20.5751 C.ar    1  UNL1       -0.0000
     12 C           3.5423   -4.1945   19.2769 C.ar    1  UNL1       -0.0002
     13 C           3.3166   -2.7235   19.0883 C.ar    1  UNL1       -0.0010
     14 C           0.0570    2.6100   19.2736 C.3     1  UNL1        0.1011
     15 C          -0.1886    3.1375   17.8911 C.3     1  UNL1        0.0265
     16 C          -2.5621    3.9337   22.6850 C.ar    1  UNL1        0.0194
     17 C          -1.1231    3.5909   22.9335 C.ar    1  UNL1        0.0013
     18 C          -0.2501    3.1497   21.7963 C.ar    1  UNL1       -0.0026
     19 C          -0.8160    3.0512   20.4107 C.ar    1  UNL1       -0.0042
     20 C          -2.2550    3.3940   20.1623 C.ar    1  UNL1       -0.0026
     21 C          -3.1281    3.8353   21.2994 C.ar    1  UNL1        0.0013
     22 C          -6.0542    5.6986   27.2337 C.3     1  UNL1        0.0540
     23 C          -5.1812    5.2574   26.0965 C.ar    1  UNL1        0.0809
     24 C          -4.3169    4.0403   26.2430 C.ar    1  UNL1        0.0181
     25 C          -3.4438    3.5991   25.1059 C.ar    1  UNL1        0.0222
     26 C          -3.4351    4.3749   23.8222 C.ar    1  UNL1        0.1029
     27 N          -4.2995    5.5920   23.6757 N.ar    1  UNL1       -0.1483
     28 N          -5.1725    6.0333   24.8128 N.ar    1  UNL1       -0.1524
     29 C           4.9011   -0.3094   20.1971 C.3     1  UNL1        0.0714
     30 C           5.7597    0.6682   19.4507 C.3     1  UNL1        0.0922
     31 C           5.3282    0.0552   18.1514 C.3     1  UNL1        0.0294
     32 C           6.1912    1.2812   20.7500 C.3     1  UNL1        0.0294
     33 O           6.6184    1.6458   18.7043 O.3     1  UNL1       -0.3866
     34 H           6.5404    1.4828   17.7513 H       1  UNL1        0.2102
@<TRIPOS>BOND
     1    22    23    1
     2    23    24   ar
     3    24    25   ar
     4    25    26   ar
     5    26    16    1
     6    16    17   ar
     7    17    18   ar
     8    18    19   ar
     9    19    14    1
    10    14    15    1
    11    14     1    1
    12     1     2    1
    13     2     3    1
    14     3     4    1
    15     4    29    1
    16    29    30    1
    17    30    31    1
    18    30    32    1
    19    30    33    1
    20     4     8    1
    21     8     9   ar
    22     9    10   ar
    23    10    11   ar
    24    11    12   ar
    25    12    13   ar
    26     4     5    1
    27     5     6    1
    28     6     7    2
    29    19    20   ar
    30    20    21   ar
    31    26    27   ar
    32    27    28   ar
    33    28    23   ar
    34    21    16   ar
    35     6     1   am
    36    13     8   ar
    37    33    34    1
@<TRIPOS>MOLECULE
*****
 34 37 0 0 0
SMALL
GASTEIGER

@<TRIPOS>ATOM
      1 N           2.9948    0.9643   23.0905 N.am    1  UNL1       -0.2438
      2 C           2.9112   -0.5320   23.0267 C.3     1  UNL1        0.1009
      3 C           3.4746   -1.2650   21.8454 C.3     1  UNL1        0.0662
      4 C           4.1215   -0.5017   20.7280 C.3     1  UNL1        0.1600
      5 O           4.2051    0.9946   20.7917 O.3     1  UNL1       -0.4374
      6 C           3.6418    1.7276   21.9729 C.2     1  UNL1        0.4051
      7 O           3.7254    3.2239   22.0367 O.2     1  UNL1       -0.2262
      8 C           4.2819   -1.9018   20.2142 C.ar    1  UNL1        0.0138
      9 C           5.6191   -2.5778   20.2841 C.ar    1  UNL1       -0.0010
     10 C           5.7795   -3.9779   19.7703 C.ar    1  UNL1       -0.0002
     11 C           4.6027   -4.7020   19.1865 C.ar    1  UNL1       -0.0000
     12 C           3.2655   -4.0260   19.1165 C.ar    1  UNL1       -0.0002
     13 C           3.1051   -2.6259   19.6303 C.ar    1  UNL1       -0.0010
     14 C           2.4314    1.6973   24.2717 C.3     1  UNL1        0.1011
     15 C           3.2971    1.9744   25.4649 C.3     1  UNL1        0.0265
     16 C          -1.8555    3.0650   24.2357 C.ar    1  UNL1        0.0194
     17 C          -1.0198    3.1841   22.9958 C.ar    1  UNL1        0.0013
     18 C           0.4092    2.7282   23.0078 C.ar    1  UNL1       -0.0026
     19 C           1.0025    2.1532   24.2597 C.ar    1  UNL1       -0.0042
     20 C           0.1668    2.0340   25.4996 C.ar    1  UNL1       -0.0026
     21 C          -1.2622    2.4899   25.4876 C.ar    1  UNL1        0.0013
     22 C          -7.5715    4.8886   24.1877 C.3     1  UNL1        0.0540
     23 C          -6.1425    4.4327   24.1997 C.ar    1  UNL1        0.0809
     24 C          -5.3726    4.4120   25.4868 C.ar    1  UNL1        0.0181
     25 C          -3.9436    3.9561   25.4988 C.ar    1  UNL1        0.0222
     26 C          -3.2845    3.5209   24.2237 C.ar    1  UNL1        0.1029
     27 N          -4.0544    3.5415   22.9365 N.ar    1  UNL1       -0.1483
     28 N          -5.4834    3.9974   22.9245 N.ar    1  UNL1       -0.1524
     29 C           4.8242   -0.2246   19.4320 C.3     1  UNL1        0.0714
     30 C           4.6197    1.0870   18.7335 C.3     1  UNL1        0.0922
     31 C           3.2205    0.6795   18.3780 C.3     1  UNL1        0.0294
     32 C           6.0189    1.4945   19.0890 C.3     1  UNL1        0.0294
     33 O           4.4152    2.3986   18.0350 O.3     1  UNL1       -0.3866
     34 H           3.5181    2.4329   17.6677 H       1  UNL1        0.2102
@<TRIPOS>BOND
     1    22    23    1
     2    23    24   ar
     3    24    25   ar
     4    25    26   ar
     5    26    16    1
     6    16    17   ar
     7    17    18   ar
     8    18    19   ar
     9    19    14    1
    10    14    15    1
    11    14     1    1
    12     1     2    1
    13     2     3    1
    14     3     4    1
    15     4    29    1
    16    29    30    1
    17    30    31    1
    18    30    32    1
    19    30    33    1
    20     4     8    1
    21     8     9   ar
    22     9    10   ar
    23    10    11   ar
    24    11    12   ar
    25    12    13   ar
    26     4     5    1
    27     5     6    1
    28     6     7    2
    29    19    20   ar
    30    20    21   ar
    31    26    27   ar
    32    27    28   ar
    33    28    23   ar
    34    21    16   ar
    35     6     1   am
    36    13     8   ar
    37    33    34    1
@<TRIPOS>MOLECULE
*****
 34 37 0 0 0
SMALL
GASTEIGER

@<TRIPOS>ATOM
      1 N           6.4036    1.2261   35.7167 N.am    1  UNL1       -0.2438
      2 C           5.6920    0.5985   36.8785 C.3     1  UNL1        0.1009
      3 C           4.3566    1.1254   37.3136 C.3     1  UNL1        0.0662
      4 C           3.7329    2.2799   36.5870 C.3     1  UNL1        0.1600
      5 O           4.4445    2.9076   35.4252 O.3     1  UNL1       -0.4374
      6 C           5.7798    2.3807   34.9901 C.2     1  UNL1        0.4051
      7 O           6.4914    3.0084   33.8283 O.2     1  UNL1       -0.2262
      8 C           2.6775    2.0221   37.6211 C.ar    1  UNL1        0.0138
      9 C           2.5590    0.6655   38.2500 C.ar    1  UNL1       -0.0010
     10 C           1.5035    0.4077   39.2841 C.ar    1  UNL1       -0.0002
     11 C           0.5664    1.5066   39.6894 C.ar    1  UNL1       -0.0000
     12 C           0.6847    2.8632   39.0606 C.ar    1  UNL1       -0.0002
     13 C           1.7403    3.1211   38.0264 C.ar    1  UNL1       -0.0010
     14 C           7.7388    0.6993   35.2816 C.3     1  UNL1        0.1011
     15 C           8.9981    1.3105   35.8206 C.3     1  UNL1        0.0265
     16 C           7.9669   -2.7150   32.3591 C.ar    1  UNL1        0.0194
     17 C           6.6496   -2.0547   32.6397 C.ar    1  UNL1        0.0013
     18 C           6.5736   -0.9166   33.6139 C.ar    1  UNL1       -0.0026
     19 C           7.8149   -0.4388   34.3074 C.ar    1  UNL1       -0.0042
     20 C           9.1321   -1.0992   34.0268 C.ar    1  UNL1       -0.0026
     21 C           9.2081   -2.2373   33.0527 C.ar    1  UNL1        0.0013
     22 C           8.2709   -7.2674   28.4626 C.3     1  UNL1        0.0540
     23 C           8.1949   -6.1293   29.4367 C.ar    1  UNL1        0.0809
     24 C           6.8811   -5.4563   29.7027 C.ar    1  UNL1        0.0181
     25 C           6.8051   -4.3182   30.6769 C.ar    1  UNL1        0.0222
     26 C           8.0429   -3.8531   31.3850 C.ar    1  UNL1        0.1029
     27 N           9.3567   -4.5262   31.1190 N.ar    1  UNL1       -0.1483
     28 N           9.4327   -5.6643   30.1448 N.ar    1  UNL1       -0.1524
     29 C           2.7427    3.3450   36.2195 C.3     1  UNL1        0.0714
     30 C           2.6250    3.8004   34.7951 C.3     1  UNL1        0.0922
     31 C           3.0925    5.1688   35.1940 C.3     1  UNL1        0.0294
     32 C           2.1576    2.4320   34.3962 C.3     1  UNL1        0.0294
     33 O           2.5074    4.2558   33.3707 O.3     1  UNL1       -0.3866
     34 H           2.7670    5.1882   33.3069 H       1  UNL1        0.2102
@<TRIPOS>BOND
     1    22    23    1
     2    23    24   ar
     3    24    25   ar
     4    25    26   ar
     5    26    16    1
     6    16    17   ar
     7    17    18   ar
     8    18    19   ar
     9    19    14    1
    10    14    15    1
    11    14     1    1
    12     1     2    1
    13     2     3    1
    14     3     4    1
    15     4    29    1
    16    29    30    1
    17    30    31    1
    18    30    32    1
    19    30    33    1
    20     4     8    1
    21     8     9   ar
    22     9    10   ar
    23    10    11   ar
    24    11    12   ar
    25    12    13   ar
    26     4     5    1
    27     5     6    1
    28     6     7    2
    29    19    20   ar
    30    20    21   ar
    31    26    27   ar
    32    27    28   ar
    33    28    23   ar
    34    21    16   ar
    35     6     1   am
    36    13     8   ar
    37    33    34    1
@<TRIPOS>MOLECULE
*****
 34 37 0 0 0
SMALL
GASTEIGER

@<TRIPOS>ATOM
      1 N         -16.3479    2.1219   20.1869 N.am    1  UNL1       -0.2438
      2 C         -17.0813    2.0432   21.4930 C.3     1  UNL1        0.1009
      3 C         -16.9429    3.1475   22.4987 C.3     1  UNL1        0.0662
      4 C         -16.0710    4.3305   22.1983 C.3     1  UNL1        0.1600
      5 O         -15.3375    4.4092   20.8922 O.3     1  UNL1       -0.4374
      6 C         -15.4759    3.3050   19.8866 C.2     1  UNL1        0.4051
      7 O         -14.7424    3.3837   18.5805 O.2     1  UNL1       -0.2262
      8 C         -16.5607    4.7081   23.5648 C.ar    1  UNL1        0.0138
      9 C         -15.5802    5.0880   24.6345 C.ar    1  UNL1       -0.0010
     10 C         -16.0700    5.4657   26.0011 C.ar    1  UNL1       -0.0002
     11 C         -17.5403    5.4635   26.2980 C.ar    1  UNL1       -0.0000
     12 C         -18.5208    5.0836   25.2284 C.ar    1  UNL1       -0.0002
     13 C         -18.0311    4.7059   23.8618 C.ar    1  UNL1       -0.0010
     14 C         -16.4863    1.0177   19.1813 C.3     1  UNL1        0.1011
     15 C         -17.6229    1.0327   18.2026 C.3     1  UNL1        0.0265
     16 C         -13.4917   -2.3403   19.1002 C.ar    1  UNL1        0.0194
     17 C         -13.3462   -1.1827   18.1574 C.ar    1  UNL1        0.0013
     18 C         -14.3444   -0.0634   18.1845 C.ar    1  UNL1       -0.0026
     19 C         -15.4881   -0.1016   19.1542 C.ar    1  UNL1       -0.0042
     20 C         -15.6335   -1.2592   20.0970 C.ar    1  UNL1       -0.0026
     21 C         -14.6353   -2.3785   20.0699 C.ar    1  UNL1        0.0013
     22 C          -9.4988   -6.8175   18.9920 C.3     1  UNL1        0.0540
     23 C         -10.4970   -5.6982   19.0191 C.ar    1  UNL1        0.0809
     24 C         -10.0521   -4.2900   18.7567 C.ar    1  UNL1        0.0181
     25 C         -11.0503   -3.1706   18.7838 C.ar    1  UNL1        0.0222
     26 C         -12.4934   -3.4596   19.0731 C.ar    1  UNL1        0.1029
     27 N         -12.9384   -4.8678   19.3355 N.ar    1  UNL1       -0.1483
     28 N         -11.9402   -5.9871   19.3084 N.ar    1  UNL1       -0.1524
     29 C         -15.3691    5.6447   22.3725 C.3     1  UNL1        0.0714
     30 C         -15.2875    6.6090   21.2264 C.3     1  UNL1        0.0922
     31 C         -16.7837    6.6087   21.1196 C.3     1  UNL1        0.0294
     32 C         -13.7913    6.6094   21.3333 C.3     1  UNL1        0.0294
     33 O         -15.2059    7.5734   20.0804 O.3     1  UNL1       -0.3866
     34 H         -16.1005    7.7810   19.7682 H       1  UNL1        0.2102
@<TRIPOS>BOND
     1    22    23    1
     2    23    24   ar
     3    24    25   ar
     4    25    26   ar
     5    26    16    1
     6    16    17   ar
     7    17    18   ar
     8    18    19   ar
     9    19    14    1
    10    14    15    1
    11    14     1    1
    12     1     2    1
    13     2     3    1
    14     3     4    1
    15     4    29    1
    16    29    30    1
    17    30    31    1
    18    30    32    1
    19    30    33    1
    20     4     8    1
    21     8     9   ar
    22     9    10   ar
    23    10    11   ar
    24    11    12   ar
    25    12    13   ar
    26     4     5    1
    27     5     6    1
    28     6     7    2
    29    19    20   ar
    30    20    21   ar
    31    26    27   ar
    32    27    28   ar
    33    28    23   ar
    34    21    16   ar
    35     6     1   am
    36    13     8   ar
    37    33    34    1
@<TRIPOS>MOLECULE
*****
 34 37 0 0 0
SMALL
GASTEIGER

@<TRIPOS>ATOM
      1 N         -16.3334    2.3429   19.7125 N.am    1  UNL1       -0.2438
      2 C         -15.3985    3.4503   20.0991 C.3     1  UNL1        0.1009
      3 C         -15.6789    4.2770   21.3190 C.3     1  UNL1        0.0662
      4 C         -16.8942    3.9962   22.1522 C.3     1  UNL1        0.1600
      5 O         -17.8291    2.8888   21.7656 O.3     1  UNL1       -0.4374
      6 C         -17.5488    2.0621   20.5458 C.2     1  UNL1        0.4051
      7 O         -18.4837    0.9547   20.1592 O.2     1  UNL1       -0.2262
      8 C         -16.3110    5.1447   22.9209 C.ar    1  UNL1        0.0138
      9 C         -17.1607    6.3365   23.2486 C.ar    1  UNL1       -0.0010
     10 C         -16.5775    7.4849   24.0173 C.ar    1  UNL1       -0.0002
     11 C         -15.1445    7.4416   24.4583 C.ar    1  UNL1       -0.0000
     12 C         -14.2946    6.2499   24.1306 C.ar    1  UNL1       -0.0002
     13 C         -14.8778    5.1013   23.3619 C.ar    1  UNL1       -0.0010
     14 C         -16.0531    1.5162   18.4927 C.3     1  UNL1        0.1011
     15 C         -16.7026    1.8633   17.1860 C.3     1  UNL1        0.0265
     16 C         -13.2635   -2.0052   18.7535 C.ar    1  UNL1        0.0194
     17 C         -12.7367   -0.6591   18.3534 C.ar    1  UNL1        0.0013
     18 C         -13.6665    0.5147   18.2664 C.ar    1  UNL1       -0.0026
     19 C         -15.1232    0.3424   18.5797 C.ar    1  UNL1       -0.0042
     20 C         -15.6501   -1.0038   18.9798 C.ar    1  UNL1       -0.0026
     21 C         -14.7203   -2.1776   19.0668 C.ar    1  UNL1        0.0013
     22 C          -9.5441   -6.7005   19.1013 C.3     1  UNL1        0.0540
     23 C         -10.4740   -5.5266   19.0143 C.ar    1  UNL1        0.0809
     24 C          -9.9332   -4.1631   18.7009 C.ar    1  UNL1        0.0181
     25 C         -10.8631   -2.9893   18.6140 C.ar    1  UNL1        0.0222
     26 C         -12.3337   -3.1790   18.8405 C.ar    1  UNL1        0.1029
     27 N         -12.8744   -4.5426   19.1539 N.ar    1  UNL1       -0.1483
     28 N         -11.9445   -5.7164   19.2408 N.ar    1  UNL1       -0.1524
     29 C         -17.9069    4.1143   23.2524 C.3     1  UNL1        0.0714
     30 C         -18.4519    2.8790   23.9058 C.3     1  UNL1        0.0922
     31 C         -17.0547    2.3826   24.1326 C.3     1  UNL1        0.0294
     32 C         -19.8491    3.3754   23.6790 C.3     1  UNL1        0.0294
     33 O         -18.9969    1.6436   24.5593 O.3     1  UNL1       -0.3866
     34 H         -18.2625    1.0747   24.8384 H       1  UNL1        0.2102
@<TRIPOS>BOND
     1    22    23    1
     2    23    24   ar
     3    24    25   ar
     4    25    26   ar
     5    26    16    1
     6    16    17   ar
     7    17    18   ar
     8    18    19   ar
     9    19    14    1
    10    14    15    1
    11    14     1    1
    12     1     2    1
    13     2     3    1
    14     3     4    1
    15     4    29    1
    16    29    30    1
    17    30    31    1
    18    30    32    1
    19    30    33    1
    20     4     8    1
    21     8     9   ar
    22     9    10   ar
    23    10    11   ar
    24    11    12   ar
    25    12    13   ar
    26     4     5    1
    27     5     6    1
    28     6     7    2
    29    19    20   ar
    30    20    21   ar
    31    26    27   ar
    32    27    28   ar
    33    28    23   ar
    34    21    16   ar
    35     6     1   am
    36    13     8   ar
    37    33    34    1
@<TRIPOS>MOLECULE
*****
 34 37 0 0 0
SMALL
GASTEIGER

@<TRIPOS>ATOM
      1 N           8.3836   -4.5549   23.3150 N.am    1  UNL1       -0.2438
      2 C           8.4184   -3.4546   24.3338 C.3     1  UNL1        0.1009
      3 C           8.5025   -3.7869   25.7941 C.3     1  UNL1        0.0662
      4 C           8.5518   -5.2196   26.2356 C.3     1  UNL1        0.1600
      5 O           8.5169   -6.3200   25.2168 O.3     1  UNL1       -0.4374
      6 C           8.4328   -5.9877   23.7565 C.2     1  UNL1        0.4051
      7 O           8.3979   -7.0881   22.7377 O.2     1  UNL1       -0.2262
      8 C           8.6109   -4.5342   27.5684 C.ar    1  UNL1        0.0138
      9 C           9.4759   -5.0905   28.6603 C.ar    1  UNL1       -0.0010
     10 C           9.5350   -4.4050   29.9931 C.ar    1  UNL1       -0.0002
     11 C           8.7290   -3.1631   30.2343 C.ar    1  UNL1       -0.0000
     12 C           7.8639   -2.6068   29.1425 C.ar    1  UNL1       -0.0002
     13 C           7.8048   -3.2922   27.8096 C.ar    1  UNL1       -0.0010
     14 C           8.2995   -4.2226   21.8547 C.3     1  UNL1        0.1011
     15 C           9.3301   -4.7551   20.9038 C.3     1  UNL1        0.0265
     16 C           4.9553   -1.6281   20.3265 C.ar    1  UNL1        0.0194
     17 C           4.6467   -2.9458   20.9733 C.ar    1  UNL1        0.0013
     18 C           5.7614   -3.8107   21.4827 C.ar    1  UNL1       -0.0026
     19 C           7.1848   -3.3578   21.3453 C.ar    1  UNL1       -0.0042
     20 C           7.4934   -2.0401   20.6985 C.ar    1  UNL1       -0.0026
     21 C           6.3787   -1.1753   20.1891 C.ar    1  UNL1        0.0013
     22 C           0.4965    1.8311   18.2889 C.3     1  UNL1        0.0540
     23 C           1.6112    0.9663   18.7983 C.ar    1  UNL1        0.0809
     24 C           1.3147   -0.1597   19.7438 C.ar    1  UNL1        0.0181
     25 C           2.4294   -1.0245   20.2532 C.ar    1  UNL1        0.0222
     26 C           3.8406   -0.7633   19.8171 C.ar    1  UNL1        0.1029
     27 N           4.1371    0.3627   18.8716 N.ar    1  UNL1       -0.1483
     28 N           3.0224    1.2275   18.3622 N.ar    1  UNL1       -0.1524
     29 C           8.6215   -6.4143   27.1400 C.3     1  UNL1        0.0714
     30 C           7.7292   -7.5946   26.8936 C.3     1  UNL1        0.0922
     31 C           6.5297   -6.6944   26.9258 C.3     1  UNL1        0.0294
     32 C           8.9287   -8.4947   26.8614 C.3     1  UNL1        0.0294
     33 O           6.8368   -8.7749   26.6472 O.3     1  UNL1       -0.3866
     34 H           5.9132   -8.4805   26.6137 H       1  UNL1        0.2102
@<TRIPOS>BOND
     1    22    23    1
     2    23    24   ar
     3    24    25   ar
     4    25    26   ar
     5    26    16    1
     6    16    17   ar
     7    17    18   ar
     8    18    19   ar
     9    19    14    1
    10    14    15    1
    11    14     1    1
    12     1     2    1
    13     2     3    1
    14     3     4    1
    15     4    29    1
    16    29    30    1
    17    30    31    1
    18    30    32    1
    19    30    33    1
    20     4     8    1
    21     8     9   ar
    22     9    10   ar
    23    10    11   ar
    24    11    12   ar
    25    12    13   ar
    26     4     5    1
    27     5     6    1
    28     6     7    2
    29    19    20   ar
    30    20    21   ar
    31    26    27   ar
    32    27    28   ar
    33    28    23   ar
    34    21    16   ar
    35     6     1   am
    36    13     8   ar
    37    33    34    1
