@<TRIPOS>MOLECULE
*****
 36 40 0 0 0
SMALL
GASTEIGER

@<TRIPOS>ATOM
      1 C           6.6299   -4.0098   26.1114 C.3     1  UNL1        0.0933
      2 C           6.7655   -2.8486   27.0513 C.3     1  UNL1        0.0442
      3 C           6.8532   -3.0866   28.5297 C.3     1  UNL1        0.0953
      4 N           6.8053   -4.4858   29.0683 N.am    1  UNL1       -0.2794
      5 C           6.8930   -4.7238   30.5467 C.2     1  UNL1        0.2252
      6 O           6.8451   -6.1229   31.0852 O.2     1  UNL1       -0.2749
      7 C           6.6697   -5.6469   28.1284 C.3     1  UNL1        0.0953
      8 C           6.5820   -5.4089   26.6500 C.3     1  UNL1        0.0442
      9 N           5.8247   -2.9458   22.4666 N.ar    1  UNL1       -0.2785
     10 C           5.5481   -2.8879   23.9397 C.ar    1  UNL1        0.3315
     11 O           4.4673   -2.0868   24.6031 O.2     1  UNL1       -0.2463
     12 N           6.5421   -3.7718   24.6330 N.ar    1  UNL1       -0.2817
     13 C           7.4330   -4.3760   23.5884 C.ar    1  UNL1        0.0796
     14 C           8.5907   -5.3250   23.6833 C.ar    1  UNL1        0.0188
     15 C           9.3050   -5.7636   22.4394 C.ar    1  UNL1        0.0016
     16 C           8.8616   -5.2530   21.1005 C.ar    1  UNL1        0.0016
     17 C           7.7039   -4.3040   21.0055 C.ar    1  UNL1        0.0188
     18 C           6.9896   -3.8655   22.2494 C.ar    1  UNL1        0.0797
     19 C           5.0691   -2.2127   21.3982 C.3     1  UNL1        0.1278
     20 C           4.1766   -2.9676   20.4583 C.3     1  UNL1        0.0971
     21 C           5.5146   -2.6832   18.2495 C.3     1  UNL1        0.0897
     22 N           4.7389   -3.5507   19.1958 N.3     1  UNL1       -0.2687
     23 C           4.5253   -5.0014   18.8796 C.3     1  UNL1        0.0897
     24 C           7.0287   -3.5626   31.4864 C.3     1  UNL1        0.0795
     25 C           8.3897   -3.0954   31.9100 C.3     1  UNL1        0.0264
     26 C           8.5252   -1.9341   32.8498 C.3     1  UNL1        0.0729
     27 N           7.2998   -1.2401   33.3660 N.3     1  UNL1       -0.2689
     28 C           5.9387   -1.7072   32.9425 C.3     1  UNL1        0.0729
     29 C           5.8032   -2.8684   32.0027 C.3     1  UNL1        0.0264
     30 C           7.4354   -0.0789   34.3058 C.3     1  UNL1        0.0992
     31 C           6.2298    0.4476   35.0264 C.ar    1  UNL1       -0.0031
     32 C           5.8009   -0.1725   36.3231 C.ar    1  UNL1        0.0178
     33 C           4.5953    0.3540   37.0437 C.ar    1  UNL1        0.0986
     34 N           3.8186    1.5006   36.4676 N.ar    1  UNL1       -0.2423
     35 C           4.2475    2.1208   35.1709 C.ar    1  UNL1        0.0986
     36 C           5.4531    1.5943   34.4503 C.ar    1  UNL1        0.0178
@<TRIPOS>BOND
     1    21    22    1
     2    22    23    1
     3    22    20    1
     4    20    19    1
     5    19     9    1
     6     9    10   ar
     7    10    11    2
     8    10    12   ar
     9    12     1    1
    10     1     2    1
    11     2     3    1
    12     3     4    1
    13     4     5   am
    14     5     6    2
    15     5    24    1
    16    24    25    1
    17    25    26    1
    18    26    27    1
    19    27    30    1
    20    30    31    1
    21    31    32   ar
    22    32    33   ar
    23    33    34   ar
    24    34    35   ar
    25    35    36   ar
    26    27    28    1
    27    28    29    1
    28     4     7    1
    29     7     8    1
    30    12    13   ar
    31    13    14   ar
    32    14    15   ar
    33    15    16   ar
    34    16    17   ar
    35    17    18   ar
    36    18     9   ar
    37     8     1    1
    38    18    13   ar
    39    29    24    1
    40    36    31   ar
@<TRIPOS>MOLECULE
*****
 36 40 0 0 0
SMALL
GASTEIGER

@<TRIPOS>ATOM
      1 C           1.7434    0.8136   19.6619 C.3     1  UNL1        0.0933
      2 C           0.5925    0.8350   20.6238 C.3     1  UNL1        0.0442
      3 C          -0.4270    1.9327   20.5493 C.3     1  UNL1        0.0953
      4 N          -0.2957    3.0091   19.5129 N.am    1  UNL1       -0.2794
      5 C          -1.3152    4.1069   19.4384 C.2     1  UNL1        0.2252
      6 O          -1.1839    5.1833   18.4020 O.2     1  UNL1       -0.2749
      7 C           0.8551    2.9878   18.5511 C.3     1  UNL1        0.0953
      8 C           1.8746    1.8900   18.6256 C.3     1  UNL1        0.0442
      9 N           4.3933   -1.9669   19.1037 N.ar    1  UNL1       -0.2785
     10 C           3.4618   -0.9189   18.5708 C.ar    1  UNL1        0.3315
     11 O           3.2639   -0.5675   17.1261 O.2     1  UNL1       -0.2463
     12 N           2.7629   -0.2841   19.7364 N.ar    1  UNL1       -0.2817
     13 C           3.2625   -0.9398   20.9896 C.ar    1  UNL1        0.0796
     14 C           2.9300   -0.7241   22.4363 C.ar    1  UNL1        0.0188
     15 C           3.6053   -1.5485   23.4919 C.ar    1  UNL1        0.0016
     16 C           4.6129   -2.5886   23.1009 C.ar    1  UNL1        0.0016
     17 C           4.9454   -2.8042   21.6542 C.ar    1  UNL1        0.0188
     18 C           4.2701   -1.9798   20.5986 C.ar    1  UNL1        0.0797
     19 C           5.2905   -2.8475   18.2854 C.3     1  UNL1        0.1278
     20 C           6.6593   -2.3713   17.8988 C.3     1  UNL1        0.0971
     21 C           6.9230    0.1893   17.5468 C.3     1  UNL1        0.0897
     22 N           7.1527   -1.0382   18.3778 N.3     1  UNL1       -0.2687
     23 C           7.8757   -0.9326   19.6877 C.3     1  UNL1        0.0897
     24 C          -2.4659    4.1282   20.4003 C.3     1  UNL1        0.0795
     25 C          -2.4417    5.0563   21.5784 C.3     1  UNL1        0.0264
     26 C          -3.5925    5.0775   22.5404 C.3     1  UNL1        0.0729
     27 N          -4.7676    4.1706   22.3241 N.3     1  UNL1       -0.2689
     28 C          -4.7918    3.2425   21.1460 C.3     1  UNL1        0.0729
     29 C          -3.6410    3.2212   20.1842 C.3     1  UNL1        0.0264
     30 C          -5.9183    4.1919   23.2860 C.3     1  UNL1        0.0992
     31 C          -5.6908    4.5707   24.7195 C.ar    1  UNL1       -0.0031
     32 C          -6.5241    5.6453   25.3526 C.ar    1  UNL1        0.0178
     33 C          -6.2966    6.0241   26.7860 C.ar    1  UNL1        0.0986
     34 N          -5.2358    5.3284   27.5863 N.ar    1  UNL1       -0.2423
     35 C          -4.4024    4.2538   26.9532 C.ar    1  UNL1        0.0986
     36 C          -4.6299    3.8750   25.5198 C.ar    1  UNL1        0.0178
@<TRIPOS>BOND
     1    21    22    1
     2    22    23    1
     3    22    20    1
     4    20    19    1
     5    19     9    1
     6     9    10   ar
     7    10    11    2
     8    10    12   ar
     9    12     1    1
    10     1     2    1
    11     2     3    1
    12     3     4    1
    13     4     5   am
    14     5     6    2
    15     5    24    1
    16    24    25    1
    17    25    26    1
    18    26    27    1
    19    27    30    1
    20    30    31    1
    21    31    32   ar
    22    32    33   ar
    23    33    34   ar
    24    34    35   ar
    25    35    36   ar
    26    27    28    1
    27    28    29    1
    28     4     7    1
    29     7     8    1
    30    12    13   ar
    31    13    14   ar
    32    14    15   ar
    33    15    16   ar
    34    16    17   ar
    35    17    18   ar
    36    18     9   ar
    37     8     1    1
    38    18    13   ar
    39    29    24    1
    40    36    31   ar
@<TRIPOS>MOLECULE
*****
 36 40 0 0 0
SMALL
GASTEIGER

@<TRIPOS>ATOM
      1 C           8.2593   -3.8899   24.2136 C.3     1  UNL1        0.0933
      2 C           7.0185   -3.2440   23.6719 C.3     1  UNL1        0.0442
      3 C           6.9586   -2.8239   22.2332 C.3     1  UNL1        0.0953
      4 N           8.1394   -3.0497   21.3361 N.am    1  UNL1       -0.2794
      5 C           8.0795   -2.6296   19.8974 C.2     1  UNL1        0.2252
      6 O           9.2603   -2.8554   19.0003 O.2     1  UNL1       -0.2749
      7 C           9.3801   -3.6955   21.8778 C.3     1  UNL1        0.0953
      8 C           9.4400   -4.1156   23.3166 C.3     1  UNL1        0.0442
      9 N           8.3936   -4.2369   28.0771 N.ar    1  UNL1       -0.2785
     10 C           8.3256   -3.3926   26.8391 C.ar    1  UNL1        0.3315
     11 O           8.2732   -1.8942   26.7956 O.2     1  UNL1       -0.2463
     12 N           8.3192   -4.3099   25.6524 N.ar    1  UNL1       -0.2817
     13 C           8.3833   -5.7211   26.1569 C.ar    1  UNL1        0.0796
     14 C           8.4057   -7.0414   25.4453 C.ar    1  UNL1        0.0188
     15 C           8.4741   -8.3164   26.2323 C.ar    1  UNL1        0.0016
     16 C           8.5200   -8.2713   27.7309 C.ar    1  UNL1        0.0016
     17 C           8.4976   -6.9510   28.4425 C.ar    1  UNL1        0.0188
     18 C           8.4293   -5.6759   27.6555 C.ar    1  UNL1        0.0797
     19 C           8.4211   -3.7309   29.4889 C.3     1  UNL1        0.1278
     20 C           7.1430   -3.3445   30.1723 C.3     1  UNL1        0.0971
     21 C           5.9427   -3.3608   32.4764 C.3     1  UNL1        0.0897
     22 N           6.6949   -4.0833   31.3984 N.3     1  UNL1       -0.2687
     23 C           6.9990   -5.5447   31.5465 C.3     1  UNL1        0.0897
     24 C           6.8387   -1.9838   19.3558 C.3     1  UNL1        0.0795
     25 C           6.6412   -0.5035   19.4961 C.3     1  UNL1        0.0264
     26 C           5.4003    0.1423   18.9544 C.3     1  UNL1        0.0729
     27 N           4.3570   -0.6923   18.2724 N.3     1  UNL1       -0.2689
     28 C           4.5545   -2.1726   18.1321 C.3     1  UNL1        0.0729
     29 C           5.7953   -2.8183   18.6738 C.3     1  UNL1        0.0264
     30 C           3.1163   -0.0465   17.7308 C.3     1  UNL1        0.0992
     31 C           2.0148    0.3617   18.6636 C.ar    1  UNL1       -0.0031
     32 C           1.6130   -0.5425   19.7910 C.ar    1  UNL1        0.0178
     33 C           0.5115   -0.1343   20.7238 C.ar    1  UNL1        0.0986
     34 N          -0.1881    1.1782   20.5292 N.ar    1  UNL1       -0.2423
     35 C           0.2137    2.0825   19.4019 C.ar    1  UNL1        0.0986
     36 C           1.3152    1.6742   18.4691 C.ar    1  UNL1        0.0178
@<TRIPOS>BOND
     1    21    22    1
     2    22    23    1
     3    22    20    1
     4    20    19    1
     5    19     9    1
     6     9    10   ar
     7    10    11    2
     8    10    12   ar
     9    12     1    1
    10     1     2    1
    11     2     3    1
    12     3     4    1
    13     4     5   am
    14     5     6    2
    15     5    24    1
    16    24    25    1
    17    25    26    1
    18    26    27    1
    19    27    30    1
    20    30    31    1
    21    31    32   ar
    22    32    33   ar
    23    33    34   ar
    24    34    35   ar
    25    35    36   ar
    26    27    28    1
    27    28    29    1
    28     4     7    1
    29     7     8    1
    30    12    13   ar
    31    13    14   ar
    32    14    15   ar
    33    15    16   ar
    34    16    17   ar
    35    17    18   ar
    36    18     9   ar
    37     8     1    1
    38    18    13   ar
    39    29    24    1
    40    36    31   ar
@<TRIPOS>MOLECULE
*****
 36 40 0 0 0
SMALL
GASTEIGER

@<TRIPOS>ATOM
      1 C           6.9185   -4.4553   27.3451 C.3     1  UNL1        0.0933
      2 C           6.7579   -3.1188   28.0070 C.3     1  UNL1        0.0442
      3 C           6.6221   -3.0319   29.4984 C.3     1  UNL1        0.0953
      4 N           6.6470   -4.2815   30.3278 N.am    1  UNL1       -0.2794
      5 C           6.5112   -4.1946   31.8191 C.2     1  UNL1        0.2252
      6 O           6.5360   -5.4442   32.6485 O.2     1  UNL1       -0.2749
      7 C           6.8076   -5.6179   29.6659 C.3     1  UNL1        0.0953
      8 C           6.9433   -5.7048   28.1746 C.3     1  UNL1        0.0442
      9 N           6.8162   -4.0785   23.4834 N.ar    1  UNL1       -0.2785
     10 C           6.4107   -3.6266   24.8551 C.ar    1  UNL1        0.3315
     11 O           5.5185   -2.4633   25.1723 O.2     1  UNL1       -0.2463
     12 N           7.0543   -4.5422   25.8538 N.ar    1  UNL1       -0.2817
     13 C           7.8574   -5.5600   25.0994 C.ar    1  UNL1        0.0796
     14 C           8.7037   -6.7107   25.5572 C.ar    1  UNL1        0.0188
     15 C           9.4028   -7.5748   24.5500 C.ar    1  UNL1        0.0016
     16 C           9.2557   -7.2882   23.0850 C.ar    1  UNL1        0.0016
     17 C           8.4094   -6.1375   22.6272 C.ar    1  UNL1        0.0188
     18 C           7.7103   -5.2734   23.6344 C.ar    1  UNL1        0.0797
     19 C           6.4005   -3.4464   22.1882 C.3     1  UNL1        0.1278
     20 C           4.9757   -3.5433   21.7296 C.3     1  UNL1        0.0971
     21 C           4.1965   -4.0868   19.3114 C.3     1  UNL1        0.0897
     22 N           4.5982   -3.0843   20.3523 N.3     1  UNL1       -0.2687
     23 C           4.6223   -1.6227   20.0160 C.3     1  UNL1        0.0897
     24 C           6.3506   -2.8582   32.4809 C.3     1  UNL1        0.0795
     25 C           4.9803   -2.3426   32.8073 C.3     1  UNL1        0.0264
     26 C           4.8198   -1.0060   33.4691 C.3     1  UNL1        0.0729
     27 N           6.0296   -0.1851   33.8046 N.3     1  UNL1       -0.2689
     28 C           7.3999   -0.7007   33.4782 C.3     1  UNL1        0.0729
     29 C           7.5604   -2.0371   32.8164 C.3     1  UNL1        0.0264
     30 C           5.8690    1.1514   34.4664 C.3     1  UNL1        0.0992
     31 C           4.7196    1.3931   35.3994 C.ar    1  UNL1       -0.0031
     32 C           3.6036    2.3093   34.9931 C.ar    1  UNL1        0.0178
     33 C           2.4543    2.5510   35.9261 C.ar    1  UNL1        0.0986
     34 N           2.4209    1.8764   37.2655 N.ar    1  UNL1       -0.2423
     35 C           3.5369    0.9602   37.6718 C.ar    1  UNL1        0.0986
     36 C           4.6863    0.7185   36.7388 C.ar    1  UNL1        0.0178
@<TRIPOS>BOND
     1    21    22    1
     2    22    23    1
     3    22    20    1
     4    20    19    1
     5    19     9    1
     6     9    10   ar
     7    10    11    2
     8    10    12   ar
     9    12     1    1
    10     1     2    1
    11     2     3    1
    12     3     4    1
    13     4     5   am
    14     5     6    2
    15     5    24    1
    16    24    25    1
    17    25    26    1
    18    26    27    1
    19    27    30    1
    20    30    31    1
    21    31    32   ar
    22    32    33   ar
    23    33    34   ar
    24    34    35   ar
    25    35    36   ar
    26    27    28    1
    27    28    29    1
    28     4     7    1
    29     7     8    1
    30    12    13   ar
    31    13    14   ar
    32    14    15   ar
    33    15    16   ar
    34    16    17   ar
    35    17    18   ar
    36    18     9   ar
    37     8     1    1
    38    18    13   ar
    39    29    24    1
    40    36    31   ar
@<TRIPOS>MOLECULE
*****
 36 40 0 0 0
SMALL
GASTEIGER

@<TRIPOS>ATOM
      1 C           0.2530    2.4914   19.1464 C.3     1  UNL1        0.0933
      2 C          -0.6224    2.6616   20.3526 C.3     1  UNL1        0.0442
      3 C          -1.9122    3.4194   20.2423 C.3     1  UNL1        0.0953
      4 N          -2.3267    4.0070   18.9259 N.am    1  UNL1       -0.2794
      5 C          -3.6165    4.7647   18.8156 C.2     1  UNL1        0.2252
      6 O          -4.0310    5.3523   17.4992 O.2     1  UNL1       -0.2749
      7 C          -1.4513    3.8367   17.7198 C.3     1  UNL1        0.0953
      8 C          -0.1615    3.0790   17.8301 C.3     1  UNL1        0.0442
      9 N           3.1627   -0.0081   19.7394 N.ar    1  UNL1       -0.2785
     10 C           1.7104    0.3568   19.8279 C.ar    1  UNL1        0.3315
     11 O           0.6177   -0.5040   20.3891 O.2     1  UNL1       -0.2463
     12 N           1.5428    1.7336   19.2567 N.ar    1  UNL1       -0.2817
     13 C           2.8914    2.2197   18.8152 C.ar    1  UNL1        0.0796
     14 C           3.3372    3.5034   18.1801 C.ar    1  UNL1        0.0188
     15 C           4.7841    3.7106   17.8432 C.ar    1  UNL1        0.0016
     16 C           5.7852    2.6342   18.1415 C.ar    1  UNL1        0.0016
     17 C           5.3395    1.3505   18.7766 C.ar    1  UNL1        0.0188
     18 C           3.8926    1.1432   19.1135 C.ar    1  UNL1        0.0797
     19 C           3.7771   -1.2978   20.1965 C.3     1  UNL1        0.1278
     20 C           3.4719   -2.5734   19.4688 C.3     1  UNL1        0.0971
     21 C           5.7048   -2.6070   18.1411 C.3     1  UNL1        0.0897
     22 N           4.5762   -3.3401   18.8034 N.3     1  UNL1       -0.2687
     23 C           4.5519   -4.8399   18.8003 C.3     1  UNL1        0.0897
     24 C          -4.4918    4.9349   20.0218 C.3     1  UNL1        0.0795
     25 C          -4.4656    6.2218   20.7920 C.3     1  UNL1        0.0264
     26 C          -5.3410    6.3919   21.9983 C.3     1  UNL1        0.0729
     27 N          -6.2425    5.2751   22.4342 N.3     1  UNL1       -0.2689
     28 C          -6.2687    3.9882   21.6640 C.3     1  UNL1        0.0729
     29 C          -5.3934    3.8181   20.4578 C.3     1  UNL1        0.0264
     30 C          -7.1178    5.4453   23.6404 C.3     1  UNL1        0.0992
     31 C          -6.5147    5.4248   25.0136 C.ar    1  UNL1       -0.0031
     32 C          -7.1348    6.2295   26.1172 C.ar    1  UNL1        0.0178
     33 C          -6.5318    6.2090   27.4905 C.ar    1  UNL1        0.0986
     34 N          -5.3086    5.3837   27.7602 N.ar    1  UNL1       -0.2423
     35 C          -4.6885    4.5790   26.6566 C.ar    1  UNL1        0.0986
     36 C          -5.2915    4.5995   25.2834 C.ar    1  UNL1        0.0178
@<TRIPOS>BOND
     1    21    22    1
     2    22    23    1
     3    22    20    1
     4    20    19    1
     5    19     9    1
     6     9    10   ar
     7    10    11    2
     8    10    12   ar
     9    12     1    1
    10     1     2    1
    11     2     3    1
    12     3     4    1
    13     4     5   am
    14     5     6    2
    15     5    24    1
    16    24    25    1
    17    25    26    1
    18    26    27    1
    19    27    30    1
    20    30    31    1
    21    31    32   ar
    22    32    33   ar
    23    33    34   ar
    24    34    35   ar
    25    35    36   ar
    26    27    28    1
    27    28    29    1
    28     4     7    1
    29     7     8    1
    30    12    13   ar
    31    13    14   ar
    32    14    15   ar
    33    15    16   ar
    34    16    17   ar
    35    17    18   ar
    36    18     9   ar
    37     8     1    1
    38    18    13   ar
    39    29    24    1
    40    36    31   ar
@<TRIPOS>MOLECULE
*****
 36 40 0 0 0
SMALL
GASTEIGER

@<TRIPOS>ATOM
      1 C           6.5323   -3.1614   26.5777 C.3     1  UNL1        0.0933
      2 C           5.6580   -2.3897   25.6341 C.3     1  UNL1        0.0442
      3 C           5.7360   -2.6478   24.1585 C.3     1  UNL1        0.0953
      4 N           6.6881   -3.6775   23.6265 N.am    1  UNL1       -0.2794
      5 C           6.7661   -3.9356   22.1509 C.2     1  UNL1        0.2252
      6 O           7.7182   -4.9654   21.6189 O.2     1  UNL1       -0.2749
      7 C           7.5623   -4.4492   24.5701 C.3     1  UNL1        0.0953
      8 C           7.4844   -4.1911   26.0457 C.3     1  UNL1        0.0442
      9 N           6.1345   -1.7960   30.1892 N.ar    1  UNL1       -0.2785
     10 C           6.0850   -1.6025   28.7025 C.ar    1  UNL1        0.3315
     11 O           5.7288   -0.3314   27.9902 O.2     1  UNL1       -0.2463
     12 N           6.4543   -2.9033   28.0533 N.ar    1  UNL1       -0.2817
     13 C           6.7320   -3.9008   29.1387 C.ar    1  UNL1        0.0796
     14 C           7.1394   -5.3437   29.0955 C.ar    1  UNL1        0.0188
     15 C           7.3490   -6.1023   30.3724 C.ar    1  UNL1        0.0016
     16 C           7.1513   -5.4180   31.6925 C.ar    1  UNL1        0.0016
     17 C           6.7440   -3.9750   31.7356 C.ar    1  UNL1        0.0188
     18 C           6.5343   -3.2164   30.4587 C.ar    1  UNL1        0.0797
     19 C           5.8364   -0.7524   31.2245 C.3     1  UNL1        0.1278
     20 C           4.6088   -0.8718   32.0781 C.3     1  UNL1        0.0971
     21 C           2.6097   -0.5851   30.4435 C.3     1  UNL1        0.0897
     22 N           3.3470   -0.1648   31.6803 N.3     1  UNL1       -0.2687
     23 C           2.8226    0.9625   32.5194 C.3     1  UNL1        0.0897
     24 C           5.8918   -3.1640   21.2075 C.3     1  UNL1        0.0795
     25 C           4.6359   -3.7845   20.6712 C.3     1  UNL1        0.0264
     26 C           3.7617   -3.0127   19.7276 C.3     1  UNL1        0.0729
     27 N           4.1434   -1.6204   19.3204 N.3     1  UNL1       -0.2689
     28 C           5.3993   -0.9999   19.8567 C.3     1  UNL1        0.0729
     29 C           6.2735   -1.7716   20.8002 C.3     1  UNL1        0.0264
     30 C           3.2692   -0.8487   18.3770 C.3     1  UNL1        0.0992
     31 C           2.1871    0.0403   18.9143 C.ar    1  UNL1       -0.0031
     32 C           1.9721    1.4017   18.3225 C.ar    1  UNL1        0.0178
     33 C           0.8900    2.2907   18.8598 C.ar    1  UNL1        0.0986
     34 N           0.0229    1.8182   19.9889 N.ar    1  UNL1       -0.2423
     35 C           0.2379    0.4568   20.5807 C.ar    1  UNL1        0.0986
     36 C           1.3200   -0.4322   20.0434 C.ar    1  UNL1        0.0178
@<TRIPOS>BOND
     1    21    22    1
     2    22    23    1
     3    22    20    1
     4    20    19    1
     5    19     9    1
     6     9    10   ar
     7    10    11    2
     8    10    12   ar
     9    12     1    1
    10     1     2    1
    11     2     3    1
    12     3     4    1
    13     4     5   am
    14     5     6    2
    15     5    24    1
    16    24    25    1
    17    25    26    1
    18    26    27    1
    19    27    30    1
    20    30    31    1
    21    31    32   ar
    22    32    33   ar
    23    33    34   ar
    24    34    35   ar
    25    35    36   ar
    26    27    28    1
    27    28    29    1
    28     4     7    1
    29     7     8    1
    30    12    13   ar
    31    13    14   ar
    32    14    15   ar
    33    15    16   ar
    34    16    17   ar
    35    17    18   ar
    36    18     9   ar
    37     8     1    1
    38    18    13   ar
    39    29    24    1
    40    36    31   ar
@<TRIPOS>MOLECULE
*****
 36 40 0 0 0
SMALL
GASTEIGER

@<TRIPOS>ATOM
      1 C           1.0527    0.8637   22.0321 C.3     1  UNL1        0.0933
      2 C           2.2587    0.4016   22.7951 C.3     1  UNL1        0.0442
      3 C           3.1259   -0.6886   22.2389 C.3     1  UNL1        0.0953
      4 N           2.7871   -1.3168   20.9195 N.am    1  UNL1       -0.2794
      5 C           3.6542   -2.4070   20.3633 C.2     1  UNL1        0.2252
      6 O           3.3155   -3.0352   19.0439 O.2     1  UNL1       -0.2749
      7 C           1.5811   -0.8547   20.1565 C.3     1  UNL1        0.0953
      8 C           0.7140    0.2355   20.7128 C.3     1  UNL1        0.0442
      9 N          -1.1985    3.9400   22.7626 N.ar    1  UNL1       -0.2785
     10 C          -0.4045    3.0937   21.8121 C.ar    1  UNL1        0.3315
     11 O          -0.2311    3.3435   20.3432 O.2     1  UNL1       -0.2463
     12 N           0.1855    1.9539   22.5883 N.ar    1  UNL1       -0.2817
     13 C          -0.2437    2.0957   24.0186 C.ar    1  UNL1        0.0796
     14 C           0.0338    1.2657   25.2368 C.ar    1  UNL1        0.0188
     15 C          -0.5442    1.6632   26.5627 C.ar    1  UNL1        0.0016
     16 C          -1.3996    2.8906   26.6703 C.ar    1  UNL1        0.0016
     17 C          -1.6771    3.7206   25.4522 C.ar    1  UNL1        0.0188
     18 C          -1.0992    3.3232   24.1263 C.ar    1  UNL1        0.0797
     19 C          -1.9585    5.1845   22.4111 C.3     1  UNL1        0.1278
     20 C          -3.4528    5.1417   22.2894 C.3     1  UNL1        0.0971
     21 C          -4.8769    3.1349   23.1231 C.3     1  UNL1        0.0897
     22 N          -4.1463    3.8394   22.0186 N.3     1  UNL1       -0.2687
     23 C          -4.1091    3.2417   20.6434 C.3     1  UNL1        0.0897
     24 C           4.8601   -2.8690   21.1263 C.3     1  UNL1        0.0795
     25 C           4.6918   -3.5792   22.4368 C.3     1  UNL1        0.0264
     26 C           5.8978   -4.0411   23.1999 C.3     1  UNL1        0.0729
     27 N           7.2721   -3.7929   22.6524 N.3     1  UNL1       -0.2689
     28 C           7.4405   -3.0828   21.3420 C.3     1  UNL1        0.0729
     29 C           6.2345   -2.6208   20.5790 C.3     1  UNL1        0.0264
     30 C           8.4780   -4.2549   23.4155 C.3     1  UNL1        0.0992
     31 C           8.3301   -5.2724   24.5076 C.ar    1  UNL1       -0.0031
     32 C           8.2848   -4.8329   25.9411 C.ar    1  UNL1        0.0178
     33 C           8.1368   -5.8505   27.0332 C.ar    1  UNL1        0.0986
     34 N           8.0342   -7.3075   26.6919 N.ar    1  UNL1       -0.2423
     35 C           8.0795   -7.7470   25.2584 C.ar    1  UNL1        0.0986
     36 C           8.2275   -6.7295   24.1663 C.ar    1  UNL1        0.0178
@<TRIPOS>BOND
     1    21    22    1
     2    22    23    1
     3    22    20    1
     4    20    19    1
     5    19     9    1
     6     9    10   ar
     7    10    11    2
     8    10    12   ar
     9    12     1    1
    10     1     2    1
    11     2     3    1
    12     3     4    1
    13     4     5   am
    14     5     6    2
    15     5    24    1
    16    24    25    1
    17    25    26    1
    18    26    27    1
    19    27    30    1
    20    30    31    1
    21    31    32   ar
    22    32    33   ar
    23    33    34   ar
    24    34    35   ar
    25    35    36   ar
    26    27    28    1
    27    28    29    1
    28     4     7    1
    29     7     8    1
    30    12    13   ar
    31    13    14   ar
    32    14    15   ar
    33    15    16   ar
    34    16    17   ar
    35    17    18   ar
    36    18     9   ar
    37     8     1    1
    38    18    13   ar
    39    29    24    1
    40    36    31   ar
@<TRIPOS>MOLECULE
*****
 36 40 0 0 0
SMALL
GASTEIGER

@<TRIPOS>ATOM
      1 C          -1.8081    3.7556   21.2431 C.3     1  UNL1        0.0933
      2 C          -0.8475    2.6095   21.3613 C.3     1  UNL1        0.0442
      3 C           0.3608    2.5491   20.4745 C.3     1  UNL1        0.0953
      4 N           0.6086    3.6348   19.4696 N.am    1  UNL1       -0.2794
      5 C           1.8170    3.5744   18.5829 C.2     1  UNL1        0.2252
      6 O           2.0648    4.6601   17.5780 O.2     1  UNL1       -0.2749
      7 C          -0.3519    4.7808   19.3515 C.3     1  UNL1        0.0953
      8 C          -1.5602    4.8412   20.2382 C.3     1  UNL1        0.0442
      9 N          -5.3172    3.9550   22.8898 N.ar    1  UNL1       -0.2785
     10 C          -4.4408    3.9261   21.6728 C.ar    1  UNL1        0.3315
     11 O          -4.9070    3.9952   20.2487 O.2     1  UNL1       -0.2463
     12 N          -3.0164    3.8160   22.1298 N.ar    1  UNL1       -0.2817
     13 C          -3.0124    3.7769   23.6293 C.ar    1  UNL1        0.0796
     14 C          -1.8977    3.6741   24.6277 C.ar    1  UNL1        0.0188
     15 C          -2.2049    3.6573   26.0958 C.ar    1  UNL1        0.0016
     16 C          -3.6269    3.7432   26.5654 C.ar    1  UNL1        0.0016
     17 C          -4.7416    3.8459   25.5671 C.ar    1  UNL1        0.0188
     18 C          -4.4344    3.8628   24.0990 C.ar    1  UNL1        0.0797
     19 C          -6.8136    4.0581   22.8965 C.3     1  UNL1        0.1278
     20 C          -7.4729    5.4044   22.8464 C.3     1  UNL1        0.0971
     21 C          -6.5975    6.9604   24.7339 C.3     1  UNL1        0.0897
     22 N          -7.7117    6.1703   24.1139 N.3     1  UNL1       -0.2687
     23 C          -9.0645    6.1460   24.7614 C.3     1  UNL1        0.0897
     24 C           2.7774    2.4284   18.7011 C.3     1  UNL1        0.0795
     25 C           4.1413    2.6499   19.2849 C.3     1  UNL1        0.0264
     26 C           5.1017    1.5037   19.4031 C.3     1  UNL1        0.0729
     27 N           4.6982    0.1360   18.9376 N.3     1  UNL1       -0.2689
     28 C           3.3344   -0.0855   18.3538 C.3     1  UNL1        0.0729
     29 C           2.3740    1.0606   18.2356 C.3     1  UNL1        0.0264
     30 C           5.6587   -1.0101   19.0558 C.3     1  UNL1        0.0992
     31 C           5.1662   -2.3601   19.4859 C.ar    1  UNL1       -0.0031
     32 C           4.7941   -2.6011   20.9189 C.ar    1  UNL1        0.0178
     33 C           4.3017   -3.9511   21.3491 C.ar    1  UNL1        0.0986
     34 N           4.1813   -5.0600   20.3462 N.ar    1  UNL1       -0.2423
     35 C           4.5534   -4.8190   18.9132 C.ar    1  UNL1        0.0986
     36 C           5.0458   -3.4690   18.4831 C.ar    1  UNL1        0.0178
@<TRIPOS>BOND
     1    21    22    1
     2    22    23    1
     3    22    20    1
     4    20    19    1
     5    19     9    1
     6     9    10   ar
     7    10    11    2
     8    10    12   ar
     9    12     1    1
    10     1     2    1
    11     2     3    1
    12     3     4    1
    13     4     5   am
    14     5     6    2
    15     5    24    1
    16    24    25    1
    17    25    26    1
    18    26    27    1
    19    27    30    1
    20    30    31    1
    21    31    32   ar
    22    32    33   ar
    23    33    34   ar
    24    34    35   ar
    25    35    36   ar
    26    27    28    1
    27    28    29    1
    28     4     7    1
    29     7     8    1
    30    12    13   ar
    31    13    14   ar
    32    14    15   ar
    33    15    16   ar
    34    16    17   ar
    35    17    18   ar
    36    18     9   ar
    37     8     1    1
    38    18    13   ar
    39    29    24    1
    40    36    31   ar
@<TRIPOS>MOLECULE
*****
 36 40 0 0 0
SMALL
GASTEIGER

@<TRIPOS>ATOM
      1 C           2.5968    0.9199   19.2879 C.3     1  UNL1        0.0933
      2 C           3.3151    0.4391   20.5139 C.3     1  UNL1        0.0442
      3 C           4.4240   -0.5632   20.3888 C.3     1  UNL1        0.0953
      4 N           4.8147   -1.0847   19.0377 N.am    1  UNL1       -0.2794
      5 C           5.9237   -2.0870   18.9126 C.2     1  UNL1        0.2252
      6 O           6.3143   -2.6085   17.5615 O.2     1  UNL1       -0.2749
      7 C           4.0965   -0.6039   17.8118 C.3     1  UNL1        0.0953
      8 C           2.9875    0.3984   17.9369 C.3     1  UNL1        0.0442
      9 N          -0.6262    2.9657   19.9896 N.ar    1  UNL1       -0.2785
     10 C           0.1765    1.7041   20.1079 C.ar    1  UNL1        0.3315
     11 O          -0.2561    0.4454   20.7996 O.2     1  UNL1       -0.2463
     12 N           1.4879    1.9222   19.4130 N.ar    1  UNL1       -0.2817
     13 C           1.4956    3.3186   18.8652 C.ar    1  UNL1        0.0796
     14 C           2.5236    4.0862   18.0880 C.ar    1  UNL1        0.0188
     15 C           2.2450    5.4987   17.6672 C.ar    1  UNL1        0.0016
     16 C           0.9384    6.1436   18.0235 C.ar    1  UNL1        0.0016
     17 C          -0.0895    5.3760   18.8007 C.ar    1  UNL1        0.0188
     18 C           0.1891    3.9635   19.2216 C.ar    1  UNL1        0.0797
     19 C          -2.0025    3.1902   20.5422 C.3     1  UNL1        0.1278
     20 C          -3.1379    3.5161   19.6179 C.3     1  UNL1        0.0971
     21 C          -4.8416    3.1140   21.5377 C.3     1  UNL1        0.0897
     22 N          -4.5545    3.3620   20.0865 N.3     1  UNL1       -0.2687
     23 C          -5.6839    3.4560   19.1039 C.3     1  UNL1        0.0897
     24 C           6.6418   -2.5678   20.1385 C.3     1  UNL1        0.0795
     25 C           6.0568   -3.6745   20.9649 C.3     1  UNL1        0.0264
     26 C           6.7751   -4.1553   22.1910 C.3     1  UNL1        0.0729
     27 N           8.0784   -3.5292   22.5906 N.3     1  UNL1       -0.2689
     28 C           8.6633   -2.4225   21.7642 C.3     1  UNL1        0.0729
     29 C           7.9451   -1.9418   20.5382 C.3     1  UNL1        0.0264
     30 C           8.7965   -4.0100   23.8165 C.3     1  UNL1        0.0992
     31 C           8.2076   -5.1113   24.6473 C.ar    1  UNL1       -0.0031
     32 C           7.2840   -4.7825   25.7826 C.ar    1  UNL1        0.0178
     33 C           6.6951   -5.8839   26.6134 C.ar    1  UNL1        0.0986
     34 N           7.0298   -7.3140   26.3089 N.ar    1  UNL1       -0.2423
     35 C           7.9535   -7.6427   25.1737 C.ar    1  UNL1        0.0986
     36 C           8.5424   -6.5414   24.3429 C.ar    1  UNL1        0.0178
@<TRIPOS>BOND
     1    21    22    1
     2    22    23    1
     3    22    20    1
     4    20    19    1
     5    19     9    1
     6     9    10   ar
     7    10    11    2
     8    10    12   ar
     9    12     1    1
    10     1     2    1
    11     2     3    1
    12     3     4    1
    13     4     5   am
    14     5     6    2
    15     5    24    1
    16    24    25    1
    17    25    26    1
    18    26    27    1
    19    27    30    1
    20    30    31    1
    21    31    32   ar
    22    32    33   ar
    23    33    34   ar
    24    34    35   ar
    25    35    36   ar
    26    27    28    1
    27    28    29    1
    28     4     7    1
    29     7     8    1
    30    12    13   ar
    31    13    14   ar
    32    14    15   ar
    33    15    16   ar
    34    16    17   ar
    35    17    18   ar
    36    18     9   ar
    37     8     1    1
    38    18    13   ar
    39    29    24    1
    40    36    31   ar
