@<TRIPOS>MOLECULE
*****
 36 38 0 0 0
SMALL
GASTEIGER

@<TRIPOS>ATOM
      1 C           3.5755   -0.8156   21.4368 C.ar    1  UNL1       -0.0185
      2 C           2.9111    0.1909   22.3287 C.ar    1  UNL1       -0.0041
      3 C           1.7703    1.0153   21.8100 C.ar    1  UNL1        0.0057
      4 C           1.2938    0.8330   20.3994 C.ar    1  UNL1        0.0696
      5 C           1.9582   -0.1735   19.5075 C.ar    1  UNL1        0.0095
      6 C           3.0990   -0.9978   20.0262 C.ar    1  UNL1        0.0677
      7 C           8.1387   -4.1129   23.5115 C.2     1  UNL1        0.2490
      8 O           9.5350   -3.8468   23.0324 O.2     1  UNL1       -0.2699
      9 N           6.9979   -3.2886   22.9929 N.am    1  UNL1       -0.2761
     10 C           5.6016   -3.5547   23.4720 C.3     1  UNL1        0.0940
     11 C           4.4608   -2.7303   22.9533 C.3     1  UNL1        0.0259
     12 C           4.7163   -1.6399   21.9555 C.3     1  UNL1        0.0257
     13 C           6.1126   -1.3738   21.4763 C.3     1  UNL1        0.0259
     14 C           7.2534   -2.1981   21.9950 C.3     1  UNL1        0.0940
     15 C           7.2414   -5.9471   26.9146 C.ar    1  UNL1        0.0686
     16 C           7.3724   -7.3841   26.5051 C.ar    1  UNL1        0.0103
     17 C           7.7588   -7.7308   25.0978 C.ar    1  UNL1        0.0008
     18 C           8.0143   -6.6404   24.0999 C.ar    1  UNL1        0.0046
     19 C           7.8833   -5.2034   24.5094 C.ar    1  UNL1        0.0542
     20 C           7.4969   -4.8567   25.9167 C.ar    1  UNL1        0.0148
     21 N           6.4686   -5.2538   29.7292 N.1     1  UNL1       -0.1908
     22 C           6.8550   -5.6004   28.3219 C.1     1  UNL1        0.1004
     23 C           0.1530    1.6573   19.8808 C.2     1  UNL1        0.3078
     24 O           0.1095    2.0516   18.4341 O.2     1  UNL1       -0.2516
     25 N          -0.9442    2.0874   20.8087 N.am    1  UNL1       -0.1708
     26 H          -0.9157    1.8286   21.7582 H       1  UNL1        0.2545
     27 C          -2.0851    2.9117   20.2900 C.2     1  UNL1        0.3751
     28 N          -3.4654    2.7139   20.8426 N.pl3   1  UNL1       -0.1313
     29 N          -1.8455    3.9339   19.2186 N.pl3   1  UNL1       -0.2906
     30 H          -3.6227    2.0430   21.5457 H       1  UNL1        0.3060
     31 H          -0.9395    4.0637   18.8559 H       1  UNL1        0.2545
     32 H          -2.5942    4.4749   18.8782 H       1  UNL1        0.2545
     33 C           3.7633   -2.0044   19.1343 C.3     1  UNL1        0.4183
     34 F           4.4277   -3.0109   18.2424 F       1  UNL1       -0.1659
     35 F           2.8659   -3.0771   19.6764 F       1  UNL1       -0.1659
     36 F           4.6608   -0.9316   18.5921 F       1  UNL1       -0.1659
@<TRIPOS>BOND
     1    21    22    3
     2    22    15    1
     3    15    16   ar
     4    16    17   ar
     5    17    18   ar
     6    18    19   ar
     7    19     7    1
     8     7     8    2
     9     7     9   am
    10     9    10    1
    11    10    11    1
    12    11    12    1
    13    12     1    1
    14     1     2   ar
    15     2     3   ar
    16     3     4   ar
    17     4    23    1
    18    23    24    2
    19    23    25   am
    20    25    27    1
    21    27    28    2
    22    27    29    1
    23     4     5   ar
    24     5     6   ar
    25     6    33    1
    26    33    34    1
    27    33    35    1
    28    33    36    1
    29    12    13    1
    30    13    14    1
    31    19    20   ar
    32    20    15   ar
    33    14     9    1
    34     6     1   ar
    35    25    26    1
    36    28    30    1
    37    29    31    1
    38    29    32    1
@<TRIPOS>MOLECULE
*****
 36 38 0 0 0
SMALL
GASTEIGER

@<TRIPOS>ATOM
      1 C           6.7771   -2.9784   31.4302 C.ar    1  UNL1       -0.0185
      2 C           6.8901   -4.4369   31.7619 C.ar    1  UNL1       -0.0041
      3 C           6.9875   -5.4511   30.6609 C.ar    1  UNL1        0.0057
      4 C           6.9720   -5.0068   29.2284 C.ar    1  UNL1        0.0696
      5 C           6.8590   -3.5483   28.8967 C.ar    1  UNL1        0.0095
      6 C           6.7615   -2.5341   29.9976 C.ar    1  UNL1        0.0677
      7 C           6.3873    1.0782   35.8338 C.2     1  UNL1        0.2490
      8 O           7.6311    1.5698   36.5129 O.2     1  UNL1       -0.2699
      9 N           6.4847    0.0640   34.7329 N.am    1  UNL1       -0.2761
     10 C           5.2409   -0.4276   34.0538 C.3     1  UNL1        0.0940
     11 C           5.3384   -1.4418   32.9529 C.3     1  UNL1        0.0259
     12 C           6.6797   -1.9643   32.5311 C.3     1  UNL1        0.0257
     13 C           7.9235   -1.4727   33.2102 C.3     1  UNL1        0.0259
     14 C           7.8261   -0.4585   34.3111 C.3     1  UNL1        0.0940
     15 C           2.9646    1.4664   37.8047 C.ar    1  UNL1        0.0686
     16 C           2.3635    2.6458   37.0993 C.ar    1  UNL1        0.0103
     17 C           3.1036    3.3027   35.9720 C.ar    1  UNL1        0.0008
     18 C           4.4449    2.7802   35.5502 C.ar    1  UNL1        0.0046
     19 C           5.0460    1.6008   36.2556 C.ar    1  UNL1        0.0542
     20 C           4.3058    0.9439   37.3828 C.ar    1  UNL1        0.0148
     21 N           1.4843    0.1527   40.0592 N.1     1  UNL1       -0.1908
     22 C           2.2245    0.8096   38.9319 C.1     1  UNL1        0.1004
     23 C           7.0694   -6.0209   28.1275 C.2     1  UNL1        0.3078
     24 O           6.4290   -5.7491   26.7985 O.2     1  UNL1       -0.2516
     25 N           7.8072   -7.3068   28.3555 N.am    1  UNL1       -0.1708
     26 H           8.2275   -7.4852   29.2277 H       1  UNL1        0.2545
     27 C           7.9046   -8.3210   27.2546 C.2     1  UNL1        0.3751
     28 N           8.3717   -7.9054   25.8911 N.pl3   1  UNL1       -0.1313
     29 N           7.5349   -9.7508   27.5171 N.pl3   1  UNL1       -0.2906
     30 H           8.6143   -6.9669   25.7188 H       1  UNL1        0.3060
     31 H           7.2283  -10.0237   28.4120 H       1  UNL1        0.2545
     32 H           7.5988  -10.4165   26.7946 H       1  UNL1        0.2545
     33 C           6.6486   -1.0756   29.6659 C.3     1  UNL1        0.4183
     34 F           6.5356    0.3829   29.3342 F       1  UNL1       -0.1659
     35 F           5.1565   -1.2087   29.5890 F       1  UNL1       -0.1659
     36 F           8.1407   -0.9425   29.7428 F       1  UNL1       -0.1659
@<TRIPOS>BOND
     1    21    22    3
     2    22    15    1
     3    15    16   ar
     4    16    17   ar
     5    17    18   ar
     6    18    19   ar
     7    19     7    1
     8     7     8    2
     9     7     9   am
    10     9    10    1
    11    10    11    1
    12    11    12    1
    13    12     1    1
    14     1     2   ar
    15     2     3   ar
    16     3     4   ar
    17     4    23    1
    18    23    24    2
    19    23    25   am
    20    25    27    1
    21    27    28    2
    22    27    29    1
    23     4     5   ar
    24     5     6   ar
    25     6    33    1
    26    33    34    1
    27    33    35    1
    28    33    36    1
    29    12    13    1
    30    13    14    1
    31    19    20   ar
    32    20    15   ar
    33    14     9    1
    34     6     1   ar
    35    25    26    1
    36    28    30    1
    37    29    31    1
    38    29    32    1
@<TRIPOS>MOLECULE
*****
 36 38 0 0 0
SMALL
GASTEIGER

@<TRIPOS>ATOM
      1 C           1.2313    1.5305   28.0342 C.ar    1  UNL1       -0.0185
      2 C           2.7111    1.6893   27.8466 C.ar    1  UNL1       -0.0041
      3 C           3.6632    0.8647   28.6613 C.ar    1  UNL1        0.0057
      4 C           3.1355   -0.1186   29.6635 C.ar    1  UNL1        0.0696
      5 C           1.6558   -0.2774   29.8512 C.ar    1  UNL1        0.0095
      6 C           0.7037    0.5471   29.0366 C.ar    1  UNL1        0.0677
      7 C          -2.5771    4.8285   24.7757 C.2     1  UNL1        0.2490
      8 O          -2.9417    6.2133   25.2224 O.2     1  UNL1       -0.2699
      9 N          -1.6250    4.0040   25.5903 N.am    1  UNL1       -0.2761
     10 C          -1.2604    2.6193   25.1436 C.3     1  UNL1        0.0940
     11 C          -0.3082    1.7948   25.9583 C.3     1  UNL1        0.0259
     12 C           0.2793    2.3550   27.2196 C.3     1  UNL1        0.0257
     13 C          -0.0854    3.7397   27.6663 C.3     1  UNL1        0.0259
     14 C          -1.0375    4.5642   26.8517 C.3     1  UNL1        0.0940
     15 C          -2.9955    3.8133   20.9620 C.ar    1  UNL1        0.0686
     16 C          -4.3395    3.1480   20.9915 C.ar    1  UNL1        0.0103
     17 C          -5.0961    3.0428   22.2825 C.ar    1  UNL1        0.0008
     18 C          -4.5086    3.6030   23.5438 C.ar    1  UNL1        0.0046
     19 C          -3.1646    4.2683   23.5143 C.ar    1  UNL1        0.0542
     20 C          -2.4080    4.3734   22.2233 C.ar    1  UNL1        0.0148
     21 N          -1.4823    4.0235   18.3801 N.1     1  UNL1       -0.1908
     22 C          -2.2389    3.9184   19.6710 C.1     1  UNL1        0.1004
     23 C           4.0876   -0.9431   30.4782 C.2     1  UNL1        0.3078
     24 O           5.3981   -1.3754   29.8901 O.2     1  UNL1       -0.2516
     25 N           3.7293   -1.3354   31.8809 N.am    1  UNL1       -0.1708
     26 H           2.8692   -1.0517   32.2669 H       1  UNL1        0.2545
     27 C           4.6815   -2.1600   32.6956 C.2     1  UNL1        0.3751
     28 N           4.1826   -3.3592   33.4458 N.pl3   1  UNL1       -0.1313
     29 N           6.1325   -1.7852   32.7598 N.pl3   1  UNL1       -0.2906
     30 H           3.2303   -3.6051   33.4036 H       1  UNL1        0.3060
     31 H           6.4599   -0.9981   32.2674 H       1  UNL1        0.2545
     32 H           6.7574   -2.3264   33.2945 H       1  UNL1        0.2545
     33 C          -0.7760    0.3883   29.2242 C.3     1  UNL1        0.4183
     34 F          -2.2557    0.2294   29.4119 F       1  UNL1       -0.1659
     35 F          -0.7504    1.4278   30.3053 F       1  UNL1       -0.1659
     36 F          -0.8015   -0.6512   28.1432 F       1  UNL1       -0.1659
@<TRIPOS>BOND
     1    21    22    3
     2    22    15    1
     3    15    16   ar
     4    16    17   ar
     5    17    18   ar
     6    18    19   ar
     7    19     7    1
     8     7     8    2
     9     7     9   am
    10     9    10    1
    11    10    11    1
    12    11    12    1
    13    12     1    1
    14     1     2   ar
    15     2     3   ar
    16     3     4   ar
    17     4    23    1
    18    23    24    2
    19    23    25   am
    20    25    27    1
    21    27    28    2
    22    27    29    1
    23     4     5   ar
    24     5     6   ar
    25     6    33    1
    26    33    34    1
    27    33    35    1
    28    33    36    1
    29    12    13    1
    30    13    14    1
    31    19    20   ar
    32    20    15   ar
    33    14     9    1
    34     6     1   ar
    35    25    26    1
    36    28    30    1
    37    29    31    1
    38    29    32    1
@<TRIPOS>MOLECULE
*****
 36 38 0 0 0
SMALL
GASTEIGER

@<TRIPOS>ATOM
      1 C           2.5669    0.0964   21.7674 C.ar    1  UNL1       -0.0185
      2 C           2.7991   -0.0945   23.2369 C.ar    1  UNL1       -0.0041
      3 C           3.6842   -1.2058   23.7183 C.ar    1  UNL1        0.0057
      4 C           4.3371   -2.1261   22.7300 C.ar    1  UNL1        0.0696
      5 C           4.1050   -1.9352   21.2604 C.ar    1  UNL1        0.0095
      6 C           3.2199   -0.8239   20.7791 C.ar    1  UNL1        0.0677
      7 C          -0.9735    4.5414   19.8420 C.2     1  UNL1        0.2490
      8 O          -0.3967    5.9021   19.5855 O.2     1  UNL1       -0.2699
      9 N          -0.0884    3.4302   20.3234 N.am    1  UNL1       -0.2761
     10 C          -0.6653    2.0695   20.5799 C.3     1  UNL1        0.0940
     11 C           0.2199    0.9582   21.0613 C.3     1  UNL1        0.0259
     12 C           1.6818    1.2077   21.2860 C.3     1  UNL1        0.0257
     13 C           2.2586    2.5684   21.0295 C.3     1  UNL1        0.0259
     14 C           1.3735    3.6796   20.5482 C.3     1  UNL1        0.0940
     15 C          -4.8442    4.0333   20.5559 C.ar    1  UNL1        0.0686
     16 C          -5.3594    3.7932   19.1678 C.ar    1  UNL1        0.0103
     17 C          -4.4126    3.8025   18.0044 C.ar    1  UNL1        0.0008
     18 C          -2.9506    4.0519   18.2291 C.ar    1  UNL1        0.0046
     19 C          -2.4355    4.2920   19.6172 C.ar    1  UNL1        0.0542
     20 C          -3.3823    4.2827   20.7806 C.ar    1  UNL1        0.0148
     21 N          -6.7378    4.0147   22.8827 N.1     1  UNL1       -0.1908
     22 C          -5.7910    4.0240   21.7193 C.1     1  UNL1        0.1004
     23 C           5.2222   -3.2373   23.2113 C.2     1  UNL1        0.3078
     24 O           5.6526   -4.3175   22.2636 O.2     1  UNL1       -0.2516
     25 N           5.6770   -3.2685   24.6404 N.am    1  UNL1       -0.1708
     26 H           5.3946   -2.5596   25.2624 H       1  UNL1        0.2545
     27 C           6.5622   -4.3798   25.1217 C.2     1  UNL1        0.3751
     28 N           6.3367   -4.9855   26.4753 N.pl3   1  UNL1       -0.1313
     29 N           7.6728   -4.8854   24.2493 N.pl3   1  UNL1       -0.2906
     30 H           5.6078   -4.6537   27.0478 H       1  UNL1        0.3060
     31 H           7.8208   -4.4878   23.3609 H       1  UNL1        0.2545
     32 H           8.2537   -5.6147   24.5652 H       1  UNL1        0.2545
     33 C           2.9877   -0.6330   19.3095 C.3     1  UNL1        0.4183
     34 F           2.7556   -0.4420   17.8400 F       1  UNL1       -0.1659
     35 F           1.7725   -1.5088   19.3877 F       1  UNL1       -0.1659
     36 F           4.2030    0.2428   19.2313 F       1  UNL1       -0.1659
@<TRIPOS>BOND
     1    21    22    3
     2    22    15    1
     3    15    16   ar
     4    16    17   ar
     5    17    18   ar
     6    18    19   ar
     7    19     7    1
     8     7     8    2
     9     7     9   am
    10     9    10    1
    11    10    11    1
    12    11    12    1
    13    12     1    1
    14     1     2   ar
    15     2     3   ar
    16     3     4   ar
    17     4    23    1
    18    23    24    2
    19    23    25   am
    20    25    27    1
    21    27    28    2
    22    27    29    1
    23     4     5   ar
    24     5     6   ar
    25     6    33    1
    26    33    34    1
    27    33    35    1
    28    33    36    1
    29    12    13    1
    30    13    14    1
    31    19    20   ar
    32    20    15   ar
    33    14     9    1
    34     6     1   ar
    35    25    26    1
    36    28    30    1
    37    29    31    1
    38    29    32    1
@<TRIPOS>MOLECULE
*****
 36 38 0 0 0
SMALL
GASTEIGER

@<TRIPOS>ATOM
      1 C           3.6196   -1.0043   21.3567 C.ar    1  UNL1       -0.0185
      2 C           2.9577   -1.3397   20.0531 C.ar    1  UNL1       -0.0041
      3 C           1.8226   -0.4979   19.5499 C.ar    1  UNL1        0.0057
      4 C           1.3496    0.6792   20.3503 C.ar    1  UNL1        0.0696
      5 C           2.0115    1.0145   21.6539 C.ar    1  UNL1        0.0095
      6 C           3.1465    0.1728   22.1571 C.ar    1  UNL1        0.0677
      7 C           8.1597   -4.3712   23.3695 C.2     1  UNL1        0.2490
      8 O           9.5347   -4.1963   22.7962 O.2     1  UNL1       -0.2699
      9 N           7.0247   -3.5295   22.8663 N.am    1  UNL1       -0.2761
     10 C           5.6496   -3.7045   23.4396 C.3     1  UNL1        0.0940
     11 C           4.5146   -2.8627   22.9363 C.3     1  UNL1        0.0259
     12 C           4.7546   -1.8461   21.8599 C.3     1  UNL1        0.0257
     13 C           6.1297   -1.6711   21.2866 C.3     1  UNL1        0.0259
     14 C           7.2647   -2.5128   21.7898 C.3     1  UNL1        0.0940
     15 C           7.2974   -5.9592   26.9029 C.ar    1  UNL1        0.0686
     16 C           7.4396   -7.4212   26.5990 C.ar    1  UNL1        0.0103
     17 C           7.8219   -7.8665   25.2185 C.ar    1  UNL1        0.0008
     18 C           8.0619   -6.8499   24.1421 C.ar    1  UNL1        0.0046
     19 C           7.9197   -5.3879   24.4460 C.ar    1  UNL1        0.0542
     20 C           7.5374   -4.9426   25.8264 C.ar    1  UNL1        0.0148
     21 N           6.5328   -5.0685   29.6637 N.1     1  UNL1       -0.1908
     22 C           6.9151   -5.5139   28.2833 C.1     1  UNL1        0.1004
     23 C           0.2146    1.5209   19.8471 C.2     1  UNL1        0.3078
     24 O           0.1245    1.8648   18.3898 O.2     1  UNL1       -0.2516
     25 N          -0.8304    2.0187   20.8012 N.am    1  UNL1       -0.1708
     26 H          -0.7713    1.7929   21.7576 H       1  UNL1        0.2545
     27 C          -1.9655    2.8604   20.2979 C.2     1  UNL1        0.3751
     28 N          -3.3423    2.6795   20.8650 N.pl3   1  UNL1       -0.1313
     29 N          -1.7236    3.8831   19.2275 N.pl3   1  UNL1       -0.2906
     30 H          -3.5010    2.0083   21.5675 H       1  UNL1        0.3060
     31 H          -0.8200    4.0018   18.8553 H       1  UNL1        0.2545
     32 H          -2.4685    4.4355   18.8972 H       1  UNL1        0.2545
     33 C           3.8085    0.5081   23.4607 C.3     1  UNL1        0.4183
     34 F           4.4704    0.8435   24.7643 F       1  UNL1       -0.1659
     35 F           4.8293    1.3299   22.7309 F       1  UNL1       -0.1659
     36 F           2.7876   -0.3136   24.1905 F       1  UNL1       -0.1659
@<TRIPOS>BOND
     1    21    22    3
     2    22    15    1
     3    15    16   ar
     4    16    17   ar
     5    17    18   ar
     6    18    19   ar
     7    19     7    1
     8     7     8    2
     9     7     9   am
    10     9    10    1
    11    10    11    1
    12    11    12    1
    13    12     1    1
    14     1     2   ar
    15     2     3   ar
    16     3     4   ar
    17     4    23    1
    18    23    24    2
    19    23    25   am
    20    25    27    1
    21    27    28    2
    22    27    29    1
    23     4     5   ar
    24     5     6   ar
    25     6    33    1
    26    33    34    1
    27    33    35    1
    28    33    36    1
    29    12    13    1
    30    13    14    1
    31    19    20   ar
    32    20    15   ar
    33    14     9    1
    34     6     1   ar
    35    25    26    1
    36    28    30    1
    37    29    31    1
    38    29    32    1
@<TRIPOS>MOLECULE
*****
 36 38 0 0 0
SMALL
GASTEIGER

@<TRIPOS>ATOM
      1 C           1.1612    1.5075   27.2605 C.ar    1  UNL1       -0.0185
      2 C           2.4970    1.5775   26.5818 C.ar    1  UNL1       -0.0041
      3 C           3.5927    0.6351   26.9836 C.ar    1  UNL1        0.0057
      4 C           3.3525   -0.3773   28.0640 C.ar    1  UNL1        0.0696
      5 C           2.0166   -0.4473   28.7427 C.ar    1  UNL1        0.0095
      6 C           0.9210    0.4951   28.3409 C.ar    1  UNL1        0.0677
      7 C          -3.2214    5.2771   25.6534 C.2     1  UNL1        0.2490
      8 O          -3.3824    6.5873   26.3657 O.2     1  UNL1       -0.2699
      9 N          -2.1258    4.3347   26.0552 N.am    1  UNL1       -0.2761
     10 C          -1.9648    3.0244   25.3429 C.3     1  UNL1        0.0940
     11 C          -0.8691    2.0820   25.7447 C.3     1  UNL1        0.0259
     12 C           0.0655    2.4499   26.8587 C.3     1  UNL1        0.0257
     13 C          -0.0955    3.7601   27.5710 C.3     1  UNL1        0.0259
     14 C          -1.1911    4.7025   27.1692 C.3     1  UNL1        0.0940
     15 C          -6.5729    4.5487   23.6566 C.ar    1  UNL1        0.0686
     16 C          -6.0255    4.1736   22.3114 C.ar    1  UNL1        0.0103
     17 C          -4.5435    4.1663   22.0801 C.ar    1  UNL1        0.0008
     18 C          -3.6088    4.5341   23.1941 C.ar    1  UNL1        0.0046
     19 C          -4.1562    4.9092   24.5393 C.ar    1  UNL1        0.0542
     20 C          -5.6382    4.9165   24.7706 C.ar    1  UNL1        0.0148
     21 N          -9.5370    4.5632   24.1190 N.1     1  UNL1       -0.1908
     22 C          -8.0550    4.5560   23.8878 C.1     1  UNL1        0.1004
     23 C           4.4481   -1.3197   28.4658 C.2     1  UNL1        0.3078
     24 O           5.0217   -1.2563   29.8504 O.2     1  UNL1       -0.2516
     25 N           4.9702   -2.3255   27.4830 N.am    1  UNL1       -0.1708
     26 H           4.5937   -2.3671   26.5743 H       1  UNL1        0.2545
     27 C           6.0659   -3.2679   27.8848 C.2     1  UNL1        0.3751
     28 N           7.3477   -2.7308   28.4491 N.pl3   1  UNL1       -0.1313
     29 N           5.8797   -4.7474   27.7223 N.pl3   1  UNL1       -0.2906
     30 H           7.4699   -1.7597   28.5558 H       1  UNL1        0.3060
     31 H           5.0384   -5.0999   27.3519 H       1  UNL1        0.2545
     32 H           6.5988   -5.3659   27.9860 H       1  UNL1        0.2545
     33 C          -0.4149    0.4251   29.0196 C.3     1  UNL1        0.4183
     34 F          -1.7507    0.3551   29.6983 F       1  UNL1       -0.1659
     35 F           0.0539    1.4149   30.0445 F       1  UNL1       -0.1659
     36 F          -0.8837   -0.5648   27.9947 F       1  UNL1       -0.1659
@<TRIPOS>BOND
     1    21    22    3
     2    22    15    1
     3    15    16   ar
     4    16    17   ar
     5    17    18   ar
     6    18    19   ar
     7    19     7    1
     8     7     8    2
     9     7     9   am
    10     9    10    1
    11    10    11    1
    12    11    12    1
    13    12     1    1
    14     1     2   ar
    15     2     3   ar
    16     3     4   ar
    17     4    23    1
    18    23    24    2
    19    23    25   am
    20    25    27    1
    21    27    28    2
    22    27    29    1
    23     4     5   ar
    24     5     6   ar
    25     6    33    1
    26    33    34    1
    27    33    35    1
    28    33    36    1
    29    12    13    1
    30    13    14    1
    31    19    20   ar
    32    20    15   ar
    33    14     9    1
    34     6     1   ar
    35    25    26    1
    36    28    30    1
    37    29    31    1
    38    29    32    1
@<TRIPOS>MOLECULE
*****
 36 38 0 0 0
SMALL
GASTEIGER

@<TRIPOS>ATOM
      1 C           6.4668   -3.3193   24.7758 C.ar    1  UNL1       -0.0185
      2 C           5.7960   -2.6812   25.9559 C.ar    1  UNL1       -0.0041
      3 C           6.2379   -3.0267   27.3472 C.ar    1  UNL1        0.0057
      4 C           7.3506   -4.0102   27.5582 C.ar    1  UNL1        0.0696
      5 C           8.0214   -4.6483   26.3780 C.ar    1  UNL1        0.0095
      6 C           7.5795   -4.3029   24.9868 C.ar    1  UNL1        0.0677
      7 C           4.6993   -1.9375   19.2110 C.2     1  UNL1        0.2490
      8 O           3.7582   -2.8452   18.4759 O.2     1  UNL1       -0.2699
      9 N           5.1412   -2.2829   20.6022 N.am    1  UNL1       -0.2761
     10 C           6.0823   -1.3753   21.3373 C.3     1  UNL1        0.0940
     11 C           6.5242   -1.7208   22.7286 C.3     1  UNL1        0.0259
     12 C           6.0249   -2.9739   23.3846 C.3     1  UNL1        0.0257
     13 C           5.0838   -3.8815   22.6495 C.3     1  UNL1        0.0259
     14 C           4.6419   -3.5361   21.2583 C.3     1  UNL1        0.0940
     15 C           4.9353    1.8512   18.0535 C.ar    1  UNL1        0.0686
     16 C           6.1970    1.8218   17.2428 C.ar    1  UNL1        0.0103
     17 C           6.9594    0.5394   17.0881 C.ar    1  UNL1        0.0008
     18 C           6.4602   -0.7138   17.7441 C.ar    1  UNL1        0.0046
     19 C           5.1986   -0.6844   18.5549 C.ar    1  UNL1        0.0542
     20 C           4.4361    0.5981   18.7096 C.ar    1  UNL1        0.0148
     21 N           3.4105    4.4162   18.3629 N.1     1  UNL1       -0.1908
     22 C           4.1729    3.1337   18.2082 C.1     1  UNL1        0.1004
     23 C           7.7924   -4.3556   28.9493 C.2     1  UNL1        0.3078
     24 O           9.2537   -4.4889   29.2608 O.2     1  UNL1       -0.2516
     25 N           6.7731   -4.5677   30.0291 N.am    1  UNL1       -0.1708
     26 H           5.8140   -4.4803   29.8247 H       1  UNL1        0.2545
     27 C           7.2150   -4.9132   31.4203 C.2     1  UNL1        0.3751
     28 N           6.6184   -6.0953   32.1250 N.pl3   1  UNL1       -0.1313
     29 N           8.2536   -4.0765   32.1068 N.pl3   1  UNL1       -0.2906
     30 H           5.9367   -6.6444   31.6744 H       1  UNL1        0.3060
     31 H           8.6452   -3.3006   31.6443 H       1  UNL1        0.2545
     32 H           8.5437   -4.3032   33.0199 H       1  UNL1        0.2545
     33 C           8.2503   -4.9410   23.8066 C.3     1  UNL1        0.4183
     34 F           8.9211   -5.5791   22.6264 F       1  UNL1       -0.1659
     35 F           7.3387   -6.1258   23.9290 F       1  UNL1       -0.1659
     36 F           9.1620   -3.7561   23.6842 F       1  UNL1       -0.1659
@<TRIPOS>BOND
     1    21    22    3
     2    22    15    1
     3    15    16   ar
     4    16    17   ar
     5    17    18   ar
     6    18    19   ar
     7    19     7    1
     8     7     8    2
     9     7     9   am
    10     9    10    1
    11    10    11    1
    12    11    12    1
    13    12     1    1
    14     1     2   ar
    15     2     3   ar
    16     3     4   ar
    17     4    23    1
    18    23    24    2
    19    23    25   am
    20    25    27    1
    21    27    28    2
    22    27    29    1
    23     4     5   ar
    24     5     6   ar
    25     6    33    1
    26    33    34    1
    27    33    35    1
    28    33    36    1
    29    12    13    1
    30    13    14    1
    31    19    20   ar
    32    20    15   ar
    33    14     9    1
    34     6     1   ar
    35    25    26    1
    36    28    30    1
    37    29    31    1
    38    29    32    1
@<TRIPOS>MOLECULE
*****
 36 38 0 0 0
SMALL
GASTEIGER

@<TRIPOS>ATOM
      1 C           1.0901    2.3248   28.0779 C.ar    1  UNL1       -0.0185
      2 C           1.8098    3.5513   28.5550 C.ar    1  UNL1       -0.0041
      3 C           1.7589    3.9347   30.0044 C.ar    1  UNL1        0.0057
      4 C           0.9883    3.0915   30.9765 C.ar    1  UNL1        0.0696
      5 C           0.2685    1.8650   30.4994 C.ar    1  UNL1        0.0095
      6 C           0.3194    1.4816   29.0502 C.ar    1  UNL1        0.0677
      7 C           1.2936    0.7914   22.2808 C.2     1  UNL1        0.2490
      8 O           0.0735    0.9431   21.4216 O.2     1  UNL1       -0.2699
      9 N           1.2428    1.1747   23.7301 N.am    1  UNL1       -0.2761
     10 C           2.4629    1.0230   24.5893 C.3     1  UNL1        0.0940
     11 C           2.4120    1.4064   26.0386 C.3     1  UNL1        0.0259
     12 C           1.1409    1.9415   26.6287 C.3     1  UNL1        0.0257
     13 C          -0.0792    2.0932   25.7694 C.3     1  UNL1        0.0259
     14 C          -0.0283    1.7098   24.3202 C.3     1  UNL1        0.0940
     15 C           4.0440   -1.7599   20.9859 C.ar    1  UNL1        0.0686
     16 C           5.1067   -0.8140   20.5106 C.ar    1  UNL1        0.0103
     17 C           4.8983    0.6671   20.6253 C.ar    1  UNL1        0.0008
     18 C           3.6274    1.2022   21.2154 C.ar    1  UNL1        0.0046
     19 C           2.5647    0.2563   21.6907 C.ar    1  UNL1        0.0542
     20 C           2.7730   -1.2248   21.5760 C.ar    1  UNL1        0.0148
     21 N           4.4607   -4.7219   20.7565 N.1     1  UNL1       -0.1908
     22 C           4.2523   -3.2409   20.8712 C.1     1  UNL1        0.1004
     23 C           0.9374    3.4749   32.4258 C.2     1  UNL1        0.3078
     24 O          -0.1751    4.3439   32.9331 O.2     1  UNL1       -0.2516
     25 N           1.9989    2.9892   33.3678 N.am    1  UNL1       -0.1708
     26 H           2.7290    2.4188   33.0348 H       1  UNL1        0.2545
     27 C           1.9479    3.3726   34.8171 C.2     1  UNL1        0.3751
     28 N           1.5066    4.7503   35.2134 N.pl3   1  UNL1       -0.1313
     29 N           2.3384    2.3782   35.8701 N.pl3   1  UNL1       -0.2906
     30 H           1.2503    5.4029   34.5223 H       1  UNL1        0.3060
     31 H           2.6281    1.4740   35.6100 H       1  UNL1        0.2545
     32 H           2.3050    2.6298   36.8213 H       1  UNL1        0.2545
     33 C          -0.4004    0.2551   28.5731 C.3     1  UNL1        0.4183
     34 F          -1.1201   -0.9714   28.0960 F       1  UNL1       -0.1659
     35 F          -1.6637    1.0515   28.4317 F       1  UNL1       -0.1659
     36 F           0.8629   -0.5412   28.7144 F       1  UNL1       -0.1659
@<TRIPOS>BOND
     1    21    22    3
     2    22    15    1
     3    15    16   ar
     4    16    17   ar
     5    17    18   ar
     6    18    19   ar
     7    19     7    1
     8     7     8    2
     9     7     9   am
    10     9    10    1
    11    10    11    1
    12    11    12    1
    13    12     1    1
    14     1     2   ar
    15     2     3   ar
    16     3     4   ar
    17     4    23    1
    18    23    24    2
    19    23    25   am
    20    25    27    1
    21    27    28    2
    22    27    29    1
    23     4     5   ar
    24     5     6   ar
    25     6    33    1
    26    33    34    1
    27    33    35    1
    28    33    36    1
    29    12    13    1
    30    13    14    1
    31    19    20   ar
    32    20    15   ar
    33    14     9    1
    34     6     1   ar
    35    25    26    1
    36    28    30    1
    37    29    31    1
    38    29    32    1
@<TRIPOS>MOLECULE
*****
 36 38 0 0 0
SMALL
GASTEIGER

@<TRIPOS>ATOM
      1 C          -0.5869    2.6224   21.4494 C.ar    1  UNL1       -0.0185
      2 C          -1.7686    2.8211   20.5471 C.ar    1  UNL1       -0.0041
      3 C          -3.0186    3.4584   21.0777 C.ar    1  UNL1        0.0057
      4 C          -3.0869    3.8968   22.5106 C.ar    1  UNL1        0.0696
      5 C          -1.9052    3.6980   23.4128 C.ar    1  UNL1        0.0095
      6 C          -0.6552    3.0608   22.8823 C.ar    1  UNL1        0.0677
      7 C           4.4130    0.0735   19.3271 C.2     1  UNL1        0.2490
      8 O           5.4093    0.8966   18.5656 O.2     1  UNL1       -0.2699
      9 N           3.1631    0.7107   19.8577 N.am    1  UNL1       -0.2761
     10 C           2.1667   -0.1123   20.6192 C.3     1  UNL1        0.0940
     11 C           0.9167    0.5250   21.1498 C.3     1  UNL1        0.0259
     12 C           0.6631    1.9852   20.9188 C.3     1  UNL1        0.0257
     13 C           1.6594    2.8082   20.1572 C.3     1  UNL1        0.0259
     14 C           2.9094    2.1710   19.6267 C.3     1  UNL1        0.0940
     15 C           5.6849   -3.2930   21.0002 C.ar    1  UNL1        0.0686
     16 C           5.1741   -4.3071   20.0202 C.ar    1  UNL1        0.0103
     17 C           4.4096   -3.8611   18.8091 C.ar    1  UNL1        0.0008
     18 C           4.1559   -2.4009   18.5781 C.ar    1  UNL1        0.0046
     19 C           4.6667   -1.3868   19.5581 C.ar    1  UNL1        0.0542
     20 C           5.4312   -1.8328   20.7692 C.ar    1  UNL1        0.0148
     21 N           7.2139   -4.1850   23.4223 N.1     1  UNL1       -0.1908
     22 C           6.4494   -3.7390   22.2112 C.1     1  UNL1        0.1004
     23 C          -4.3368    4.5340   23.0411 C.2     1  UNL1        0.3078
     24 O          -4.3771    6.0125   23.2910 O.2     1  UNL1       -0.2516
     25 N          -5.5466    3.6927   23.3218 N.am    1  UNL1       -0.1708
     26 H          -5.5202    2.7223   23.1578 H       1  UNL1        0.2545
     27 C          -6.7966    4.3300   23.8524 C.2     1  UNL1        0.3751
     28 N          -8.1333    3.9339   23.2991 N.pl3   1  UNL1       -0.1313
     29 N          -6.7097    5.3633   24.9362 N.pl3   1  UNL1       -0.2906
     30 H          -8.1903    3.2557   22.5878 H       1  UNL1        0.3060
     31 H          -5.8323    5.6233   25.2993 H       1  UNL1        0.2545
     32 H          -7.5301    5.7816   25.2844 H       1  UNL1        0.2545
     33 C           0.5265    2.8621   23.7846 C.3     1  UNL1        0.4183
     34 F           1.7082    2.6633   24.6868 F       1  UNL1       -0.1659
     35 F           1.0897    4.1783   23.3370 F       1  UNL1       -0.1659
     36 F          -0.0367    1.5458   24.2322 F       1  UNL1       -0.1659
@<TRIPOS>BOND
     1    21    22    3
     2    22    15    1
     3    15    16   ar
     4    16    17   ar
     5    17    18   ar
     6    18    19   ar
     7    19     7    1
     8     7     8    2
     9     7     9   am
    10     9    10    1
    11    10    11    1
    12    11    12    1
    13    12     1    1
    14     1     2   ar
    15     2     3   ar
    16     3     4   ar
    17     4    23    1
    18    23    24    2
    19    23    25   am
    20    25    27    1
    21    27    28    2
    22    27    29    1
    23     4     5   ar
    24     5     6   ar
    25     6    33    1
    26    33    34    1
    27    33    35    1
    28    33    36    1
    29    12    13    1
    30    13    14    1
    31    19    20   ar
    32    20    15   ar
    33    14     9    1
    34     6     1   ar
    35    25    26    1
    36    28    30    1
    37    29    31    1
    38    29    32    1
