@<TRIPOS>MOLECULE
*****
 32 36 0 0 0
SMALL
GASTEIGER

@<TRIPOS>ATOM
      1 C           2.0409    0.2765   21.3850 C.ar    1  UNL1        0.2224
      2 N           2.8583   -0.4426   22.4169 N.ar    1  UNL1       -0.1127
      3 N           2.3889    0.0002   23.7711 N.ar    1  UNL1       -0.1273
      4 C           1.2815    0.9930   23.5760 C.ar    1  UNL1        0.1704
      5 N           1.0665    1.1637   22.1014 N.ar    1  UNL1       -0.2796
      6 C           0.0767    2.0430   21.3962 C.3     1  UNL1        0.1574
      7 C          -0.9425    2.9687   21.9916 C.3     1  UNL1        0.2299
      8 O          -1.2236    3.2436   23.4391 O.3     1  UNL1       -0.4733
      9 C          -0.5550    2.6609   24.6489 C.ar    1  UNL1        0.1415
     10 C          -1.1418    3.2080   25.9162 C.ar    1  UNL1        0.0370
     11 C          -0.6137    2.7534   27.2446 C.ar    1  UNL1        0.0031
     12 C           0.5012    1.7518   27.3055 C.ar    1  UNL1        0.0004
     13 C           1.0880    1.2047   26.0381 C.ar    1  UNL1        0.0061
     14 C           0.5599    1.6593   24.7098 C.ar    1  UNL1        0.0699
     15 C           1.0294    1.2973   28.6339 C.ar    1  UNL1        0.0031
     16 C           1.6884   -0.0442   28.7597 C.ar    1  UNL1        0.0207
     17 C           2.2165   -0.4988   30.0881 C.ar    1  UNL1        0.0989
     18 N           2.0855    0.3883   31.2906 N.ar    1  UNL1       -0.2423
     19 C           1.4264    1.7299   31.1647 C.ar    1  UNL1        0.0989
     20 C           0.8984    2.1843   29.8364 C.ar    1  UNL1        0.0207
     21 N           2.1747    0.1335   19.8978 N.pl3   1  UNL1       -0.2826
     22 H           1.5829    0.6439   19.2990 H       1  UNL1        0.1551
     23 C           4.1450   -3.1865   18.9786 C.ar    1  UNL1        0.0726
     24 C           5.2807   -2.6284   18.1733 C.ar    1  UNL1        0.0039
     25 C           5.3811   -1.1496   17.9428 C.ar    1  UNL1        0.0012
     26 C           4.3457   -0.2290   18.5177 C.ar    1  UNL1        0.0147
     27 C           3.2100   -0.7871   19.3230 C.ar    1  UNL1        0.0504
     28 C           3.1096   -2.2659   19.5535 C.ar    1  UNL1        0.0185
     29 F           3.9444   -6.1441   19.4396 F       1  UNL1       -0.1659
     30 C           4.0446   -4.6654   19.2091 C.3     1  UNL1        0.4186
     31 F           2.5731   -4.6100   18.9237 F       1  UNL1       -0.1659
     32 F           5.5162   -4.7206   19.4945 F       1  UNL1       -0.1659
@<TRIPOS>BOND
     1    29    30    1
     2    30    31    1
     3    30    32    1
     4    30    23    1
     5    23    24   ar
     6    24    25   ar
     7    25    26   ar
     8    26    27   ar
     9    27    21    1
    10    21     1    1
    11     1     2   ar
    12     2     3   ar
    13     3     4   ar
    14     4     5   ar
    15     5     6    1
    16     6     7    1
    17     7     8    1
    18     8     9    1
    19     9    10   ar
    20    10    11   ar
    21    11    12   ar
    22    12    15    1
    23    15    16   ar
    24    16    17   ar
    25    17    18   ar
    26    18    19   ar
    27    19    20   ar
    28    12    13   ar
    29    13    14   ar
    30    27    28   ar
    31    28    23   ar
    32     5     1   ar
    33    14     9   ar
    34    14     4    1
    35    20    15   ar
    36    21    22    1
@<TRIPOS>MOLECULE
*****
 32 36 0 0 0
SMALL
GASTEIGER

@<TRIPOS>ATOM
      1 C           2.2642    0.6894   20.7436 C.ar    1  UNL1        0.2224
      2 N           2.8704    0.0974   21.9814 N.ar    1  UNL1       -0.1127
      3 N           2.0732    0.5715   23.1603 N.ar    1  UNL1       -0.1273
      4 C           0.9743    1.4565   22.6510 C.ar    1  UNL1        0.1704
      5 N           1.0924    1.5292   21.1574 N.ar    1  UNL1       -0.2796
      6 C           0.2327    2.2837   20.1870 C.3     1  UNL1        0.1574
      7 C          -0.9575    3.1516   20.4704 C.3     1  UNL1        0.2299
      8 O          -1.5818    3.4794   21.7944 O.3     1  UNL1       -0.4733
      9 C          -1.1703    3.0203   23.1618 C.ar    1  UNL1        0.1415
     10 C          -2.0688    3.5837   24.2225 C.ar    1  UNL1        0.0370
     11 C          -1.8297    3.2468   25.6645 C.ar    1  UNL1        0.0031
     12 C          -0.6921    2.3465   26.0457 C.ar    1  UNL1        0.0004
     13 C           0.2064    1.7831   24.9850 C.ar    1  UNL1        0.0061
     14 C          -0.0327    2.1200   23.5431 C.ar    1  UNL1        0.0699
     15 C          -0.4531    2.0096   27.4878 C.ar    1  UNL1        0.0031
     16 C           0.3031    2.9626   28.3652 C.ar    1  UNL1        0.0207
     17 C           0.5422    2.6257   29.8073 C.ar    1  UNL1        0.0989
     18 N           0.0249    1.3358   30.3718 N.ar    1  UNL1       -0.2423
     19 C          -0.7314    0.3829   29.4943 C.ar    1  UNL1        0.0989
     20 C          -0.9704    0.7198   28.0523 C.ar    1  UNL1        0.0207
     21 N           2.7454    0.4784   19.3386 N.pl3   1  UNL1       -0.2826
     22 H           2.5146    1.1286   18.6364 H       1  UNL1        0.1551
     23 C           3.9940   -3.2838   19.1475 C.ar    1  UNL1        0.0726
     24 C           5.2442   -3.1266   18.3336 C.ar    1  UNL1        0.0039
     25 C           5.6613   -1.7677   17.8547 C.ar    1  UNL1        0.0012
     26 C           4.8285   -0.5661   18.1897 C.ar    1  UNL1        0.0147
     27 C           3.5783   -0.7233   19.0036 C.ar    1  UNL1        0.0504
     28 C           3.1611   -2.0822   19.4825 C.ar    1  UNL1        0.0185
     29 F           3.1596   -6.0016   20.1053 F       1  UNL1       -0.1659
     30 C           3.5769   -4.6428   19.6265 C.3     1  UNL1        0.4186
     31 F           4.6769   -4.6212   20.6459 F       1  UNL1       -0.1659
     32 F           2.4768   -4.6642   18.6069 F       1  UNL1       -0.1659
@<TRIPOS>BOND
     1    29    30    1
     2    30    31    1
     3    30    32    1
     4    30    23    1
     5    23    24   ar
     6    24    25   ar
     7    25    26   ar
     8    26    27   ar
     9    27    21    1
    10    21     1    1
    11     1     2   ar
    12     2     3   ar
    13     3     4   ar
    14     4     5   ar
    15     5     6    1
    16     6     7    1
    17     7     8    1
    18     8     9    1
    19     9    10   ar
    20    10    11   ar
    21    11    12   ar
    22    12    15    1
    23    15    16   ar
    24    16    17   ar
    25    17    18   ar
    26    18    19   ar
    27    19    20   ar
    28    12    13   ar
    29    13    14   ar
    30    27    28   ar
    31    28    23   ar
    32     5     1   ar
    33    14     9   ar
    34    14     4    1
    35    20    15   ar
    36    21    22    1
@<TRIPOS>MOLECULE
*****
 32 36 0 0 0
SMALL
GASTEIGER

@<TRIPOS>ATOM
      1 C           8.3535   -3.3410   22.3371 C.ar    1  UNL1        0.2224
      2 N           7.9403   -2.2712   23.3041 N.ar    1  UNL1       -0.1127
      3 N           7.7662   -2.9066   24.6517 N.ar    1  UNL1       -0.1273
      4 C           8.0717   -4.3690   24.5175 C.ar    1  UNL1        0.1704
      5 N           8.4346   -4.6374   23.0871 N.ar    1  UNL1       -0.2796
      6 C           8.8199   -5.9388   22.4484 C.3     1  UNL1        0.1574
      7 C           8.9373   -7.2932   23.0823 C.3     1  UNL1        0.2299
      8 O           8.6984   -7.6806   24.5116 O.3     1  UNL1       -0.4733
      9 C           8.2832   -6.8095   25.6600 C.ar    1  UNL1        0.1415
     10 C           8.1554   -7.5992   26.9288 C.ar    1  UNL1        0.0370
     11 C           7.7486   -6.9152   28.2002 C.ar    1  UNL1        0.0031
     12 C           7.4697   -5.4413   28.2028 C.ar    1  UNL1        0.0004
     13 C           7.5975   -4.6516   26.9340 C.ar    1  UNL1        0.0061
     14 C           8.0043   -5.3356   25.6626 C.ar    1  UNL1        0.0699
     15 C           7.0629   -4.7573   29.4743 C.ar    1  UNL1        0.0031
     16 C           6.6237   -3.3233   29.4472 C.ar    1  UNL1        0.0207
     17 C           6.2169   -2.6393   30.7187 C.ar    1  UNL1        0.0989
     18 N           6.2494   -3.3893   32.0173 N.ar    1  UNL1       -0.2423
     19 C           6.6886   -4.8233   32.0444 C.ar    1  UNL1        0.0989
     20 C           7.0954   -5.5073   30.7730 C.ar    1  UNL1        0.0207
     21 N           8.6359   -3.1480   20.8766 N.pl3   1  UNL1       -0.2826
     22 H           9.5610   -3.1965   20.5435 H       1  UNL1        0.1551
     23 C           5.1237   -3.4277   19.0502 C.ar    1  UNL1        0.0726
     24 C           5.2543   -2.3475   18.0176 C.ar    1  UNL1        0.0039
     25 C           6.5121   -1.5341   17.9381 C.ar    1  UNL1        0.0012
     26 C           7.6393   -1.8010   18.8911 C.ar    1  UNL1        0.0147
     27 C           7.5087   -2.8812   19.9236 C.ar    1  UNL1        0.0504
     28 C           6.2508   -3.6945   20.0032 C.ar    1  UNL1        0.0185
     29 F           2.6080   -5.0544   19.2092 F       1  UNL1       -0.1659
     30 C           3.8658   -4.2410   19.1297 C.3     1  UNL1        0.4186
     31 F           3.1522   -3.0767   19.7503 F       1  UNL1       -0.1659
     32 F           4.5795   -5.4053   18.5091 F       1  UNL1       -0.1659
@<TRIPOS>BOND
     1    29    30    1
     2    30    31    1
     3    30    32    1
     4    30    23    1
     5    23    24   ar
     6    24    25   ar
     7    25    26   ar
     8    26    27   ar
     9    27    21    1
    10    21     1    1
    11     1     2   ar
    12     2     3   ar
    13     3     4   ar
    14     4     5   ar
    15     5     6    1
    16     6     7    1
    17     7     8    1
    18     8     9    1
    19     9    10   ar
    20    10    11   ar
    21    11    12   ar
    22    12    15    1
    23    15    16   ar
    24    16    17   ar
    25    17    18   ar
    26    18    19   ar
    27    19    20   ar
    28    12    13   ar
    29    13    14   ar
    30    27    28   ar
    31    28    23   ar
    32     5     1   ar
    33    14     9   ar
    34    14     4    1
    35    20    15   ar
    36    21    22    1
@<TRIPOS>MOLECULE
*****
 32 36 0 0 0
SMALL
GASTEIGER

@<TRIPOS>ATOM
      1 C          -1.1272    3.4027   20.1056 C.ar    1  UNL1        0.2224
      2 N          -1.3831    2.0858   20.7766 N.ar    1  UNL1       -0.1127
      3 N          -0.1927    1.2049   20.5380 N.ar    1  UNL1       -0.1273
      4 C           0.7989    1.9774   19.7194 C.ar    1  UNL1        0.1704
      5 N           0.2213    3.3357   19.4522 N.ar    1  UNL1       -0.2796
      6 C           0.8231    4.4725   18.6805 C.3     1  UNL1        0.1574
      7 C           2.1510    4.5319   17.9855 C.3     1  UNL1        0.2299
      8 O           3.2051    3.4690   17.8905 O.3     1  UNL1       -0.4733
      9 C           3.1918    2.0842   18.4671 C.ar    1  UNL1        0.1415
     10 C           4.4519    1.3408   18.1366 C.ar    1  UNL1        0.0370
     11 C           4.6412   -0.0664   18.6200 C.ar    1  UNL1        0.0031
     12 C           3.5703   -0.7303   19.4340 C.ar    1  UNL1        0.0004
     13 C           2.3101    0.0131   19.7644 C.ar    1  UNL1        0.0061
     14 C           2.1209    1.4204   19.2810 C.ar    1  UNL1        0.0699
     15 C           3.7596   -2.1376   19.9174 C.ar    1  UNL1        0.0031
     16 C           4.1727   -2.3940   21.3364 C.ar    1  UNL1        0.0207
     17 C           4.3620   -3.8013   21.8199 C.ar    1  UNL1        0.0989
     18 N           4.1382   -4.9522   20.8843 N.ar    1  UNL1       -0.2423
     19 C           3.7251   -4.6958   19.4652 C.ar    1  UNL1        0.0989
     20 C           3.5358   -3.2885   18.9818 C.ar    1  UNL1        0.0207
     21 N          -2.0567    4.5799   20.0906 N.pl3   1  UNL1       -0.2826
     22 H          -1.6983    5.4914   20.1908 H       1  UNL1        0.1551
     23 C          -5.9181    4.2471   20.9442 C.ar    1  UNL1        0.0726
     24 C          -6.4833    3.9454   19.5879 C.ar    1  UNL1        0.0039
     25 C          -5.5729    3.8552   18.3991 C.ar    1  UNL1        0.0012
     26 C          -4.0974    4.0667   18.5667 C.ar    1  UNL1        0.0147
     27 C          -3.5322    4.3684   19.9230 C.ar    1  UNL1        0.0504
     28 C          -4.4426    4.4586   21.1118 C.ar    1  UNL1        0.0185
     29 F          -7.7388    4.4274   23.3216 F       1  UNL1       -0.1659
     30 C          -6.8285    4.3373   22.1329 C.3     1  UNL1        0.4186
     31 F          -7.6668    5.3522   21.4139 F       1  UNL1       -0.1659
     32 F          -5.9901    3.3223   22.8519 F       1  UNL1       -0.1659
@<TRIPOS>BOND
     1    29    30    1
     2    30    31    1
     3    30    32    1
     4    30    23    1
     5    23    24   ar
     6    24    25   ar
     7    25    26   ar
     8    26    27   ar
     9    27    21    1
    10    21     1    1
    11     1     2   ar
    12     2     3   ar
    13     3     4   ar
    14     4     5   ar
    15     5     6    1
    16     6     7    1
    17     7     8    1
    18     8     9    1
    19     9    10   ar
    20    10    11   ar
    21    11    12   ar
    22    12    15    1
    23    15    16   ar
    24    16    17   ar
    25    17    18   ar
    26    18    19   ar
    27    19    20   ar
    28    12    13   ar
    29    13    14   ar
    30    27    28   ar
    31    28    23   ar
    32     5     1   ar
    33    14     9   ar
    34    14     4    1
    35    20    15   ar
    36    21    22    1
@<TRIPOS>MOLECULE
*****
 32 36 0 0 0
SMALL
GASTEIGER

@<TRIPOS>ATOM
      1 C          -4.4564  -19.7559   21.7635 C.ar    1  UNL1        0.2224
      2 N          -5.6847  -20.5219   21.3705 N.ar    1  UNL1       -0.1127
      3 N          -6.8807  -19.7721   21.8778 N.ar    1  UNL1       -0.1273
      4 C          -6.3915  -18.5427   22.5845 C.ar    1  UNL1        0.1704
      5 N          -4.8932  -18.5327   22.5138 N.ar    1  UNL1       -0.2796
      6 C          -3.9376  -17.5183   23.0686 C.3     1  UNL1        0.1574
      7 C          -4.2442  -16.2634   23.8311 C.3     1  UNL1        0.2299
      8 O          -5.5822  -15.7131   24.2270 O.3     1  UNL1       -0.4733
      9 C          -6.9441  -16.2815   23.9583 C.ar    1  UNL1        0.1415
     10 C          -8.0237  -15.4119   24.5311 C.ar    1  UNL1        0.0370
     11 C          -9.4635  -15.8015   24.3728 C.ar    1  UNL1        0.0031
     12 C          -9.8237  -17.0609   23.6418 C.ar    1  UNL1        0.0004
     13 C          -8.7441  -17.9305   23.0691 C.ar    1  UNL1        0.0061
     14 C          -7.3043  -17.5409   23.2273 C.ar    1  UNL1        0.0699
     15 C         -11.2636  -17.4505   23.4836 C.ar    1  UNL1        0.0031
     16 C         -12.0070  -17.0830   22.2337 C.ar    1  UNL1        0.0207
     17 C         -13.4469  -17.4727   22.0755 C.ar    1  UNL1        0.0989
     18 N         -14.1433  -18.2298   23.1672 N.ar    1  UNL1       -0.2423
     19 C         -13.3998  -18.5972   24.4171 C.ar    1  UNL1        0.0989
     20 C         -11.9600  -18.2076   24.5753 C.ar    1  UNL1        0.0207
     21 N          -3.0399  -20.1448   21.4596 N.pl3   1  UNL1       -0.2826
     22 H          -2.6849  -21.0039   21.7840 H       1  UNL1        0.1551
     23 C          -1.7863  -17.7306   18.5701 C.ar    1  UNL1        0.0726
     24 C          -0.4131  -17.3850   19.0652 C.ar    1  UNL1        0.0039
     25 C           0.0844  -17.9594   20.3585 C.ar    1  UNL1        0.0012
     26 C          -0.7912  -18.8793   21.1566 C.ar    1  UNL1        0.0147
     27 C          -2.1643  -19.2249   20.6615 C.ar    1  UNL1        0.0504
     28 C          -2.6618  -18.6505   19.3682 C.ar    1  UNL1        0.0185
     29 F          -2.7813  -16.5818   15.9836 F       1  UNL1       -0.1659
     30 C          -2.2838  -17.1562   17.2768 C.3     1  UNL1        0.4186
     31 F          -1.0905  -17.7228   16.5661 F       1  UNL1       -0.1659
     32 F          -3.4770  -16.5896   17.9875 F       1  UNL1       -0.1659
@<TRIPOS>BOND
     1    29    30    1
     2    30    31    1
     3    30    32    1
     4    30    23    1
     5    23    24   ar
     6    24    25   ar
     7    25    26   ar
     8    26    27   ar
     9    27    21    1
    10    21     1    1
    11     1     2   ar
    12     2     3   ar
    13     3     4   ar
    14     4     5   ar
    15     5     6    1
    16     6     7    1
    17     7     8    1
    18     8     9    1
    19     9    10   ar
    20    10    11   ar
    21    11    12   ar
    22    12    15    1
    23    15    16   ar
    24    16    17   ar
    25    17    18   ar
    26    18    19   ar
    27    19    20   ar
    28    12    13   ar
    29    13    14   ar
    30    27    28   ar
    31    28    23   ar
    32     5     1   ar
    33    14     9   ar
    34    14     4    1
    35    20    15   ar
    36    21    22    1
@<TRIPOS>MOLECULE
*****
 32 36 0 0 0
SMALL
GASTEIGER

@<TRIPOS>ATOM
      1 C          -0.5627    3.1622   19.2690 C.ar    1  UNL1        0.2224
      2 N           0.0588    2.2670   18.2383 N.ar    1  UNL1       -0.1127
      3 N           0.9328    1.2774   18.9502 N.ar    1  UNL1       -0.1273
      4 C           0.8515    1.5610   20.4209 C.ar    1  UNL1        0.1704
      5 N          -0.0728    2.7259   20.6179 N.ar    1  UNL1       -0.2796
      6 C          -0.4812    3.3893   21.8997 C.3     1  UNL1        0.1574
      7 C          -0.0661    3.0518   23.3011 C.3     1  UNL1        0.2299
      8 O           0.8599    1.9675   23.7667 O.3     1  UNL1       -0.4733
      9 C           1.5995    0.9529   22.9460 C.ar    1  UNL1        0.1415
     10 C           2.4232    0.0444   23.8098 C.ar    1  UNL1        0.0370
     11 C           3.2431   -1.0450   23.1846 C.ar    1  UNL1        0.0031
     12 C           3.2393   -1.2259   21.6955 C.ar    1  UNL1        0.0004
     13 C           2.4157   -0.3174   20.8317 C.ar    1  UNL1        0.0061
     14 C           1.5958    0.7720   21.4570 C.ar    1  UNL1        0.0699
     15 C           4.0593   -2.3153   21.0703 C.ar    1  UNL1        0.0031
     16 C           5.3441   -2.7490   21.7115 C.ar    1  UNL1        0.0207
     17 C           6.1641   -3.8384   21.0863 C.ar    1  UNL1        0.0989
     18 N           5.6992   -4.4942   19.8199 N.ar    1  UNL1       -0.2423
     19 C           4.4143   -4.0605   19.1786 C.ar    1  UNL1        0.0989
     20 C           3.5944   -2.9711   19.8039 C.ar    1  UNL1        0.0207
     21 N          -1.5082    4.2948   18.9983 N.pl3   1  UNL1       -0.2826
     22 H          -1.1566    5.1887   18.7825 H       1  UNL1        0.1551
     23 C          -5.1666    3.7621   20.4413 C.ar    1  UNL1        0.0726
     24 C          -5.9519    3.6070   19.1728 C.ar    1  UNL1        0.0039
     25 C          -5.2559    3.6812   17.8460 C.ar    1  UNL1        0.0012
     26 C          -3.7747    3.9104   17.7879 C.ar    1  UNL1        0.0147
     27 C          -2.9894    4.0655   19.0564 C.ar    1  UNL1        0.0504
     28 C          -3.6854    3.9914   20.3832 C.ar    1  UNL1        0.0185
     29 F          -6.5584    3.6138   23.0947 F       1  UNL1       -0.1659
     30 C          -5.8626    3.6880   21.7681 C.3     1  UNL1        0.4186
     31 F          -6.9882    4.5166   21.2239 F       1  UNL1       -0.1659
     32 F          -4.7368    2.8593   22.3122 F       1  UNL1       -0.1659
@<TRIPOS>BOND
     1    29    30    1
     2    30    31    1
     3    30    32    1
     4    30    23    1
     5    23    24   ar
     6    24    25   ar
     7    25    26   ar
     8    26    27   ar
     9    27    21    1
    10    21     1    1
    11     1     2   ar
    12     2     3   ar
    13     3     4   ar
    14     4     5   ar
    15     5     6    1
    16     6     7    1
    17     7     8    1
    18     8     9    1
    19     9    10   ar
    20    10    11   ar
    21    11    12   ar
    22    12    15    1
    23    15    16   ar
    24    16    17   ar
    25    17    18   ar
    26    18    19   ar
    27    19    20   ar
    28    12    13   ar
    29    13    14   ar
    30    27    28   ar
    31    28    23   ar
    32     5     1   ar
    33    14     9   ar
    34    14     4    1
    35    20    15   ar
    36    21    22    1
@<TRIPOS>MOLECULE
*****
 32 36 0 0 0
SMALL
GASTEIGER

@<TRIPOS>ATOM
      1 C          -0.2267    3.2329   23.7548 C.ar    1  UNL1        0.2224
      2 N           0.4351    2.0882   24.4631 N.ar    1  UNL1       -0.1127
      3 N           1.0554    1.1984   23.4271 N.ar    1  UNL1       -0.1273
      4 C           0.7769    1.7931   22.0785 C.ar    1  UNL1        0.1704
      5 N          -0.0154    3.0505   22.2811 N.ar    1  UNL1       -0.2796
      6 C          -0.5371    4.0040   21.2472 C.3     1  UNL1        0.1574
      7 C          -0.3952    3.9356   19.7555 C.3     1  UNL1        0.2299
      8 O           0.3034    2.8967   18.9293 O.3     1  UNL1       -0.4733
      9 C           1.0327    1.6697   19.3905 C.ar    1  UNL1        0.1415
     10 C           1.5895    0.8955   18.2328 C.ar    1  UNL1        0.0370
     11 C           2.3571   -0.3699   18.4766 C.ar    1  UNL1        0.0031
     12 C           2.5678   -0.8611   19.8782 C.ar    1  UNL1        0.0004
     13 C           2.0110   -0.0868   21.0359 C.ar    1  UNL1        0.0061
     14 C           1.2434    1.1786   20.7921 C.ar    1  UNL1        0.0699
     15 C           3.3355   -2.1266   20.1220 C.ar    1  UNL1        0.0031
     16 C           3.9100   -2.4056   21.4792 C.ar    1  UNL1        0.0207
     17 C           4.6776   -3.6711   21.7230 C.ar    1  UNL1        0.0989
     18 N           4.8707   -4.6575   20.6095 N.ar    1  UNL1       -0.2423
     19 C           4.2961   -4.3784   19.2523 C.ar    1  UNL1        0.0989
     20 C           3.5285   -3.1130   19.0085 C.ar    1  UNL1        0.0207
     21 N          -0.9694    4.3618   24.4061 N.pl3   1  UNL1       -0.2826
     22 H          -0.4993    5.1984   24.6259 H       1  UNL1        0.1551
     23 C          -4.8954    4.0334   23.9282 C.ar    1  UNL1        0.0726
     24 C          -5.3465    3.9247   25.3546 C.ar    1  UNL1        0.0039
     25 C          -4.3385    3.9617   26.4649 C.ar    1  UNL1        0.0012
     26 C          -2.8795    4.1074   26.1487 C.ar    1  UNL1        0.0147
     27 C          -2.4284    4.2161   24.7222 C.ar    1  UNL1        0.0504
     28 C          -3.4364    4.1791   23.6120 C.ar    1  UNL1        0.0185
     29 F          -6.9114    3.9594   21.7078 F       1  UNL1       -0.1659
     30 C          -5.9034    3.9963   22.8179 C.3     1  UNL1        0.4186
     31 F          -5.0901    2.9507   22.1144 F       1  UNL1       -0.1659
     32 F          -6.7167    5.0420   23.5216 F       1  UNL1       -0.1659
@<TRIPOS>BOND
     1    29    30    1
     2    30    31    1
     3    30    32    1
     4    30    23    1
     5    23    24   ar
     6    24    25   ar
     7    25    26   ar
     8    26    27   ar
     9    27    21    1
    10    21     1    1
    11     1     2   ar
    12     2     3   ar
    13     3     4   ar
    14     4     5   ar
    15     5     6    1
    16     6     7    1
    17     7     8    1
    18     8     9    1
    19     9    10   ar
    20    10    11   ar
    21    11    12   ar
    22    12    15    1
    23    15    16   ar
    24    16    17   ar
    25    17    18   ar
    26    18    19   ar
    27    19    20   ar
    28    12    13   ar
    29    13    14   ar
    30    27    28   ar
    31    28    23   ar
    32     5     1   ar
    33    14     9   ar
    34    14     4    1
    35    20    15   ar
    36    21    22    1
@<TRIPOS>MOLECULE
*****
 32 36 0 0 0
SMALL
GASTEIGER

@<TRIPOS>ATOM
      1 C           3.0379    0.7672   22.4001 C.ar    1  UNL1        0.2224
      2 N           1.9563    1.3739   21.5563 N.ar    1  UNL1       -0.1127
      3 N           0.8635    1.8432   22.4704 N.ar    1  UNL1       -0.1273
      4 C           1.2698    1.5264   23.8792 C.ar    1  UNL1        0.1704
      5 N           2.6136    0.8614   23.8356 N.ar    1  UNL1       -0.2796
      6 C           3.4440    0.3554   24.9777 C.3     1  UNL1        0.1574
      7 C           3.1358    0.3893   26.4454 C.3     1  UNL1        0.2299
      8 O           1.9209    0.9377   27.1333 O.3     1  UNL1       -0.4733
      9 C           0.7142    1.5876   26.5237 C.ar    1  UNL1        0.1415
     10 C          -0.2774    1.9955   27.5726 C.ar    1  UNL1        0.0370
     11 C          -1.5586    2.6654   27.1734 C.ar    1  UNL1        0.0031
     12 C          -1.8484    2.9274   25.7251 C.ar    1  UNL1        0.0004
     13 C          -0.8569    2.5195   24.6762 C.ar    1  UNL1        0.0061
     14 C           0.4244    1.8496   25.0754 C.ar    1  UNL1        0.0699
     15 C          -3.1298    3.5974   25.3259 C.ar    1  UNL1        0.0031
     16 C          -4.0710    4.1036   26.3784 C.ar    1  UNL1        0.0207
     17 C          -5.3524    4.7735   25.9792 C.ar    1  UNL1        0.0989
     18 N          -5.6925    4.9372   24.5274 N.ar    1  UNL1       -0.2423
     19 C          -4.7511    4.4310   23.4749 C.ar    1  UNL1        0.0989
     20 C          -3.4698    3.7611   23.8742 C.ar    1  UNL1        0.0207
     21 N           4.3189    0.1709   21.8966 N.pl3   1  UNL1       -0.2826
     22 H           5.1712    0.3911   22.3376 H       1  UNL1        0.1551
     23 C           3.9333   -3.1382   19.7400 C.ar    1  UNL1        0.0726
     24 C           4.2666   -2.6246   18.3707 C.ar    1  UNL1        0.0039
     25 C           4.6173   -1.1791   18.1766 C.ar    1  UNL1        0.0012
     26 C           4.6347   -0.2473   19.3519 C.ar    1  UNL1        0.0147
     27 C           4.3015   -0.7609   20.7213 C.ar    1  UNL1        0.0504
     28 C           3.9508   -2.2064   20.9153 C.ar    1  UNL1        0.0185
     29 F           3.2319   -6.0291   20.1281 F       1  UNL1       -0.1659
     30 C           3.5826   -4.5837   19.9340 C.3     1  UNL1        0.4186
     31 F           2.8814   -4.5915   18.6081 F       1  UNL1       -0.1659
     32 F           4.2839   -4.5758   21.2600 F       1  UNL1       -0.1659
@<TRIPOS>BOND
     1    29    30    1
     2    30    31    1
     3    30    32    1
     4    30    23    1
     5    23    24   ar
     6    24    25   ar
     7    25    26   ar
     8    26    27   ar
     9    27    21    1
    10    21     1    1
    11     1     2   ar
    12     2     3   ar
    13     3     4   ar
    14     4     5   ar
    15     5     6    1
    16     6     7    1
    17     7     8    1
    18     8     9    1
    19     9    10   ar
    20    10    11   ar
    21    11    12   ar
    22    12    15    1
    23    15    16   ar
    24    16    17   ar
    25    17    18   ar
    26    18    19   ar
    27    19    20   ar
    28    12    13   ar
    29    13    14   ar
    30    27    28   ar
    31    28    23   ar
    32     5     1   ar
    33    14     9   ar
    34    14     4    1
    35    20    15   ar
    36    21    22    1
@<TRIPOS>MOLECULE
*****
 32 36 0 0 0
SMALL
GASTEIGER

@<TRIPOS>ATOM
      1 C           1.2586    2.6341   22.1512 C.ar    1  UNL1        0.2224
      2 N           0.1621    3.0013   21.1958 N.ar    1  UNL1       -0.1127
      3 N          -1.0691    3.3040   21.9974 N.ar    1  UNL1       -0.1273
      4 C          -0.7335    3.1239   23.4482 C.ar    1  UNL1        0.1704
      5 N           0.7051    2.7099   23.5432 N.ar    1  UNL1       -0.2796
      6 C           1.5125    2.4090   24.7711 C.3     1  UNL1        0.1574
      7 C           1.0807    2.4476   26.2071 C.3     1  UNL1        0.2299
      8 O          -0.2651    2.7969   26.7699 O.3     1  UNL1       -0.4733
      9 C          -1.5116    3.1937   26.0358 C.ar    1  UNL1        0.1415
     10 C          -2.6440    3.4599   26.9827 C.ar    1  UNL1        0.0370
     11 C          -3.9849    3.8717   26.4513 C.ar    1  UNL1        0.0031
     12 C          -4.1933    4.0172   24.9730 C.ar    1  UNL1        0.0004
     13 C          -3.0609    3.7510   24.0261 C.ar    1  UNL1        0.0061
     14 C          -1.7200    3.3392   24.5575 C.ar    1  UNL1        0.0699
     15 C          -5.5343    4.4290   24.4416 C.ar    1  UNL1        0.0031
     16 C          -5.9714    3.9795   23.0789 C.ar    1  UNL1        0.0207
     17 C          -7.3123    4.3913   22.5476 C.ar    1  UNL1        0.0989
     18 N          -8.2162    5.2526   23.3789 N.ar    1  UNL1       -0.2423
     19 C          -7.7791    5.7021   24.7417 C.ar    1  UNL1        0.0989
     20 C          -6.4382    5.2903   25.2730 C.ar    1  UNL1        0.0207
     21 N           2.6622    2.2573   21.7797 N.pl3   1  UNL1       -0.2826
     22 H           3.3934    2.9060   21.8969 H       1  UNL1        0.1551
     23 C           3.3885   -0.6696   19.1999 C.ar    1  UNL1        0.0726
     24 C           3.5306   -1.8381   20.1295 C.ar    1  UNL1        0.0039
     25 C           3.3832   -1.6415   21.6093 C.ar    1  UNL1        0.0012
     26 C           3.0937   -0.2764   22.1593 C.ar    1  UNL1        0.0147
     27 C           2.9516    0.8922   21.2297 C.ar    1  UNL1        0.0504
     28 C           3.0990    0.6955   19.7499 C.ar    1  UNL1        0.0185
     29 F           3.6832   -1.0629   16.2404 F       1  UNL1       -0.1659
     30 C           3.5358   -0.8662   17.7201 C.3     1  UNL1        0.4186
     31 F           2.8918    0.4668   17.4788 F       1  UNL1       -0.1659
     32 F           4.1798   -2.1993   17.9615 F       1  UNL1       -0.1659
@<TRIPOS>BOND
     1    29    30    1
     2    30    31    1
     3    30    32    1
     4    30    23    1
     5    23    24   ar
     6    24    25   ar
     7    25    26   ar
     8    26    27   ar
     9    27    21    1
    10    21     1    1
    11     1     2   ar
    12     2     3   ar
    13     3     4   ar
    14     4     5   ar
    15     5     6    1
    16     6     7    1
    17     7     8    1
    18     8     9    1
    19     9    10   ar
    20    10    11   ar
    21    11    12   ar
    22    12    15    1
    23    15    16   ar
    24    16    17   ar
    25    17    18   ar
    26    18    19   ar
    27    19    20   ar
    28    12    13   ar
    29    13    14   ar
    30    27    28   ar
    31    28    23   ar
    32     5     1   ar
    33    14     9   ar
    34    14     4    1
    35    20    15   ar
    36    21    22    1
