@<TRIPOS>MOLECULE
*****
 21 22 0 0 0
SMALL
GASTEIGER

@<TRIPOS>ATOM
      1 C         -12.0964  -17.3139   22.1161 C.2     1  UNL1        0.4049
      2 O         -12.1165  -15.9650   21.4604 O.2     1  UNL1       -0.2262
      3 N         -10.8146  -18.0886   22.1988 N.am    1  UNL1       -0.2454
      4 C         -10.7946  -19.4375   22.8545 C.3     1  UNL1        0.1011
      5 C          -9.5128  -20.2122   22.9372 C.3     1  UNL1        0.0443
      6 C          -8.2511  -19.6380   22.3643 C.2     1  UNL1       -0.0326
      7 C          -6.9693  -20.4128   22.4470 C.2     1  UNL1        0.0412
      8 C          -8.2711  -18.2891   21.7086 C.3     1  UNL1        0.0443
      9 C          -9.5529  -17.5144   21.6259 C.3     1  UNL1        0.1011
     10 C          -5.7076  -19.8386   21.8741 C.1     1  UNL1       -0.0598
     11 C          -4.4458  -19.2643   21.3011 C.1     1  UNL1       -0.0597
     12 C          -3.1841  -18.6901   20.7281 C.ar    1  UNL1        0.0442
     13 C          -2.0234  -18.3837   21.6276 C.ar    1  UNL1        0.0084
     14 C          -0.7617  -17.8095   21.0547 C.ar    1  UNL1        0.0029
     15 C          -0.6605  -17.5417   19.5823 C.ar    1  UNL1        0.0297
     16 C          -1.8211  -17.8480   18.6828 C.ar    1  UNL1        0.1408
     17 F          -1.7200  -17.5802   17.2104 F       1  UNL1       -0.2042
     18 C          -3.0830  -18.4222   19.2557 C.ar    1  UNL1        0.0379
     19 O         -13.3581  -17.8881   22.6890 O.3     1  UNL1       -0.4345
     20 C         -14.8198  -18.4659   24.7578 C.3     1  UNL1        0.0513
     21 C         -13.6452  -17.7537   24.1552 C.3     1  UNL1        0.2102
@<TRIPOS>BOND
     1    20    21    1
     2    21    19    1
     3    19     1    1
     4     1     2    2
     5     1     3   am
     6     3     4    1
     7     4     5    1
     8     5     6    1
     9     6     7    2
    10     7    10    1
    11    10    11    3
    12    11    12    1
    13    12    13   ar
    14    13    14   ar
    15    14    15   ar
    16    15    16   ar
    17    16    17    1
    18    16    18   ar
    19     6     8    1
    20     8     9    1
    21     9     3    1
    22    18    12   ar
@<TRIPOS>MOLECULE
*****
 21 22 0 0 0
SMALL
GASTEIGER

@<TRIPOS>ATOM
      1 C           0.9098    0.2226   19.4747 C.2     1  UNL1        0.4049
      2 O          -0.0851    0.1378   20.5941 O.2     1  UNL1       -0.2262
      3 N           2.2368   -0.4660   19.5969 N.am    1  UNL1       -0.2454
      4 C           3.2316   -0.3812   18.4776 C.3     1  UNL1        0.1011
      5 C           4.5586   -1.0698   18.5998 C.3     1  UNL1        0.0443
      6 C           4.8907   -1.8432   19.8413 C.2     1  UNL1       -0.0326
      7 C           6.2177   -2.5318   19.9635 C.2     1  UNL1        0.0412
      8 C           3.8959   -1.9280   20.9606 C.3     1  UNL1        0.0443
      9 C           2.5689   -1.2394   20.8385 C.3     1  UNL1        0.1011
     10 C           6.5498   -3.3052   21.2050 C.1     1  UNL1       -0.0598
     11 C           6.8820   -4.0787   22.4466 C.1     1  UNL1       -0.0597
     12 C           7.2141   -4.8521   23.6881 C.ar    1  UNL1        0.0442
     13 C           6.7005   -4.3899   25.0196 C.ar    1  UNL1        0.0084
     14 C           7.0327   -5.1634   26.2611 C.ar    1  UNL1        0.0029
     15 C           7.8783   -6.3990   26.1713 C.ar    1  UNL1        0.0297
     16 C           8.3918   -6.8612   24.8399 C.ar    1  UNL1        0.1408
     17 F           9.2375   -8.0969   24.7501 F       1  UNL1       -0.2042
     18 C           8.0597   -6.0878   23.5983 C.ar    1  UNL1        0.0379
     19 O           0.5776    0.9961   18.2332 O.3     1  UNL1       -0.4345
     20 C           1.8331    3.2365   18.6264 C.3     1  UNL1        0.0513
     21 C           0.5810    2.4958   18.2605 C.3     1  UNL1        0.2102
@<TRIPOS>BOND
     1    20    21    1
     2    21    19    1
     3    19     1    1
     4     1     2    2
     5     1     3   am
     6     3     4    1
     7     4     5    1
     8     5     6    1
     9     6     7    2
    10     7    10    1
    11    10    11    3
    12    11    12    1
    13    12    13   ar
    14    13    14   ar
    15    14    15   ar
    16    15    16   ar
    17    16    17    1
    18    16    18   ar
    19     6     8    1
    20     8     9    1
    21     9     3    1
    22    18    12   ar
@<TRIPOS>MOLECULE
*****
 21 22 0 0 0
SMALL
GASTEIGER

@<TRIPOS>ATOM
      1 C           5.3832   -3.3829   20.9207 C.2     1  UNL1        0.4049
      2 O           6.0373   -4.2903   21.9200 O.2     1  UNL1       -0.2262
      3 N           4.4369   -2.3151   21.3839 N.am    1  UNL1       -0.2454
      4 C           3.7828   -1.4077   20.3846 C.3     1  UNL1        0.1011
      5 C           2.8365   -0.3400   20.8477 C.3     1  UNL1        0.0443
      6 C           2.5443   -0.1797   22.3102 C.2     1  UNL1       -0.0326
      7 C           1.5980    0.8880   22.7734 C.2     1  UNL1        0.0412
      8 C           3.1984   -1.0871   23.3095 C.3     1  UNL1        0.0443
      9 C           4.1447   -2.1549   22.8463 C.3     1  UNL1        0.1011
     10 C           1.3059    1.0483   24.2359 C.1     1  UNL1       -0.0598
     11 C           1.0136    1.2086   25.6984 C.1     1  UNL1       -0.0597
     12 C           0.7214    1.3688   27.1609 C.ar    1  UNL1        0.0442
     13 C           1.6324    2.1929   28.0218 C.ar    1  UNL1        0.0084
     14 C           1.3402    2.3532   29.4843 C.ar    1  UNL1        0.0029
     15 C           0.1371    1.6894   30.0859 C.ar    1  UNL1        0.0297
     16 C          -0.7739    0.8654   29.2251 C.ar    1  UNL1        0.1408
     17 F          -1.9770    0.2017   29.8267 F       1  UNL1       -0.2042
     18 C          -0.4817    0.7051   27.7625 C.ar    1  UNL1        0.0379
     19 O           5.6754   -3.5431   19.4582 O.3     1  UNL1       -0.4345
     20 C           3.5552   -5.0196   19.1842 C.3     1  UNL1        0.0513
     21 C           4.8143   -4.4360   18.6148 C.3     1  UNL1        0.2102
@<TRIPOS>BOND
     1    20    21    1
     2    21    19    1
     3    19     1    1
     4     1     2    2
     5     1     3   am
     6     3     4    1
     7     4     5    1
     8     5     6    1
     9     6     7    2
    10     7    10    1
    11    10    11    3
    12    11    12    1
    13    12    13   ar
    14    13    14   ar
    15    14    15   ar
    16    15    16   ar
    17    16    17    1
    18    16    18   ar
    19     6     8    1
    20     8     9    1
    21     9     3    1
    22    18    12   ar
@<TRIPOS>MOLECULE
*****
 21 22 0 0 0
SMALL
GASTEIGER

@<TRIPOS>ATOM
      1 C           2.4168    0.0543   30.7451 C.2     1  UNL1        0.4049
      2 O           1.0127    0.4743   30.4256 O.2     1  UNL1       -0.2262
      3 N           3.2950   -0.5087   29.6672 N.am    1  UNL1       -0.2454
      4 C           4.6990   -0.9287   29.9867 C.3     1  UNL1        0.1011
      5 C           5.5772   -1.4916   28.9088 C.3     1  UNL1        0.0443
      6 C           5.0512   -1.6346   27.5113 C.2     1  UNL1       -0.0326
      7 C           5.9294   -2.1975   26.4334 C.2     1  UNL1        0.0412
      8 C           3.6472   -1.2146   27.1918 C.3     1  UNL1        0.0443
      9 C           2.7690   -0.6516   28.2697 C.3     1  UNL1        0.1011
     10 C           5.4035   -2.3405   25.0359 C.1     1  UNL1       -0.0598
     11 C           4.8775   -2.4835   23.6384 C.1     1  UNL1       -0.0597
     12 C           4.3516   -2.6264   22.2409 C.ar    1  UNL1        0.0442
     13 C           3.5609   -1.5134   21.6196 C.ar    1  UNL1        0.0084
     14 C           3.0350   -1.6563   20.2221 C.ar    1  UNL1        0.0029
     15 C           3.2997   -2.9122   19.4459 C.ar    1  UNL1        0.0297
     16 C           4.0904   -4.0253   20.0672 C.ar    1  UNL1        0.1408
     17 F           4.3552   -5.2812   19.2910 F       1  UNL1       -0.2042
     18 C           4.6164   -3.8824   21.4647 C.ar    1  UNL1        0.0379
     19 O           2.9427    0.1972   32.1426 O.3     1  UNL1       -0.4345
     20 C           2.0074    2.2183   33.4807 C.3     1  UNL1        0.0513
     21 C           3.1322    1.5614   32.7367 C.3     1  UNL1        0.2102
@<TRIPOS>BOND
     1    20    21    1
     2    21    19    1
     3    19     1    1
     4     1     2    2
     5     1     3   am
     6     3     4    1
     7     4     5    1
     8     5     6    1
     9     6     7    2
    10     7    10    1
    11    10    11    3
    12    11    12    1
    13    12    13   ar
    14    13    14   ar
    15    14    15   ar
    16    15    16   ar
    17    16    17    1
    18    16    18   ar
    19     6     8    1
    20     8     9    1
    21     9     3    1
    22    18    12   ar
@<TRIPOS>MOLECULE
*****
 21 22 0 0 0
SMALL
GASTEIGER

@<TRIPOS>ATOM
      1 C           6.6632   -2.6123   28.4516 C.2     1  UNL1        0.4049
      2 O           6.0565   -1.3767   29.0476 O.2     1  UNL1       -0.2262
      3 N           6.4274   -2.9420   27.0074 N.am    1  UNL1       -0.2454
      4 C           7.0341   -4.1776   26.4115 C.3     1  UNL1        0.1011
      5 C           6.7983   -4.5073   24.9673 C.3     1  UNL1        0.0443
      6 C           5.9558   -3.6014   24.1191 C.2     1  UNL1       -0.0326
      7 C           5.7199   -3.9312   22.6749 C.2     1  UNL1        0.0412
      8 C           5.3490   -2.3659   24.7150 C.3     1  UNL1        0.0443
      9 C           5.5848   -2.0362   26.1592 C.3     1  UNL1        0.1011
     10 C           4.8774   -3.0253   21.8266 C.1     1  UNL1       -0.0598
     11 C           4.0348   -2.1194   20.9784 C.1     1  UNL1       -0.0597
     12 C           3.1923   -1.2135   20.1302 C.ar    1  UNL1        0.0442
     13 C           3.6970   -0.7523   18.7950 C.ar    1  UNL1        0.0084
     14 C           2.8545    0.1535   17.9468 C.ar    1  UNL1        0.0029
     15 C           1.5072    0.5982   18.4337 C.ar    1  UNL1        0.0297
     16 C           1.0024    0.1370   19.7687 C.ar    1  UNL1        0.1408
     17 F          -0.3449    0.5817   20.2556 F       1  UNL1       -0.2042
     18 C           1.8450   -0.7689   20.6171 C.ar    1  UNL1        0.0379
     19 O           7.5057   -3.5181   29.2998 O.3     1  UNL1       -0.4345
     20 C           6.7729   -3.9347   31.7574 C.3     1  UNL1        0.0513
     21 C           6.8599   -4.3941   30.3321 C.3     1  UNL1        0.2102
@<TRIPOS>BOND
     1    20    21    1
     2    21    19    1
     3    19     1    1
     4     1     2    2
     5     1     3   am
     6     3     4    1
     7     4     5    1
     8     5     6    1
     9     6     7    2
    10     7    10    1
    11    10    11    3
    12    11    12    1
    13    12    13   ar
    14    13    14   ar
    15    14    15   ar
    16    15    16   ar
    17    16    17    1
    18    16    18   ar
    19     6     8    1
    20     8     9    1
    21     9     3    1
    22    18    12   ar
@<TRIPOS>MOLECULE
*****
 21 22 0 0 0
SMALL
GASTEIGER

@<TRIPOS>ATOM
      1 C           7.5983   -5.2928   26.8998 C.2     1  UNL1        0.4049
      2 O           6.6248   -4.7194   27.8865 O.2     1  UNL1       -0.2262
      3 N           7.4691   -4.9652   25.4418 N.am    1  UNL1       -0.2454
      4 C           8.4425   -5.5386   24.4551 C.3     1  UNL1        0.1011
      5 C           8.3134   -5.2110   22.9970 C.3     1  UNL1        0.0443
      6 C           7.2108   -4.3099   22.5256 C.2     1  UNL1       -0.0326
      7 C           7.0816   -3.9823   21.0676 C.2     1  UNL1        0.0412
      8 C           6.2374   -3.7365   23.5123 C.3     1  UNL1        0.0443
      9 C           6.3665   -4.0641   24.9704 C.3     1  UNL1        0.1011
     10 C           5.9790   -3.0812   20.5961 C.1     1  UNL1       -0.0598
     11 C           4.8763   -2.1801   20.1247 C.1     1  UNL1       -0.0597
     12 C           3.7737   -1.2790   19.6533 C.ar    1  UNL1        0.0442
     13 C           4.0033   -0.3567   18.4928 C.ar    1  UNL1        0.0084
     14 C           2.9007    0.5444   18.0214 C.ar    1  UNL1        0.0029
     15 C           1.5685    0.5232   18.7104 C.ar    1  UNL1        0.0297
     16 C           1.3389   -0.3991   19.8708 C.ar    1  UNL1        0.1408
     17 F           0.0066   -0.4203   20.5598 F       1  UNL1       -0.2042
     18 C           2.4415   -1.3002   20.3423 C.ar    1  UNL1        0.0379
     19 O           8.7009   -6.1939   27.3713 O.3     1  UNL1       -0.4345
     20 C           7.9999   -8.6917   27.2310 C.3     1  UNL1        0.0513
     21 C           8.3715   -7.4907   28.0493 C.3     1  UNL1        0.2102
@<TRIPOS>BOND
     1    20    21    1
     2    21    19    1
     3    19     1    1
     4     1     2    2
     5     1     3   am
     6     3     4    1
     7     4     5    1
     8     5     6    1
     9     6     7    2
    10     7    10    1
    11    10    11    3
    12    11    12    1
    13    12    13   ar
    14    13    14   ar
    15    14    15   ar
    16    15    16   ar
    17    16    17    1
    18    16    18   ar
    19     6     8    1
    20     8     9    1
    21     9     3    1
    22    18    12   ar
@<TRIPOS>MOLECULE
*****
 21 22 0 0 0
SMALL
GASTEIGER

@<TRIPOS>ATOM
      1 C         -18.2237    1.0768   20.6235 C.2     1  UNL1        0.4049
      2 O         -19.0412   -0.0485   21.1850 O.2     1  UNL1       -0.2262
      3 N         -16.8805    0.7981   20.0168 N.am    1  UNL1       -0.2454
      4 C         -16.0631    1.9235   19.4554 C.3     1  UNL1        0.1011
      5 C         -14.7199    1.6447   18.8486 C.3     1  UNL1        0.0443
      6 C         -14.1941    0.2407   18.8033 C.2     1  UNL1       -0.0326
      7 C         -12.8509   -0.0381   18.1966 C.2     1  UNL1        0.0412
      8 C         -15.0116   -0.8847   19.3648 C.3     1  UNL1        0.0443
      9 C         -16.3548   -0.6060   19.9715 C.3     1  UNL1        0.1011
     10 C         -12.3252   -1.4422   18.1513 C.1     1  UNL1       -0.0598
     11 C         -11.7995   -2.8463   18.1061 C.1     1  UNL1       -0.0597
     12 C         -11.2737   -4.2504   18.0608 C.ar    1  UNL1        0.0442
     13 C         -11.7460   -5.1942   16.9947 C.ar    1  UNL1        0.0084
     14 C         -11.2203   -6.5982   16.9495 C.ar    1  UNL1        0.0029
     15 C         -10.2222   -7.0587   17.9702 C.ar    1  UNL1        0.0297
     16 C          -9.7499   -6.1151   19.0362 C.ar    1  UNL1        0.1408
     17 F          -8.7519   -6.5755   20.0570 F       1  UNL1       -0.2042
     18 C         -10.2757   -4.7109   19.0815 C.ar    1  UNL1        0.0379
     19 O         -18.7495    2.4809   20.6688 O.3     1  UNL1       -0.4345
     20 C         -17.3448    3.4392   22.6332 C.3     1  UNL1        0.0513
     21 C         -18.6645    3.2730   21.9398 C.3     1  UNL1        0.2102
@<TRIPOS>BOND
     1    20    21    1
     2    21    19    1
     3    19     1    1
     4     1     2    2
     5     1     3   am
     6     3     4    1
     7     4     5    1
     8     5     6    1
     9     6     7    2
    10     7    10    1
    11    10    11    3
    12    11    12    1
    13    12    13   ar
    14    13    14   ar
    15    14    15   ar
    16    15    16   ar
    17    16    17    1
    18    16    18   ar
    19     6     8    1
    20     8     9    1
    21     9     3    1
    22    18    12   ar
@<TRIPOS>MOLECULE
*****
 21 22 0 0 0
SMALL
GASTEIGER

@<TRIPOS>ATOM
      1 C           4.0537   -1.2883   17.8443 C.2     1  UNL1        0.4049
      2 O           3.8907   -1.1837   16.3568 O.2     1  UNL1       -0.2262
      3 N           3.0979   -0.5768   18.7554 N.am    1  UNL1       -0.2454
      4 C           3.2609   -0.6814   20.2428 C.3     1  UNL1        0.1011
      5 C           2.3050    0.0301   21.1539 C.3     1  UNL1        0.0443
      6 C           1.1861    0.8461   20.5776 C.2     1  UNL1       -0.0326
      7 C           0.2302    1.5575   21.4887 C.2     1  UNL1        0.0412
      8 C           1.0231    0.9506   19.0902 C.3     1  UNL1        0.0443
      9 C           1.9790    0.2392   18.1791 C.3     1  UNL1        0.1011
     10 C          -0.8887    2.3735   20.9124 C.1     1  UNL1       -0.0598
     11 C          -2.0077    3.1895   20.3361 C.1     1  UNL1       -0.0597
     12 C          -3.1266    4.0055   19.7598 C.ar    1  UNL1        0.0442
     13 C          -2.8273    5.2907   19.0463 C.ar    1  UNL1        0.0084
     14 C          -3.9462    6.1067   18.4700 C.ar    1  UNL1        0.0029
     15 C          -5.3644    5.6376   18.6072 C.ar    1  UNL1        0.0297
     16 C          -5.6636    4.3526   19.3206 C.ar    1  UNL1        0.1408
     17 F          -7.0818    3.8836   19.4578 F       1  UNL1       -0.2042
     18 C          -4.5447    3.5365   19.8970 C.ar    1  UNL1        0.0379
     19 O           5.1726   -2.1043   18.4206 O.3     1  UNL1       -0.4345
     20 C           3.6883   -4.1592   18.9901 C.3     1  UNL1        0.0513
     21 C           5.0136   -3.5871   18.5819 C.3     1  UNL1        0.2102
@<TRIPOS>BOND
     1    20    21    1
     2    21    19    1
     3    19     1    1
     4     1     2    2
     5     1     3   am
     6     3     4    1
     7     4     5    1
     8     5     6    1
     9     6     7    2
    10     7    10    1
    11    10    11    3
    12    11    12    1
    13    12    13   ar
    14    13    14   ar
    15    14    15   ar
    16    15    16   ar
    17    16    17    1
    18    16    18   ar
    19     6     8    1
    20     8     9    1
    21     9     3    1
    22    18    12   ar
@<TRIPOS>MOLECULE
*****
 21 22 0 0 0
SMALL
GASTEIGER

@<TRIPOS>ATOM
      1 C           5.0284   -2.9047   20.0384 C.2     1  UNL1        0.4049
      2 O           5.8455   -3.7724   20.9490 O.2     1  UNL1       -0.2262
      3 N           4.0454   -1.9291   20.6146 N.am    1  UNL1       -0.2454
      4 C           3.2283   -1.0614   19.7039 C.3     1  UNL1        0.1011
      5 C           2.2454   -0.0858   20.2801 C.3     1  UNL1        0.0443
      6 C           2.0796    0.0222   21.7670 C.2     1  UNL1       -0.0326
      7 C           1.0967    0.9978   22.3432 C.2     1  UNL1        0.0412
      8 C           2.8967   -0.8455   22.6776 C.3     1  UNL1        0.0443
      9 C           3.8796   -1.8212   22.1014 C.3     1  UNL1        0.1011
     10 C           0.9309    1.1057   23.8300 C.1     1  UNL1       -0.0598
     11 C           0.7651    1.2137   25.3170 C.1     1  UNL1       -0.0597
     12 C           0.5993    1.3216   26.8039 C.ar    1  UNL1        0.0442
     13 C           1.6413    2.0206   27.6259 C.ar    1  UNL1        0.0084
     14 C           1.4755    2.1286   29.1128 C.ar    1  UNL1        0.0029
     15 C           0.2678    1.5375   29.7777 C.ar    1  UNL1        0.0297
     16 C          -0.7741    0.8384   28.9557 C.ar    1  UNL1        0.1408
     17 F          -1.9818    0.2473   29.6206 F       1  UNL1       -0.2042
     18 C          -0.6084    0.7305   27.4687 C.ar    1  UNL1        0.0379
     19 O           5.1941   -3.0126   18.5515 O.3     1  UNL1       -0.4345
     20 C           6.7122   -0.9407   18.1608 C.3     1  UNL1        0.0513
     21 C           6.3743   -2.3750   17.8802 C.3     1  UNL1        0.2102
@<TRIPOS>BOND
     1    20    21    1
     2    21    19    1
     3    19     1    1
     4     1     2    2
     5     1     3   am
     6     3     4    1
     7     4     5    1
     8     5     6    1
     9     6     7    2
    10     7    10    1
    11    10    11    3
    12    11    12    1
    13    12    13   ar
    14    13    14   ar
    15    14    15   ar
    16    15    16   ar
    17    16    17    1
    18    16    18   ar
    19     6     8    1
    20     8     9    1
    21     9     3    1
    22    18    12   ar
