@<TRIPOS>MOLECULE
*****
 34 38 0 0 0
SMALL
GASTEIGER

@<TRIPOS>ATOM
      1 N          -2.8110  -17.9238   21.8516 N.3     1  UNL1       -0.2726
      2 C          -1.6628  -18.7367   21.3311 C.3     1  UNL1        0.0721
      3 C          -2.2251  -19.8708   20.5263 C.3     1  UNL1        0.0190
      4 C          -3.7208  -19.7588   20.5494 C.3     1  UNL1        0.0202
      5 C          -3.9817  -20.9692   19.7028 C.3     1  UNL1        0.0062
      6 C          -5.1299  -20.1563   20.2233 C.3     1  UNL1        0.0259
      7 C          -4.0828  -18.5555   21.3685 C.3     1  UNL1        0.0724
      8 C          -6.6063  -19.9164   20.3355 C.ar    1  UNL1        0.0050
      9 C          -7.4106  -19.6028   19.1088 C.ar    1  UNL1       -0.0021
     10 C          -8.8870  -19.3629   19.2211 C.ar    1  UNL1        0.0037
     11 C          -9.5592  -19.4367   20.5600 C.ar    1  UNL1        0.0736
     12 C          -8.7549  -19.7504   21.7867 C.ar    1  UNL1        0.0332
     13 C          -7.2785  -19.9902   21.6745 C.ar    1  UNL1        0.1361
     14 F          -6.4742  -20.3039   22.9011 F       1  UNL1       -0.2045
     15 C         -11.0356  -19.1969   20.6723 C.3     1  UNL1        0.4186
     16 F         -12.5121  -18.9570   20.7845 F       1  UNL1       -0.1659
     17 F         -11.1748  -20.4409   21.4987 F       1  UNL1       -0.1659
     18 F         -10.8963  -17.9529   19.8459 F       1  UNL1       -0.1659
     19 C          -2.7058  -16.6950   22.7054 C.3     1  UNL1        0.0730
     20 C          -3.8877  -15.7841   22.8576 C.3     1  UNL1        0.0294
     21 C          -4.8692  -16.0082   23.9697 C.3     1  UNL1        0.0666
     22 S          -6.1110  -15.1711   24.0542 S.3     1  UNL1       -0.0756
     23 C          -9.6195  -16.5511   23.1314 C.ar    1  UNL1        0.2029
     24 N          -9.0664  -16.2340   21.7736 N.ar    1  UNL1       -0.1250
     25 N          -7.6848  -15.6785   21.9540 N.ar    1  UNL1       -0.1220
     26 C          -7.3840  -15.6522   23.4233 C.ar    1  UNL1        0.1933
     27 N          -8.5797  -16.1915   24.1510 N.ar    1  UNL1       -0.2860
     28 C          -8.7123  -16.3444   25.6373 C.3     1  UNL1        0.1341
     29 C         -10.2285  -19.2572   24.8506 C.3     1  UNL1        0.0556
     30 C         -11.2544  -18.3705   24.2093 C.ar    1  UNL1        0.1001
     31 N         -12.7403  -18.5720   24.2456 N.ar    1  UNL1       -0.2085
     32 C         -13.3788  -17.4527   23.4779 C.ar    1  UNL1        0.2849
     33 O         -12.2875  -16.5594   22.9670 O.2     1  UNL1       -0.4283
     34 C         -10.9745  -17.1267   23.4191 C.ar    1  UNL1        0.1964
@<TRIPOS>BOND
     1    29    30    1
     2    30    31   ar
     3    31    32   ar
     4    32    33   ar
     5    33    34   ar
     6    34    23    1
     7    23    24   ar
     8    24    25   ar
     9    25    26   ar
    10    26    22    1
    11    22    21    1
    12    21    20    1
    13    20    19    1
    14    19     1    1
    15     1     2    1
    16     2     3    1
    17     4     3    1
    18     4     5    1
    19     5     6    1
    20     6     8    1
    21     8     9   ar
    22     9    10   ar
    23    10    11   ar
    24    11    15    1
    25    15    16    1
    26    15    17    1
    27    15    18    1
    28    11    12   ar
    29    12    13   ar
    30    13    14    1
    31     4     7    1
    32    26    27   ar
    33    27    28    1
    34    34    30   ar
    35    27    23   ar
    36     7     1    1
    37     6     4    1
    38    13     8   ar
@<TRIPOS>MOLECULE
*****
 34 38 0 0 0
SMALL
GASTEIGER

@<TRIPOS>ATOM
      1 N         -10.2103  -19.1201   20.5720 N.3     1  UNL1       -0.2726
      2 C         -11.0622  -19.7269   21.6471 C.3     1  UNL1        0.0721
      3 C         -10.1513  -20.2940   22.6954 C.3     1  UNL1        0.0190
      4 C          -8.7365  -20.0376   22.2680 C.3     1  UNL1        0.0202
      5 C          -8.0934  -20.6866   23.4576 C.3     1  UNL1        0.0062
      6 C          -7.2415  -20.0797   22.3824 C.3     1  UNL1        0.0259
      7 C          -8.7730  -19.3120   20.9557 C.3     1  UNL1        0.0724
      8 C          -5.8865  -19.7537   21.8277 C.ar    1  UNL1        0.0050
      9 C          -5.0017  -18.7724   22.5377 C.ar    1  UNL1       -0.0021
     10 C          -3.6467  -18.4463   21.9830 C.ar    1  UNL1        0.0037
     11 C          -3.1766  -19.1016   20.7183 C.ar    1  UNL1        0.0736
     12 C          -4.0614  -20.0829   20.0082 C.ar    1  UNL1        0.0332
     13 C          -5.4164  -20.4090   20.5630 C.ar    1  UNL1        0.1361
     14 F          -6.3012  -21.3902   19.8530 F       1  UNL1       -0.2045
     15 C          -1.8216  -18.7756   20.1635 C.3     1  UNL1        0.4186
     16 F          -0.4666  -18.4495   19.6087 F       1  UNL1       -0.1659
     17 F          -1.2871  -18.6259   21.5570 F       1  UNL1       -0.1659
     18 F          -2.3561  -18.9253   18.7700 F       1  UNL1       -0.1659
     19 C         -10.7083  -18.4405   19.3309 C.3     1  UNL1        0.0730
     20 C         -11.7047  -17.3242   19.4355 C.3     1  UNL1        0.0294
     21 C         -11.4005  -16.1241   20.2824 C.3     1  UNL1        0.0666
     22 S         -11.7132  -16.1425   21.7493 S.3     1  UNL1       -0.0756
     23 C          -8.4733  -16.2113   23.8855 C.ar    1  UNL1        0.2029
     24 N          -9.3668  -17.1129   24.6849 N.ar    1  UNL1       -0.1250
     25 N         -10.6892  -17.1968   23.9819 N.ar    1  UNL1       -0.1220
     26 C         -10.6130  -16.3471   22.7481 C.ar    1  UNL1        0.1933
     27 N          -9.2435  -15.7381   22.6885 N.ar    1  UNL1       -0.2860
     28 C          -8.7338  -14.8174   21.6196 C.3     1  UNL1        0.1341
     29 C          -7.3421  -15.4637   26.8539 C.3     1  UNL1        0.0556
     30 C          -6.5381  -15.5034   25.5882 C.ar    1  UNL1        0.1001
     31 N          -5.0730  -15.2064   25.4646 N.ar    1  UNL1       -0.2085
     32 C          -4.6875  -15.3664   24.0239 C.ar    1  UNL1        0.2849
     33 O          -5.9143  -15.7624   23.2570 O.2     1  UNL1       -0.4283
     34 C          -7.0580  -15.8470   24.2238 C.ar    1  UNL1        0.1964
@<TRIPOS>BOND
     1    29    30    1
     2    30    31   ar
     3    31    32   ar
     4    32    33   ar
     5    33    34   ar
     6    34    23    1
     7    23    24   ar
     8    24    25   ar
     9    25    26   ar
    10    26    22    1
    11    22    21    1
    12    21    20    1
    13    20    19    1
    14    19     1    1
    15     1     2    1
    16     2     3    1
    17     4     3    1
    18     4     5    1
    19     5     6    1
    20     6     8    1
    21     8     9   ar
    22     9    10   ar
    23    10    11   ar
    24    11    15    1
    25    15    16    1
    26    15    17    1
    27    15    18    1
    28    11    12   ar
    29    12    13   ar
    30    13    14    1
    31     4     7    1
    32    26    27   ar
    33    27    28    1
    34    34    30   ar
    35    27    23   ar
    36     7     1    1
    37     6     4    1
    38    13     8   ar
@<TRIPOS>MOLECULE
*****
 34 38 0 0 0
SMALL
GASTEIGER

@<TRIPOS>ATOM
      1 N          -8.6437  -16.0347   23.6690 N.3     1  UNL1       -0.2726
      2 C          -9.0186  -15.5541   25.0396 C.3     1  UNL1        0.0721
      3 C          -7.7631  -15.4495   25.8537 C.3     1  UNL1        0.0190
      4 C          -6.6122  -15.8655   24.9862 C.3     1  UNL1        0.0202
      5 C          -5.5509  -15.6652   26.0271 C.3     1  UNL1        0.0062
      6 C          -5.1759  -16.1458   24.6566 C.3     1  UNL1        0.0259
      7 C          -7.1564  -16.2271   23.6360 C.3     1  UNL1        0.0724
      8 C          -4.1303  -16.5851   23.6749 C.ar    1  UNL1        0.0050
      9 C          -3.6382  -18.0020   23.6871 C.ar    1  UNL1       -0.0021
     10 C          -2.5926  -18.4413   22.7055 C.ar    1  UNL1        0.0037
     11 C          -2.0390  -17.4637   21.7117 C.ar    1  UNL1        0.0736
     12 C          -2.5310  -16.0467   21.6995 C.ar    1  UNL1        0.0332
     13 C          -3.5767  -15.6074   22.6811 C.ar    1  UNL1        0.1361
     14 F          -4.0687  -14.1905   22.6690 F       1  UNL1       -0.2045
     15 C          -0.9933  -17.9030   20.7301 C.3     1  UNL1        0.4186
     16 F           0.0524  -18.3423   19.7484 F       1  UNL1       -0.1659
     17 F          -0.6795  -16.4688   20.4225 F       1  UNL1       -0.1659
     18 F          -1.3071  -19.3371   21.0376 F       1  UNL1       -0.1659
     19 C          -9.5898  -16.2798   22.5312 C.3     1  UNL1        0.0730
     20 C         -10.9656  -16.8130   22.8014 C.3     1  UNL1        0.0294
     21 C         -11.1491  -18.2475   23.1998 C.3     1  UNL1        0.0666
     22 S         -11.0732  -19.3293   22.1636 S.3     1  UNL1       -0.0756
     23 C          -7.7859  -19.3771   20.1003 C.ar    1  UNL1        0.2029
     24 N          -8.8051  -19.1813   19.0173 N.ar    1  UNL1       -0.1250
     25 N         -10.1606  -19.1396   19.6584 N.ar    1  UNL1       -0.1220
     26 C          -9.9791  -19.3096   21.1376 C.ar    1  UNL1        0.1933
     27 N          -8.5115  -19.4564   21.4108 N.ar    1  UNL1       -0.2860
     28 C          -7.8803  -19.6486   22.7579 C.3     1  UNL1        0.1341
     29 C          -5.9570  -22.0300   20.6169 C.3     1  UNL1        0.0556
     30 C          -5.4611  -20.6956   20.1443 C.ar    1  UNL1        0.1001
     31 N          -4.0375  -20.3463   19.8262 N.ar    1  UNL1       -0.2085
     32 C          -3.9982  -18.9110   19.3921 C.ar    1  UNL1        0.2849
     33 O          -5.3976  -18.3732   19.4420 O.2     1  UNL1       -0.4283
     34 C          -6.3017  -19.4762   19.9069 C.ar    1  UNL1        0.1964
@<TRIPOS>BOND
     1    29    30    1
     2    30    31   ar
     3    31    32   ar
     4    32    33   ar
     5    33    34   ar
     6    34    23    1
     7    23    24   ar
     8    24    25   ar
     9    25    26   ar
    10    26    22    1
    11    22    21    1
    12    21    20    1
    13    20    19    1
    14    19     1    1
    15     1     2    1
    16     2     3    1
    17     4     3    1
    18     4     5    1
    19     5     6    1
    20     6     8    1
    21     8     9   ar
    22     9    10   ar
    23    10    11   ar
    24    11    15    1
    25    15    16    1
    26    15    17    1
    27    15    18    1
    28    11    12   ar
    29    12    13   ar
    30    13    14    1
    31     4     7    1
    32    26    27   ar
    33    27    28    1
    34    34    30   ar
    35    27    23   ar
    36     7     1    1
    37     6     4    1
    38    13     8   ar
@<TRIPOS>MOLECULE
*****
 34 38 0 0 0
SMALL
GASTEIGER

@<TRIPOS>ATOM
      1 N         -18.5967   -5.5163   19.0556 N.3     1  UNL1       -0.2726
      2 C         -19.4849   -6.5837   19.6229 C.3     1  UNL1        0.0721
      3 C         -18.6307   -7.7730   19.9480 C.3     1  UNL1        0.0190
      4 C         -17.2146   -7.4408   19.5817 C.3     1  UNL1        0.0202
      5 C         -16.6309   -8.7571   20.0018 C.3     1  UNL1        0.0062
      6 C         -15.7427   -7.6898   19.4344 C.3     1  UNL1        0.0259
      7 C         -17.1936   -6.0460   19.0301 C.3     1  UNL1        0.0724
      8 C         -14.3802   -7.2173   19.0219 C.ar    1  UNL1        0.0050
      9 C         -13.7655   -6.0242   19.6916 C.ar    1  UNL1       -0.0021
     10 C         -12.4029   -5.5517   19.2790 C.ar    1  UNL1        0.0037
     11 C         -11.6551   -6.2724   18.1967 C.ar    1  UNL1        0.0736
     12 C         -12.2698   -7.4656   17.5270 C.ar    1  UNL1        0.0332
     13 C         -13.6324   -7.9380   17.9396 C.ar    1  UNL1        0.1361
     14 F         -14.2470   -9.1311   17.2699 F       1  UNL1       -0.2045
     15 C         -10.2926   -5.7999   17.7842 C.3     1  UNL1        0.4186
     16 F          -8.9299   -5.3274   17.3716 F       1  UNL1       -0.1659
     17 F          -9.8996   -5.6739   19.2263 F       1  UNL1       -0.1659
     18 F         -10.6855   -5.9260   16.3421 F       1  UNL1       -0.1659
     19 C         -19.0347   -4.1578   18.5946 C.3     1  UNL1        0.0730
     20 C         -18.0113   -3.1187   18.2440 C.3     1  UNL1        0.0294
     21 C         -18.2895   -1.6700   18.5163 C.3     1  UNL1        0.0666
     22 S         -17.2129   -0.7935   19.0842 S.3     1  UNL1       -0.0756
     23 C         -13.5239   -1.6331   18.2174 C.ar    1  UNL1        0.2029
     24 N         -13.6208   -2.1638   19.6170 N.ar    1  UNL1       -0.1250
     25 N         -15.0145   -1.9139   20.1121 N.ar    1  UNL1       -0.1220
     26 C         -15.7790   -1.2287   19.0184 C.ar    1  UNL1        0.1933
     27 N         -14.8578   -1.0552   17.8474 N.ar    1  UNL1       -0.2860
     28 C         -15.2088   -0.4160   16.5366 C.3     1  UNL1        0.1341
     29 C         -11.8557    0.9530   17.1316 C.3     1  UNL1        0.0556
     30 C         -11.5401   -0.4846   16.8424 C.ar    1  UNL1        0.1001
     31 N         -10.4022   -0.9860   16.0034 N.ar    1  UNL1       -0.2085
     32 C         -10.4657   -2.4845   15.9839 C.ar    1  UNL1        0.2849
     33 O         -11.6429   -2.9093   16.8109 O.2     1  UNL1       -0.4283
     34 C         -12.3068   -1.6733   17.3415 C.ar    1  UNL1        0.1964
@<TRIPOS>BOND
     1    29    30    1
     2    30    31   ar
     3    31    32   ar
     4    32    33   ar
     5    33    34   ar
     6    34    23    1
     7    23    24   ar
     8    24    25   ar
     9    25    26   ar
    10    26    22    1
    11    22    21    1
    12    21    20    1
    13    20    19    1
    14    19     1    1
    15     1     2    1
    16     2     3    1
    17     4     3    1
    18     4     5    1
    19     5     6    1
    20     6     8    1
    21     8     9   ar
    22     9    10   ar
    23    10    11   ar
    24    11    15    1
    25    15    16    1
    26    15    17    1
    27    15    18    1
    28    11    12   ar
    29    12    13   ar
    30    13    14    1
    31     4     7    1
    32    26    27   ar
    33    27    28    1
    34    34    30   ar
    35    27    23   ar
    36     7     1    1
    37     6     4    1
    38    13     8   ar
@<TRIPOS>MOLECULE
*****
 34 38 0 0 0
SMALL
GASTEIGER

@<TRIPOS>ATOM
      1 N         -17.9988   -7.9715   19.9306 N.3     1  UNL1       -0.2726
      2 C         -19.4954   -8.0482   19.9946 C.3     1  UNL1        0.0721
      3 C         -20.0402   -6.6688   19.7702 C.3     1  UNL1        0.0190
      4 C         -18.8803   -5.7395   19.5676 C.3     1  UNL1        0.0202
      5 C         -19.7036   -4.5002   19.3772 C.3     1  UNL1        0.0062
      6 C         -18.2069   -4.4235   19.3132 C.3     1  UNL1        0.0259
      7 C         -17.6186   -6.5447   19.6667 C.3     1  UNL1        0.0724
      8 C         -16.9541   -3.6194   19.1295 C.ar    1  UNL1        0.0050
      9 C         -15.9325   -3.5614   20.2263 C.ar    1  UNL1       -0.0021
     10 C         -14.6796   -2.7573   20.0425 C.ar    1  UNL1        0.0037
     11 C         -14.4484   -2.0113   18.7619 C.ar    1  UNL1        0.0736
     12 C         -15.4700   -2.0693   17.6651 C.ar    1  UNL1        0.0332
     13 C         -16.7228   -2.8734   17.8489 C.ar    1  UNL1        0.1361
     14 F         -17.7443   -2.9314   16.7521 F       1  UNL1       -0.2045
     15 C         -13.1955   -1.2072   18.5782 C.3     1  UNL1        0.4186
     16 F         -11.9426   -0.4031   18.3944 F       1  UNL1       -0.1659
     17 F         -13.8215   -0.4978   17.4142 F       1  UNL1       -0.1659
     18 F         -12.5695   -1.9166   19.7421 F       1  UNL1       -0.1659
     19 C         -17.0490   -9.1200   20.1007 C.3     1  UNL1        0.0730
     20 C         -16.8539  -10.1035   18.9851 C.3     1  UNL1        0.0294
     21 C         -15.7433   -9.9057   17.9963 C.3     1  UNL1        0.0666
     22 S         -15.5827   -8.5852   17.3031 S.3     1  UNL1       -0.0756
     23 C         -12.1950   -6.7016   17.5068 C.ar    1  UNL1        0.2029
     24 N         -12.0332   -7.4505   16.2172 N.ar    1  UNL1       -0.1250
     25 N         -13.2825   -8.2473   15.9840 N.ar    1  UNL1       -0.1220
     26 C         -14.2165   -7.9908   17.1294 C.ar    1  UNL1        0.1933
     27 N         -13.5444   -7.0355   18.0705 N.ar    1  UNL1       -0.2860
     28 C         -14.1205   -6.5070   19.3507 C.3     1  UNL1        0.1341
     29 C          -9.4321   -7.6029   18.9913 C.3     1  UNL1        0.0556
     30 C          -9.9149   -6.1948   18.8065 C.ar    1  UNL1        0.1001
     31 N          -9.2125   -4.9537   19.2717 N.ar    1  UNL1       -0.2085
     32 C         -10.0483   -3.7724   18.8768 C.ar    1  UNL1        0.2849
     33 O         -11.2673   -4.2834   18.1676 O.2     1  UNL1       -0.4283
     34 C         -11.1848   -5.7805   18.1242 C.ar    1  UNL1        0.1964
@<TRIPOS>BOND
     1    29    30    1
     2    30    31   ar
     3    31    32   ar
     4    32    33   ar
     5    33    34   ar
     6    34    23    1
     7    23    24   ar
     8    24    25   ar
     9    25    26   ar
    10    26    22    1
    11    22    21    1
    12    21    20    1
    13    20    19    1
    14    19     1    1
    15     1     2    1
    16     2     3    1
    17     4     3    1
    18     4     5    1
    19     5     6    1
    20     6     8    1
    21     8     9   ar
    22     9    10   ar
    23    10    11   ar
    24    11    15    1
    25    15    16    1
    26    15    17    1
    27    15    18    1
    28    11    12   ar
    29    12    13   ar
    30    13    14    1
    31     4     7    1
    32    26    27   ar
    33    27    28    1
    34    34    30   ar
    35    27    23   ar
    36     7     1    1
    37     6     4    1
    38    13     8   ar
@<TRIPOS>MOLECULE
*****
 34 38 0 0 0
SMALL
GASTEIGER

@<TRIPOS>ATOM
      1 N          -2.5082    3.9679   18.0583 N.3     1  UNL1       -0.2726
      2 C          -3.3124    3.7451   16.8118 C.3     1  UNL1        0.0721
      3 C          -4.7546    3.6253   17.2061 C.3     1  UNL1        0.0190
      4 C          -4.8418    3.7740   18.6961 C.3     1  UNL1        0.0202
      5 C          -6.3310    3.6161   18.7826 C.3     1  UNL1        0.0062
      6 C          -5.5268    3.8389   20.0291 C.3     1  UNL1        0.0259
      7 C          -3.4534    3.9857   19.2228 C.3     1  UNL1        0.0724
      8 C          -5.4579    4.0050   21.5182 C.ar    1  UNL1        0.0050
      9 C          -4.7706    2.9690   22.3575 C.ar    1  UNL1       -0.0021
     10 C          -4.7017    3.1351   23.8466 C.ar    1  UNL1        0.0037
     11 C          -5.3201    4.3373   24.4966 C.ar    1  UNL1        0.0736
     12 C          -6.0074    5.3733   23.6573 C.ar    1  UNL1        0.0332
     13 C          -6.0763    5.2072   22.1682 C.ar    1  UNL1        0.1361
     14 F          -6.7636    6.2431   21.3290 F       1  UNL1       -0.2045
     15 C          -5.2512    4.5034   25.9857 C.3     1  UNL1        0.4186
     16 F          -5.1824    4.6695   27.4750 F       1  UNL1       -0.1659
     17 F          -4.1376    3.5003   26.0461 F       1  UNL1       -0.1659
     18 F          -6.3649    5.5064   25.9253 F       1  UNL1       -0.1659
     19 C          -1.0200    4.1423   18.1279 C.3     1  UNL1        0.0730
     20 C          -0.2153    3.3366   19.1043 C.3     1  UNL1        0.0294
     21 C           1.0493    2.6637   18.6593 C.3     1  UNL1        0.0666
     22 S           1.0667    1.1832   18.4190 S.3     1  UNL1       -0.0756
     23 C           3.3537   -1.3462   20.2731 C.ar    1  UNL1        0.2029
     24 N           2.4659   -0.8849   21.3907 N.ar    1  UNL1       -0.1250
     25 N           1.5011    0.1188   20.8322 N.ar    1  UNL1       -0.1220
     26 C           1.7927    0.2778   19.3694 C.ar    1  UNL1        0.1933
     27 N           2.9376   -0.6276   19.0238 N.ar    1  UNL1       -0.2860
     28 C           3.5576   -0.7865   17.6672 C.3     1  UNL1        0.1341
     29 C           3.2936   -4.4059   19.1396 C.3     1  UNL1        0.0556
     30 C           4.4352   -3.7562   19.8640 C.ar    1  UNL1        0.1001
     31 N           5.7496   -4.3989   20.1947 N.ar    1  UNL1       -0.2085
     32 C           6.5896   -3.3897   20.9200 C.ar    1  UNL1        0.2849
     33 O           5.7943   -2.1233   21.0377 O.2     1  UNL1       -0.4283
     34 C           4.4628   -2.3499   20.3850 C.ar    1  UNL1        0.1964
@<TRIPOS>BOND
     1    29    30    1
     2    30    31   ar
     3    31    32   ar
     4    32    33   ar
     5    33    34   ar
     6    34    23    1
     7    23    24   ar
     8    24    25   ar
     9    25    26   ar
    10    26    22    1
    11    22    21    1
    12    21    20    1
    13    20    19    1
    14    19     1    1
    15     1     2    1
    16     2     3    1
    17     4     3    1
    18     4     5    1
    19     5     6    1
    20     6     8    1
    21     8     9   ar
    22     9    10   ar
    23    10    11   ar
    24    11    15    1
    25    15    16    1
    26    15    17    1
    27    15    18    1
    28    11    12   ar
    29    12    13   ar
    30    13    14    1
    31     4     7    1
    32    26    27   ar
    33    27    28    1
    34    34    30   ar
    35    27    23   ar
    36     7     1    1
    37     6     4    1
    38    13     8   ar
@<TRIPOS>MOLECULE
*****
 34 38 0 0 0
SMALL
GASTEIGER

@<TRIPOS>ATOM
      1 N           4.0240    4.4167   18.3986 N.3     1  UNL1       -0.2726
      2 C           2.8061    5.2921   18.3763 C.3     1  UNL1        0.0721
      3 C           1.5976    4.4067   18.4513 C.3     1  UNL1        0.0190
      4 C           2.0685    2.9842   18.5200 C.3     1  UNL1        0.0202
      5 C           0.7018    2.3694   18.5834 C.3     1  UNL1        0.0062
      6 C           1.9197    1.4941   18.6057 C.3     1  UNL1        0.0259
      7 C           3.5682    2.9904   18.4874 C.3     1  UNL1        0.0724
      8 C           2.5370    0.1284   18.6681 C.ar    1  UNL1        0.0050
      9 C           3.4319   -0.3415   17.5598 C.ar    1  UNL1       -0.0021
     10 C           4.0491   -1.7072   17.6222 C.ar    1  UNL1        0.0037
     11 C           3.7714   -2.6030   18.7929 C.ar    1  UNL1        0.0736
     12 C           2.8765   -2.1330   19.9012 C.ar    1  UNL1        0.0332
     13 C           2.2592   -0.7674   19.8388 C.ar    1  UNL1        0.1361
     14 F           1.3643   -0.2975   20.9470 F       1  UNL1       -0.2045
     15 C           4.3887   -3.9686   18.8552 C.3     1  UNL1        0.4186
     16 F           5.0059   -5.3344   18.9176 F       1  UNL1       -0.1659
     17 F           5.5166   -3.4986   17.9853 F       1  UNL1       -0.1659
     18 F           3.2607   -4.4387   19.7252 F       1  UNL1       -0.1659
     19 C           5.4478    4.8854   18.3421 C.3     1  UNL1        0.0730
     20 C           6.3090    4.5278   17.1672 C.3     1  UNL1        0.0294
     21 C           7.8007    4.4798   17.3176 C.3     1  UNL1        0.0666
     22 S           8.5637    3.2774   16.8466 S.3     1  UNL1       -0.0756
     23 C           7.5454   -0.1898   18.2634 C.ar    1  UNL1        0.2029
     24 N           6.9454   -0.2503   16.8900 N.ar    1  UNL1       -0.1250
     25 N           7.2538    1.0411   16.1921 N.ar    1  UNL1       -0.1220
     26 C           8.0444    1.8998   17.1342 C.ar    1  UNL1        0.1933
     27 N           8.2247    1.1391   18.4143 N.ar    1  UNL1       -0.2860
     28 C           8.9558    1.6223   19.6317 C.3     1  UNL1        0.1341
     29 C           5.7354   -0.1271   20.9781 C.3     1  UNL1        0.0556
     30 C           6.6460   -1.2399   20.5511 C.ar    1  UNL1        0.1001
     31 N           6.8846   -2.5193   21.2969 N.ar    1  UNL1       -0.2085
     32 C           7.8640   -3.3388   20.5101 C.ar    1  UNL1        0.2849
     33 O           8.2307   -2.5660   19.2780 O.2     1  UNL1       -0.4283
     34 C           7.4780   -1.2688   19.3033 C.ar    1  UNL1        0.1964
@<TRIPOS>BOND
     1    29    30    1
     2    30    31   ar
     3    31    32   ar
     4    32    33   ar
     5    33    34   ar
     6    34    23    1
     7    23    24   ar
     8    24    25   ar
     9    25    26   ar
    10    26    22    1
    11    22    21    1
    12    21    20    1
    13    20    19    1
    14    19     1    1
    15     1     2    1
    16     2     3    1
    17     4     3    1
    18     4     5    1
    19     5     6    1
    20     6     8    1
    21     8     9   ar
    22     9    10   ar
    23    10    11   ar
    24    11    15    1
    25    15    16    1
    26    15    17    1
    27    15    18    1
    28    11    12   ar
    29    12    13   ar
    30    13    14    1
    31     4     7    1
    32    26    27   ar
    33    27    28    1
    34    34    30   ar
    35    27    23   ar
    36     7     1    1
    37     6     4    1
    38    13     8   ar
@<TRIPOS>MOLECULE
*****
 34 38 0 0 0
SMALL
GASTEIGER

@<TRIPOS>ATOM
      1 N          -4.6637  -17.6509   23.2579 N.3     1  UNL1       -0.2726
      2 C          -3.8524  -16.6065   23.9658 C.3     1  UNL1        0.0721
      3 C          -4.7898  -15.5388   24.4470 C.3     1  UNL1        0.0190
      4 C          -6.1803  -15.9234   24.0364 C.3     1  UNL1        0.0202
      5 C          -6.8565  -14.7229   24.6293 C.3     1  UNL1        0.0062
      6 C          -7.6678  -15.7673   23.9214 C.3     1  UNL1        0.0259
      7 C          -6.1024  -17.2287   23.3016 C.3     1  UNL1        0.0724
      8 C          -8.9949  -16.2801   23.4464 C.ar    1  UNL1        0.0050
      9 C          -9.4913  -15.9207   22.0773 C.ar    1  UNL1       -0.0021
     10 C         -10.8184  -16.4336   21.6022 C.ar    1  UNL1        0.0037
     11 C         -11.6491  -17.3058   22.4962 C.ar    1  UNL1        0.0736
     12 C         -11.1526  -17.6652   23.8653 C.ar    1  UNL1        0.0332
     13 C          -9.8255  -17.1523   24.3404 C.ar    1  UNL1        0.1361
     14 F          -9.3291  -17.5116   25.7094 F       1  UNL1       -0.2045
     15 C         -12.9762  -17.8186   22.0211 C.3     1  UNL1        0.4186
     16 F         -14.3034  -18.3315   21.5459 F       1  UNL1       -0.1659
     17 F         -13.3347  -18.1944   23.4283 F       1  UNL1       -0.1659
     18 F         -12.6176  -17.4429   20.6139 F       1  UNL1       -0.1659
     19 C          -4.1300  -18.8985   22.6186 C.3     1  UNL1        0.0730
     20 C          -2.6680  -19.0132   22.3034 C.3     1  UNL1        0.0294
     21 C          -2.1939  -20.0226   21.3002 C.3     1  UNL1        0.0666
     22 S          -3.0683  -20.3940   20.1394 S.3     1  UNL1       -0.0756
     23 C          -6.8013  -19.3482   19.9471 C.ar    1  UNL1        0.2029
     24 N          -6.1254  -18.1018   19.4576 N.ar    1  UNL1       -0.1250
     25 N          -4.6448  -18.3418   19.4701 N.ar    1  UNL1       -0.1220
     26 C          -4.4055  -19.7367   19.9673 C.ar    1  UNL1        0.1933
     27 N          -5.7382  -20.3587   20.2621 N.ar    1  UNL1       -0.2860
     28 C          -5.9677  -21.7473   20.7809 C.3     1  UNL1        0.1341
     29 C          -8.3907  -19.9030   22.7428 C.3     1  UNL1        0.0556
     30 C          -9.0109  -19.8040   21.3806 C.ar    1  UNL1        0.1001
     31 N         -10.4706  -19.9426   21.0642 N.ar    1  UNL1       -0.2085
     32 C         -10.6422  -19.7733   19.5837 C.ar    1  UNL1        0.2849
     33 O          -9.2885  -19.5300   18.9851 O.2     1  UNL1       -0.4283
     34 C          -8.2803  -19.5490   20.0956 C.ar    1  UNL1        0.1964
@<TRIPOS>BOND
     1    29    30    1
     2    30    31   ar
     3    31    32   ar
     4    32    33   ar
     5    33    34   ar
     6    34    23    1
     7    23    24   ar
     8    24    25   ar
     9    25    26   ar
    10    26    22    1
    11    22    21    1
    12    21    20    1
    13    20    19    1
    14    19     1    1
    15     1     2    1
    16     2     3    1
    17     4     3    1
    18     4     5    1
    19     5     6    1
    20     6     8    1
    21     8     9   ar
    22     9    10   ar
    23    10    11   ar
    24    11    15    1
    25    15    16    1
    26    15    17    1
    27    15    18    1
    28    11    12   ar
    29    12    13   ar
    30    13    14    1
    31     4     7    1
    32    26    27   ar
    33    27    28    1
    34    34    30   ar
    35    27    23   ar
    36     7     1    1
    37     6     4    1
    38    13     8   ar
@<TRIPOS>MOLECULE
*****
 34 38 0 0 0
SMALL
GASTEIGER

@<TRIPOS>ATOM
      1 N           6.3228   -2.1859   21.7619 N.3     1  UNL1       -0.2726
      2 C           6.7252   -3.5394   21.2561 C.3     1  UNL1        0.0721
      3 C           5.7382   -3.9537   20.2052 C.3     1  UNL1        0.0190
      4 C           4.7259   -2.8562   20.0616 C.3     1  UNL1        0.0202
      5 C           3.9151   -3.5293   18.9942 C.3     1  UNL1        0.0062
      6 C           3.5127   -2.1758   19.5000 C.3     1  UNL1        0.0259
      7 C           5.0872   -1.7636   21.0237 C.3     1  UNL1        0.0724
      8 C           2.5801   -1.0015   19.4679 C.ar    1  UNL1        0.0050
      9 C           1.4969   -0.8755   20.4979 C.ar    1  UNL1       -0.0021
     10 C           0.5642    0.2988   20.4657 C.ar    1  UNL1        0.0037
     11 C           0.7147    1.3472   19.4035 C.ar    1  UNL1        0.0736
     12 C           1.7979    1.2212   18.3735 C.ar    1  UNL1        0.0332
     13 C           2.7306    0.0469   18.4057 C.ar    1  UNL1        0.1361
     14 F           3.8137   -0.0790   17.3757 F       1  UNL1       -0.2045
     15 C          -0.2180    2.5215   19.3714 C.3     1  UNL1        0.4186
     16 F          -1.1507    3.6959   19.3391 F       1  UNL1       -0.1659
     17 F          -0.5764    2.2762   20.8071 F       1  UNL1       -0.1659
     18 F           0.1404    2.7668   17.9356 F       1  UNL1       -0.1659
     19 C           7.0316   -1.3936   22.8202 C.3     1  UNL1        0.0730
     20 C           6.4227   -1.2500   24.1835 C.3     1  UNL1        0.0294
     21 C           5.3019   -0.2782   24.4059 C.3     1  UNL1        0.0666
     22 S           3.9077   -0.7812   24.6363 S.3     1  UNL1       -0.0756
     23 C           1.6709    0.9771   27.2765 C.ar    1  UNL1        0.2029
     24 N           1.2040    1.6390   26.0139 N.ar    1  UNL1       -0.1250
     25 N           1.9851    1.0609   24.8712 N.ar    1  UNL1       -0.1220
     26 C           2.9347    0.0417   25.4276 C.ar    1  UNL1        0.1933
     27 N           2.7406   -0.0101   26.9140 N.ar    1  UNL1       -0.2860
     28 C           3.4852   -0.8940   27.8702 C.3     1  UNL1        0.1341
     29 C          -1.0170   -0.2994   28.6165 C.3     1  UNL1        0.0556
     30 C          -0.0774    0.6671   29.2746 C.ar    1  UNL1        0.1001
     31 N          -0.2082    1.2165   30.6642 N.ar    1  UNL1       -0.2085
     32 C           0.9463    2.1428   30.9071 C.ar    1  UNL1        0.2849
     33 O           1.7908    2.1658   29.6676 O.2     1  UNL1       -0.4283
     34 C           1.1581    1.2538   28.6587 C.ar    1  UNL1        0.1964
@<TRIPOS>BOND
     1    29    30    1
     2    30    31   ar
     3    31    32   ar
     4    32    33   ar
     5    33    34   ar
     6    34    23    1
     7    23    24   ar
     8    24    25   ar
     9    25    26   ar
    10    26    22    1
    11    22    21    1
    12    21    20    1
    13    20    19    1
    14    19     1    1
    15     1     2    1
    16     2     3    1
    17     4     3    1
    18     4     5    1
    19     5     6    1
    20     6     8    1
    21     8     9   ar
    22     9    10   ar
    23    10    11   ar
    24    11    15    1
    25    15    16    1
    26    15    17    1
    27    15    18    1
    28    11    12   ar
    29    12    13   ar
    30    13    14    1
    31     4     7    1
    32    26    27   ar
    33    27    28    1
    34    34    30   ar
    35    27    23   ar
    36     7     1    1
    37     6     4    1
    38    13     8   ar
