@<TRIPOS>MOLECULE
*****
 28 31 0 0 0
SMALL
GASTEIGER

@<TRIPOS>ATOM
      1 C          -6.9029  -20.2037   20.9519 C.ar    1  UNL1        0.0284
      2 C          -7.2558  -20.3839   22.3985 C.ar    1  UNL1        0.0027
      3 C          -8.5277  -19.8003   22.9386 C.ar    1  UNL1        0.0339
      4 C          -9.4467  -19.0365   22.0320 C.ar    1  UNL1        0.1311
      5 N          -9.0938  -18.8563   20.5852 N.ar    1  UNL1       -0.2035
      6 C          -7.8219  -19.4399   20.0451 C.ar    1  UNL1        0.2196
      7 F          -7.4690  -19.2597   18.5984 F       1  UNL1       -0.1835
      8 N         -10.7186  -18.4529   22.5720 N.pl3   1  UNL1       -0.3144
      9 H         -11.5254  -19.0126   22.6440 H       1  UNL1        0.1485
     10 C         -10.7614  -17.0167   23.0025 C.3     1  UNL1        0.1155
     11 C          -9.5291  -16.3615   23.5522 C.ar    1  UNL1        0.0001
     12 C          -8.5157  -15.7675   22.6194 C.ar    1  UNL1        0.0180
     13 C          -7.2834  -15.1124   23.1692 C.ar    1  UNL1        0.0982
     14 N          -7.0645  -15.0512   24.6518 N.ar    1  UNL1       -0.2482
     15 C          -8.0779  -15.6453   25.5847 C.ar    1  UNL1        0.0591
     16 C          -7.8589  -15.5841   27.0674 C.3     1  UNL1        0.0521
     17 C          -9.3101  -16.3004   25.0349 C.ar    1  UNL1        0.0121
     18 C          -5.6310  -20.7873   20.4118 C.3     1  UNL1        0.0603
     19 C          -4.2796  -16.8508   24.5915 C.3     1  UNL1        0.0307
     20 C          -3.7546  -17.3157   23.2655 C.2     1  UNL1        0.0074
     21 C          -2.5195  -16.6912   22.6871 C.2     1  UNL1        0.2278
     22 N          -1.9946  -17.1560   21.3611 N.2     1  UNL1       -0.0314
     23 C          -2.7047  -18.2453   20.6134 C.2     1  UNL1        0.3716
     24 N          -2.4247  -18.9057   19.2960 N.2     1  UNL1       -0.0311
     25 C          -3.4869  -19.9383   19.0601 C.2     1  UNL1        0.2319
     26 C          -4.4232  -19.9161   20.2317 C.2     1  UNL1        0.0328
     27 C          -3.9398  -18.8697   21.1917 C.2     1  UNL1        0.0704
     28 C          -4.4648  -18.4049   22.5177 C.3     1  UNL1        0.0598
@<TRIPOS>BOND
     1    19    20    1
     2    20    21    2
     3    21    22    1
     4    22    23    2
     5    23    24    1
     6    24    25    2
     7    25    26    1
     8    26    18    1
     9    18     1    1
    10     1     2   ar
    11     2     3   ar
    12     3     4   ar
    13     4     8    1
    14     8    10    1
    15    10    11    1
    16    11    12   ar
    17    12    13   ar
    18    13    14   ar
    19    14    15   ar
    20    15    16    1
    21    15    17   ar
    22     4     5   ar
    23     5     6   ar
    24     6     7    1
    25    26    27    2
    26    27    28    1
    27    28    20    1
    28    27    23    1
    29     6     1   ar
    30    17    11   ar
    31     8     9    1
@<TRIPOS>MOLECULE
*****
 28 31 0 0 0
SMALL
GASTEIGER

@<TRIPOS>ATOM
      1 C         -14.7575   -3.6523   20.0709 C.ar    1  UNL1        0.0284
      2 C         -15.9154   -2.7220   19.8617 C.ar    1  UNL1        0.0027
      3 C         -17.2624   -3.2714   19.4958 C.ar    1  UNL1        0.0339
      4 C         -17.4515   -4.7511   19.3391 C.ar    1  UNL1        0.1311
      5 N         -16.2935   -5.6815   19.5483 N.ar    1  UNL1       -0.2035
      6 C         -14.9466   -5.1321   19.9142 C.ar    1  UNL1        0.2196
      7 F         -13.7887   -6.0625   20.1234 F       1  UNL1       -0.1835
      8 N         -18.7984   -5.3005   18.9732 N.pl3   1  UNL1       -0.3144
      9 H         -19.3443   -4.8503   18.2886 H       1  UNL1        0.1485
     10 C         -19.3138   -6.5357   19.6503 C.3     1  UNL1        0.1155
     11 C         -19.2907   -7.8511   18.9297 C.ar    1  UNL1        0.0001
     12 C         -20.4029   -8.2109   17.9897 C.ar    1  UNL1        0.0180
     13 C         -20.3798   -9.5263   17.2691 C.ar    1  UNL1        0.0982
     14 N         -19.2446  -10.4819   17.4884 N.ar    1  UNL1       -0.2482
     15 C         -18.1324  -10.1220   18.4285 C.ar    1  UNL1        0.0591
     16 C         -16.9972  -11.0776   18.6479 C.3     1  UNL1        0.0521
     17 C         -18.1555   -8.8067   19.1491 C.ar    1  UNL1        0.0121
     18 C         -13.4106   -3.1029   20.4368 C.3     1  UNL1        0.0603
     19 C          -9.6176   -7.1685   18.4680 C.3     1  UNL1        0.0307
     20 C          -9.9627   -5.7304   18.2177 C.2     1  UNL1        0.0074
     21 C          -9.2076   -4.9467   17.1854 C.2     1  UNL1        0.2278
     22 N          -9.5526   -3.5086   16.9350 N.2     1  UNL1       -0.0314
     23 C         -10.6527   -2.8541   17.7169 C.2     1  UNL1        0.3716
     24 N         -11.2129   -1.4629   17.6898 N.2     1  UNL1       -0.0311
     25 C         -12.3142   -1.3868   18.7054 C.2     1  UNL1        0.2319
     26 C         -12.4347   -2.7309   19.3602 C.2     1  UNL1        0.0328
     27 C         -11.4078   -3.6378   18.7492 C.2     1  UNL1        0.0704
     28 C         -11.0627   -5.0759   18.9996 C.3     1  UNL1        0.0598
@<TRIPOS>BOND
     1    19    20    1
     2    20    21    2
     3    21    22    1
     4    22    23    2
     5    23    24    1
     6    24    25    2
     7    25    26    1
     8    26    18    1
     9    18     1    1
    10     1     2   ar
    11     2     3   ar
    12     3     4   ar
    13     4     8    1
    14     8    10    1
    15    10    11    1
    16    11    12   ar
    17    12    13   ar
    18    13    14   ar
    19    14    15   ar
    20    15    16    1
    21    15    17   ar
    22     4     5   ar
    23     5     6   ar
    24     6     7    1
    25    26    27    2
    26    27    28    1
    27    28    20    1
    28    27    23    1
    29     6     1   ar
    30    17    11   ar
    31     8     9    1
@<TRIPOS>MOLECULE
*****
 28 31 0 0 0
SMALL
GASTEIGER

@<TRIPOS>ATOM
      1 C         -12.0183   -3.4710   19.2544 C.ar    1  UNL1        0.0284
      2 C         -13.2692   -3.9965   19.8940 C.ar    1  UNL1        0.0027
      3 C         -13.5825   -5.4622   19.8362 C.ar    1  UNL1        0.0339
      4 C         -12.6448   -6.4027   19.1388 C.ar    1  UNL1        0.1311
      5 N         -11.3938   -5.8772   18.4992 N.ar    1  UNL1       -0.2035
      6 C         -11.0805   -4.4114   18.5570 C.ar    1  UNL1        0.2196
      7 F          -9.8296   -3.8861   17.9174 F       1  UNL1       -0.1835
      8 N         -12.9580   -7.8685   19.0811 N.pl3   1  UNL1       -0.3144
      9 H         -12.5432   -8.4862   19.7257 H       1  UNL1        0.1485
     10 C         -13.9033   -8.3930   18.0412 C.3     1  UNL1        0.1155
     11 C         -15.2338   -8.9516   18.4506 C.ar    1  UNL1        0.0001
     12 C         -15.6038  -10.3568   18.0787 C.ar    1  UNL1        0.0180
     13 C         -16.9344  -10.9154   18.4880 C.ar    1  UNL1        0.0982
     14 N         -17.8950  -10.0688   19.2694 N.ar    1  UNL1       -0.2482
     15 C         -17.5249   -8.6635   19.6413 C.ar    1  UNL1        0.0591
     16 C         -18.4855   -7.8168   20.4226 C.3     1  UNL1        0.0521
     17 C         -16.1944   -8.1049   19.2319 C.ar    1  UNL1        0.0121
     18 C         -11.7051   -2.0053   19.3121 C.3     1  UNL1        0.0603
     19 C         -17.2509   -0.2132   20.2198 C.3     1  UNL1        0.0307
     20 C         -16.1485   -0.0143   19.2222 C.2     1  UNL1        0.0074
     21 C         -16.3610    0.8821   18.0384 C.2     1  UNL1        0.2278
     22 N         -15.2586    1.0809   17.0408 N.2     1  UNL1       -0.0314
     23 C         -13.9438    0.3834   17.2270 C.2     1  UNL1        0.3716
     24 N         -12.6821    0.3866   16.4157 N.2     1  UNL1       -0.0311
     25 C         -11.6899   -0.5078   17.0980 C.2     1  UNL1        0.2319
     26 C         -12.3383   -1.0638   18.3311 C.2     1  UNL1        0.0328
     27 C         -13.7313   -0.5129   18.4107 C.2     1  UNL1        0.0704
     28 C         -14.8337   -0.7118   19.4083 C.3     1  UNL1        0.0598
@<TRIPOS>BOND
     1    19    20    1
     2    20    21    2
     3    21    22    1
     4    22    23    2
     5    23    24    1
     6    24    25    2
     7    25    26    1
     8    26    18    1
     9    18     1    1
    10     1     2   ar
    11     2     3   ar
    12     3     4   ar
    13     4     8    1
    14     8    10    1
    15    10    11    1
    16    11    12   ar
    17    12    13   ar
    18    13    14   ar
    19    14    15   ar
    20    15    16    1
    21    15    17   ar
    22     4     5   ar
    23     5     6   ar
    24     6     7    1
    25    26    27    2
    26    27    28    1
    27    28    20    1
    28    27    23    1
    29     6     1   ar
    30    17    11   ar
    31     8     9    1
@<TRIPOS>MOLECULE
*****
 28 31 0 0 0
SMALL
GASTEIGER

@<TRIPOS>ATOM
      1 C          -7.0882  -20.3203   21.2748 C.ar    1  UNL1        0.0284
      2 C          -7.4677  -20.5362   22.7099 C.ar    1  UNL1        0.0027
      3 C          -8.7613  -19.9872   23.2343 C.ar    1  UNL1        0.0339
      4 C          -9.6756  -19.2223   22.3238 C.ar    1  UNL1        0.1311
      5 N          -9.2960  -19.0064   20.8887 N.ar    1  UNL1       -0.2035
      6 C          -8.0024  -19.5554   20.3642 C.ar    1  UNL1        0.2196
      7 F          -7.6230  -19.3395   18.9291 F       1  UNL1       -0.1835
      8 N         -10.9692  -18.6734   22.8483 N.pl3   1  UNL1       -0.3144
      9 H         -11.6582  -19.2845   23.1964 H       1  UNL1        0.1485
     10 C         -11.2132  -17.1934   22.8423 C.3     1  UNL1        0.1155
     11 C         -11.0881  -16.4178   21.5645 C.ar    1  UNL1        0.0001
     12 C         -12.0933  -16.6115   20.4681 C.ar    1  UNL1        0.0180
     13 C         -11.9682  -15.8359   19.1903 C.ar    1  UNL1        0.0982
     14 N         -10.8379  -14.8666   19.0088 N.ar    1  UNL1       -0.2482
     15 C          -9.8327  -14.6730   20.1052 C.ar    1  UNL1        0.0591
     16 C          -8.7024  -13.7037   19.9238 C.3     1  UNL1        0.0521
     17 C          -9.9579  -15.4485   21.3830 C.ar    1  UNL1        0.0121
     18 C          -5.7946  -20.8693   20.7503 C.3     1  UNL1        0.0603
     19 C          -4.7072  -16.5019   24.5629 C.3     1  UNL1        0.0307
     20 C          -4.1452  -17.0526   23.2859 C.2     1  UNL1        0.0074
     21 C          -2.9431  -16.4119   22.6577 C.2     1  UNL1        0.2278
     22 N          -2.3811  -16.9626   21.3807 N.2     1  UNL1       -0.0314
     23 C          -3.0211  -18.1539   20.7318 C.2     1  UNL1        0.3716
     24 N          -2.6925  -18.9125   19.4801 N.2     1  UNL1       -0.0311
     25 C          -3.6914  -20.0220   19.3347 C.2     1  UNL1        0.2319
     26 C          -4.6374  -19.9492   20.4965 C.2     1  UNL1        0.0328
     27 C          -4.2231  -18.7946   21.3599 C.2     1  UNL1        0.0704
     28 C          -4.7852  -18.2439   22.6370 C.3     1  UNL1        0.0598
@<TRIPOS>BOND
     1    19    20    1
     2    20    21    2
     3    21    22    1
     4    22    23    2
     5    23    24    1
     6    24    25    2
     7    25    26    1
     8    26    18    1
     9    18     1    1
    10     1     2   ar
    11     2     3   ar
    12     3     4   ar
    13     4     8    1
    14     8    10    1
    15    10    11    1
    16    11    12   ar
    17    12    13   ar
    18    13    14   ar
    19    14    15   ar
    20    15    16    1
    21    15    17   ar
    22     4     5   ar
    23     5     6   ar
    24     6     7    1
    25    26    27    2
    26    27    28    1
    27    28    20    1
    28    27    23    1
    29     6     1   ar
    30    17    11   ar
    31     8     9    1
@<TRIPOS>MOLECULE
*****
 28 31 0 0 0
SMALL
GASTEIGER

@<TRIPOS>ATOM
      1 C           1.5448    0.9322   18.7770 C.ar    1  UNL1        0.0284
      2 C           1.1434    2.3487   18.4902 C.ar    1  UNL1        0.0027
      3 C           0.0558    2.9976   19.2940 C.ar    1  UNL1        0.0339
      4 C          -0.6306    2.2299   20.3846 C.ar    1  UNL1        0.1311
      5 N          -0.2292    0.8133   20.6715 N.ar    1  UNL1       -0.2035
      6 C           0.8585    0.1644   19.8677 C.ar    1  UNL1        0.2196
      7 F           1.2597   -1.2521   20.1546 F       1  UNL1       -0.1835
      8 N          -1.7182    2.8787   21.1884 N.pl3   1  UNL1       -0.3144
      9 H          -1.5877    3.0441   22.1501 H       1  UNL1        0.1485
     10 C          -3.0046    3.2755   20.5269 C.3     1  UNL1        0.1155
     11 C          -4.2006    3.6252   21.3620 C.ar    1  UNL1        0.0001
     12 C          -5.4660    4.0884   20.7030 C.ar    1  UNL1        0.0180
     13 C          -6.6619    4.4382   21.5381 C.ar    1  UNL1        0.0982
     14 N          -6.5926    4.3247   23.0322 N.ar    1  UNL1       -0.2482
     15 C          -5.3271    3.8615   23.6911 C.ar    1  UNL1        0.0591
     16 C          -5.2578    3.7481   25.1852 C.3     1  UNL1        0.0521
     17 C          -4.1312    3.5118   22.8561 C.ar    1  UNL1        0.0121
     18 C           2.6324    0.2834   17.9733 C.3     1  UNL1        0.0603
     19 C           4.0389   -5.2977   19.2634 C.3     1  UNL1        0.0307
     20 C           4.6391   -3.9274   19.3728 C.2     1  UNL1        0.0074
     21 C           6.0049   -3.7521   19.9676 C.2     1  UNL1        0.2278
     22 N           6.6051   -2.3818   20.0770 N.2     1  UNL1       -0.0314
     23 C           5.8395   -1.1868   19.5914 C.2     1  UNL1        0.3716
     24 N           6.1707    0.2760   19.5687 N.2     1  UNL1       -0.0311
     25 C           5.0097    1.0048   18.9598 C.2     1  UNL1        0.2319
     26 C           3.9608   -0.0076   18.6061 C.2     1  UNL1        0.0328
     27 C           4.4738   -1.3621   18.9966 C.2     1  UNL1        0.0704
     28 C           3.8736   -2.7324   18.8872 C.3     1  UNL1        0.0598
@<TRIPOS>BOND
     1    19    20    1
     2    20    21    2
     3    21    22    1
     4    22    23    2
     5    23    24    1
     6    24    25    2
     7    25    26    1
     8    26    18    1
     9    18     1    1
    10     1     2   ar
    11     2     3   ar
    12     3     4   ar
    13     4     8    1
    14     8    10    1
    15    10    11    1
    16    11    12   ar
    17    12    13   ar
    18    13    14   ar
    19    14    15   ar
    20    15    16    1
    21    15    17   ar
    22     4     5   ar
    23     5     6   ar
    24     6     7    1
    25    26    27    2
    26    27    28    1
    27    28    20    1
    28    27    23    1
    29     6     1   ar
    30    17    11   ar
    31     8     9    1
@<TRIPOS>MOLECULE
*****
 28 31 0 0 0
SMALL
GASTEIGER

@<TRIPOS>ATOM
      1 C           5.1236   -3.5448   22.0584 C.ar    1  UNL1        0.0284
      2 C           4.3482   -2.8035   23.1067 C.ar    1  UNL1        0.0027
      3 C           5.0174   -2.3934   24.3850 C.ar    1  UNL1        0.0339
      4 C           6.4622   -2.7247   24.6149 C.ar    1  UNL1        0.1311
      5 N           7.2377   -3.4661   23.5665 N.ar    1  UNL1       -0.2035
      6 C           6.5685   -3.8761   22.2883 C.ar    1  UNL1        0.2196
      7 F           7.3440   -4.6174   21.2399 F       1  UNL1       -0.1835
      8 N           7.1315   -2.3147   25.8932 N.pl3   1  UNL1       -0.3144
      9 H           8.0889   -2.0856   25.8961 H       1  UNL1        0.1485
     10 C           6.3419   -2.2537   27.1671 C.3     1  UNL1        0.1155
     11 C           6.5197   -3.3157   28.2113 C.ar    1  UNL1        0.0001
     12 C           6.7387   -4.7418   27.8010 C.ar    1  UNL1        0.0180
     13 C           6.9165   -5.8038   28.8452 C.ar    1  UNL1        0.0982
     14 N           6.8754   -5.4398   30.2998 N.ar    1  UNL1       -0.2482
     15 C           6.6565   -4.0137   30.7101 C.ar    1  UNL1        0.0591
     16 C           6.6154   -3.6497   32.1647 C.3     1  UNL1        0.0521
     17 C           6.4787   -2.9517   29.6659 C.ar    1  UNL1        0.0121
     18 C           4.4544   -3.9548   20.7801 C.3     1  UNL1        0.0603
     19 C           0.3684    0.2867   20.4542 C.3     1  UNL1        0.0307
     20 C           1.5339   -0.2225   19.6590 C.2     1  UNL1        0.0074
     21 C           1.9041    0.4378   18.3641 C.2     1  UNL1        0.2278
     22 N           3.0695   -0.0714   17.5688 N.2     1  UNL1       -0.0314
     23 C           3.8648   -1.2410   18.0685 C.2     1  UNL1        0.3716
     24 N           5.0558   -1.9587   17.5061 N.2     1  UNL1       -0.0311
     25 C           5.4216   -3.0627   18.4534 C.2     1  UNL1        0.2319
     26 C           4.4567   -3.0273   19.6013 C.2     1  UNL1        0.0328
     27 C           3.4945   -1.9013   19.3634 C.2     1  UNL1        0.0704
     28 C           2.3291   -1.3921   20.1586 C.3     1  UNL1        0.0598
@<TRIPOS>BOND
     1    19    20    1
     2    20    21    2
     3    21    22    1
     4    22    23    2
     5    23    24    1
     6    24    25    2
     7    25    26    1
     8    26    18    1
     9    18     1    1
    10     1     2   ar
    11     2     3   ar
    12     3     4   ar
    13     4     8    1
    14     8    10    1
    15    10    11    1
    16    11    12   ar
    17    12    13   ar
    18    13    14   ar
    19    14    15   ar
    20    15    16    1
    21    15    17   ar
    22     4     5   ar
    23     5     6   ar
    24     6     7    1
    25    26    27    2
    26    27    28    1
    27    28    20    1
    28    27    23    1
    29     6     1   ar
    30    17    11   ar
    31     8     9    1
@<TRIPOS>MOLECULE
*****
 28 31 0 0 0
SMALL
GASTEIGER

@<TRIPOS>ATOM
      1 C          -8.2811  -19.3777   21.3933 C.ar    1  UNL1        0.0284
      2 C          -7.7630  -18.8739   20.0789 C.ar    1  UNL1        0.0027
      3 C          -6.4509  -19.3718   19.5492 C.ar    1  UNL1        0.0339
      4 C          -5.6569  -20.3737   20.3340 C.ar    1  UNL1        0.1311
      5 N          -6.1750  -20.8775   21.6484 N.ar    1  UNL1       -0.2035
      6 C          -7.4871  -20.3796   22.1781 C.ar    1  UNL1        0.2196
      7 F          -8.0051  -20.8835   23.4925 F       1  UNL1       -0.1835
      8 N          -4.3448  -20.8716   19.8043 N.pl3   1  UNL1       -0.3144
      9 H          -4.1905  -21.8385   19.7016 H       1  UNL1        0.1485
     10 C          -3.2680  -19.8964   19.4312 C.3     1  UNL1        0.1155
     11 C          -2.8967  -18.7916   20.3753 C.ar    1  UNL1        0.0001
     12 C          -2.0522  -17.6480   19.8967 C.ar    1  UNL1        0.0180
     13 C          -1.6809  -16.5432   20.8408 C.ar    1  UNL1        0.0982
     14 N          -2.1541  -16.5818   22.2637 N.ar    1  UNL1       -0.2482
     15 C          -2.9987  -17.7254   22.7423 C.ar    1  UNL1        0.0591
     16 C          -3.4719  -17.7641   24.1652 C.3     1  UNL1        0.0521
     17 C          -3.3699  -18.8302   21.7982 C.ar    1  UNL1        0.0121
     18 C          -9.5931  -18.8798   21.9229 C.3     1  UNL1        0.0603
     19 C          -5.6037  -15.0148   23.9074 C.3     1  UNL1        0.0307
     20 C          -6.8152  -15.7446   24.4070 C.2     1  UNL1        0.0074
     21 C          -7.2865  -15.5393   25.8161 C.2     1  UNL1        0.2278
     22 N          -8.4980  -16.2691   26.3157 N.2     1  UNL1       -0.0314
     23 C          -9.2383  -17.2043   25.4061 C.2     1  UNL1        0.3716
     24 N         -10.4556  -18.0551   25.6163 N.2     1  UNL1       -0.0311
     25 C         -10.7367  -18.7863   24.3371 C.2     1  UNL1        0.2319
     26 C          -9.6931  -18.3874   23.3363 C.2     1  UNL1        0.0328
     27 C          -8.7670  -17.4097   23.9970 C.2     1  UNL1        0.0704
     28 C          -7.5555  -16.6798   23.4974 C.3     1  UNL1        0.0598
@<TRIPOS>BOND
     1    19    20    1
     2    20    21    2
     3    21    22    1
     4    22    23    2
     5    23    24    1
     6    24    25    2
     7    25    26    1
     8    26    18    1
     9    18     1    1
    10     1     2   ar
    11     2     3   ar
    12     3     4   ar
    13     4     8    1
    14     8    10    1
    15    10    11    1
    16    11    12   ar
    17    12    13   ar
    18    13    14   ar
    19    14    15   ar
    20    15    16    1
    21    15    17   ar
    22     4     5   ar
    23     5     6   ar
    24     6     7    1
    25    26    27    2
    26    27    28    1
    27    28    20    1
    28    27    23    1
    29     6     1   ar
    30    17    11   ar
    31     8     9    1
@<TRIPOS>MOLECULE
*****
 28 31 0 0 0
SMALL
GASTEIGER

@<TRIPOS>ATOM
      1 C           5.1542   -3.5463   21.8857 C.ar    1  UNL1        0.0284
      2 C           4.2991   -2.8015   22.8674 C.ar    1  UNL1        0.0027
      3 C           4.8638   -2.3939   24.1960 C.ar    1  UNL1        0.0339
      4 C           6.2837   -2.7311   24.5428 C.ar    1  UNL1        0.1311
      5 N           7.1388   -3.4760   23.5609 N.ar    1  UNL1       -0.2035
      6 C           6.5741   -3.8836   22.2324 C.ar    1  UNL1        0.2196
      7 F           7.4293   -4.6285   21.2507 F       1  UNL1       -0.1835
      8 N           6.8483   -2.3234   25.8713 N.pl3   1  UNL1       -0.3144
      9 H           7.5555   -1.6401   25.9168 H       1  UNL1        0.1485
     10 C           6.3355   -2.9570   27.1304 C.3     1  UNL1        0.1155
     11 C           6.8818   -4.2793   27.5810 C.ar    1  UNL1        0.0001
     12 C           7.3980   -4.4401   28.9801 C.ar    1  UNL1        0.0180
     13 C           7.9444   -5.7624   29.4307 C.ar    1  UNL1        0.0982
     14 N           7.9744   -6.9240   28.4821 N.ar    1  UNL1       -0.2482
     15 C           7.4581   -6.7632   27.0829 C.ar    1  UNL1        0.0591
     16 C           7.4882   -7.9248   26.1344 C.3     1  UNL1        0.0521
     17 C           6.9118   -5.4409   26.6324 C.ar    1  UNL1        0.0121
     18 C           4.5896   -3.9540   20.5572 C.3     1  UNL1        0.0603
     19 C           0.3816    0.1794   20.5601 C.3     1  UNL1        0.0307
     20 C           1.5393   -0.2533   19.7102 C.2     1  UNL1        0.0074
     21 C           1.8573    0.4851   18.4438 C.2     1  UNL1        0.2278
     22 N           3.0151    0.0524   17.5939 N.2     1  UNL1       -0.0314
     23 C           3.8549   -1.1186   18.0103 C.2     1  UNL1        0.3716
     24 N           5.0500   -1.7710   17.3810 N.2     1  UNL1       -0.0311
     25 C           5.4707   -2.9125   18.2585 C.2     1  UNL1        0.2319
     26 C           4.5356   -2.9657   19.4301 C.2     1  UNL1        0.0328
     27 C           3.5370   -1.8569   19.2767 C.2     1  UNL1        0.0704
     28 C           2.3792   -1.4242   20.1266 C.3     1  UNL1        0.0598
@<TRIPOS>BOND
     1    19    20    1
     2    20    21    2
     3    21    22    1
     4    22    23    2
     5    23    24    1
     6    24    25    2
     7    25    26    1
     8    26    18    1
     9    18     1    1
    10     1     2   ar
    11     2     3   ar
    12     3     4   ar
    13     4     8    1
    14     8    10    1
    15    10    11    1
    16    11    12   ar
    17    12    13   ar
    18    13    14   ar
    19    14    15   ar
    20    15    16    1
    21    15    17   ar
    22     4     5   ar
    23     5     6   ar
    24     6     7    1
    25    26    27    2
    26    27    28    1
    27    28    20    1
    28    27    23    1
    29     6     1   ar
    30    17    11   ar
    31     8     9    1
@<TRIPOS>MOLECULE
*****
 28 31 0 0 0
SMALL
GASTEIGER

@<TRIPOS>ATOM
      1 C           2.0978   -0.4332   21.2273 C.ar    1  UNL1        0.0284
      2 C           3.1231   -0.7493   22.2755 C.ar    1  UNL1        0.0027
      3 C           3.2326    0.1092   23.5006 C.ar    1  UNL1        0.0339
      4 C           2.3168    1.2838   23.6777 C.ar    1  UNL1        0.1311
      5 N           1.2913    1.6000   22.6295 N.ar    1  UNL1       -0.2035
      6 C           1.1818    0.7415   21.4043 C.ar    1  UNL1        0.2196
      7 F           0.1564    1.0577   20.3562 F       1  UNL1       -0.1835
      8 N           2.4263    2.1423   24.9029 N.pl3   1  UNL1       -0.3144
      9 H           3.2762    2.5918   25.1146 H       1  UNL1        0.1485
     10 C           1.2409    2.3158   25.8054 C.3     1  UNL1        0.1155
     11 C           1.0867    1.4448   27.0168 C.ar    1  UNL1        0.0001
     12 C           2.2990    0.9989   27.7793 C.ar    1  UNL1        0.0180
     13 C           2.1449    0.1279   28.9907 C.ar    1  UNL1        0.0982
     14 N           0.7783   -0.2973   29.4397 N.ar    1  UNL1       -0.2482
     15 C          -0.4341    0.1486   28.6772 C.ar    1  UNL1        0.0591
     16 C          -1.8007   -0.2766   29.1263 C.3     1  UNL1        0.0521
     17 C          -0.2799    1.0196   27.4659 C.ar    1  UNL1        0.0121
     18 C           1.9882   -1.2916   20.0022 C.3     1  UNL1        0.0603
     19 C           5.6676    2.5421   17.4416 C.3     1  UNL1        0.0307
     20 C           5.5541    1.0635   17.6666 C.2     1  UNL1        0.0074
     21 C           6.6163    0.1417   17.1451 C.2     1  UNL1        0.2278
     22 N           6.5028   -1.3369   17.3702 N.2     1  UNL1       -0.0314
     23 C           5.3271   -1.8939   18.1167 C.2     1  UNL1        0.3716
     24 N           4.9474   -3.2964   18.4890 N.2     1  UNL1       -0.0311
     25 C           3.6504   -3.2415   19.2407 C.2     1  UNL1        0.2319
     26 C           3.2285   -1.8051   19.3329 C.2     1  UNL1        0.0328
     27 C           4.2648   -0.9722   18.6382 C.2     1  UNL1        0.0704
     28 C           4.3783    0.5065   18.4131 C.3     1  UNL1        0.0598
@<TRIPOS>BOND
     1    19    20    1
     2    20    21    2
     3    21    22    1
     4    22    23    2
     5    23    24    1
     6    24    25    2
     7    25    26    1
     8    26    18    1
     9    18     1    1
    10     1     2   ar
    11     2     3   ar
    12     3     4   ar
    13     4     8    1
    14     8    10    1
    15    10    11    1
    16    11    12   ar
    17    12    13   ar
    18    13    14   ar
    19    14    15   ar
    20    15    16    1
    21    15    17   ar
    22     4     5   ar
    23     5     6   ar
    24     6     7    1
    25    26    27    2
    26    27    28    1
    27    28    20    1
    28    27    23    1
    29     6     1   ar
    30    17    11   ar
    31     8     9    1
