@<TRIPOS>MOLECULE
*****
 29 32 0 0 0
SMALL
GASTEIGER

@<TRIPOS>ATOM
      1 C          -6.8782  -16.1611   23.9111 C.ar    1  UNL1        0.0926
      2 C          -8.1842  -16.3224   23.1912 C.ar    1  UNL1        0.0467
      3 C          -9.4736  -16.0442   23.9053 C.ar    1  UNL1        0.1649
      4 C          -9.4570  -15.6045   25.3394 C.ar    1  UNL1        0.1395
      5 N          -8.1510  -15.4432   26.0593 N.ar    1  UNL1       -0.2060
      6 N          -7.8232  -15.0272   27.4626 N.ar    1  UNL1       -0.1408
      7 C          -6.3312  -15.0483   27.6158 C.ar    1  UNL1        0.2213
      8 N          -5.7369  -15.4774   26.3071 N.ar    1  UNL1       -0.2033
      9 C          -6.8616  -15.7214   25.3451 C.ar    1  UNL1        0.1702
     10 O          -4.5525  -15.3619   23.0727 O.2     1  UNL1       -0.2697
     11 C          -5.5888  -16.4394   23.1969 C.2     1  UNL1        0.2536
     12 N          -5.3356  -17.7951   22.6071 N.am    1  UNL1       -0.2657
     13 H          -6.0156  -18.5022   22.6886 H       1  UNL1        0.1566
     14 C          -4.0461  -18.0733   21.8929 C.ar    1  UNL1        0.1345
     15 C          -2.7610  -18.1391   22.6638 C.ar    1  UNL1        0.0368
     16 C          -1.4715  -18.4173   21.9497 C.ar    1  UNL1        0.0341
     17 C          -1.4671  -18.6296   20.4649 C.ar    1  UNL1        0.1593
     18 F          -0.1777  -18.9078   19.7508 F       1  UNL1       -0.2025
     19 C          -2.7523  -18.5638   19.6940 C.ar    1  UNL1        0.1298
     20 N          -4.0417  -18.2856   20.4081 N.ar    1  UNL1       -0.2267
     21 O         -10.7797  -16.2056   23.1853 O.3     1  UNL1       -0.4480
     22 C         -10.8838  -17.1476   22.0227 C.ar    1  UNL1        0.1939
     23 C         -10.8808  -16.6127   20.6213 C.ar    1  UNL1        0.1387
     24 N         -10.9849  -17.5547   19.4587 N.ar    1  UNL1       -0.2366
     25 C         -11.0921  -19.0317   19.6975 C.ar    1  UNL1        0.1310
     26 C         -11.0951  -19.5666   21.0988 C.ar    1  UNL1        0.1895
     27 F         -11.2023  -21.0437   21.3377 F       1  UNL1       -0.2000
     28 C         -10.9910  -18.6246   22.2614 C.ar    1  UNL1        0.2047
     29 F         -10.9940  -19.1595   23.6628 F       1  UNL1       -0.1984
@<TRIPOS>BOND
     1    10    11    2
     2    11    12   am
     3    12    14    1
     4    14    15   ar
     5    15    16   ar
     6    16    17   ar
     7    17    18    1
     8    17    19   ar
     9    19    20   ar
    10    11     1    1
    11     1     2   ar
    12     2     3   ar
    13     3    21    1
    14    21    22    1
    15    22    23   ar
    16    23    24   ar
    17    24    25   ar
    18    25    26   ar
    19    26    27    1
    20    26    28   ar
    21    28    29    1
    22     3     4   ar
    23     4     5   ar
    24     5     6   ar
    25     6     7   ar
    26     7     8   ar
    27     8     9   ar
    28    20    14   ar
    29     9     1   ar
    30    28    22   ar
    31     9     5   ar
    32    12    13    1
@<TRIPOS>MOLECULE
*****
 29 32 0 0 0
SMALL
GASTEIGER

@<TRIPOS>ATOM
      1 C          -7.1937  -17.9802   22.9762 C.ar    1  UNL1        0.0926
      2 C          -6.2560  -18.8960   22.2468 C.ar    1  UNL1        0.0467
      3 C          -4.7816  -18.6206   22.2541 C.ar    1  UNL1        0.1649
      4 C          -4.2447  -17.4292   22.9908 C.ar    1  UNL1        0.1395
      5 N          -5.1824  -16.5135   23.7202 N.ar    1  UNL1       -0.2060
      6 N          -4.9469  -15.2714   24.5275 N.ar    1  UNL1       -0.1408
      7 C          -6.2758  -14.7792   25.0191 C.ar    1  UNL1        0.2213
      8 N          -7.3327  -15.7171   24.5157 N.ar    1  UNL1       -0.2033
      9 C          -6.6569  -16.7889   23.7129 C.ar    1  UNL1        0.1702
     10 O          -9.2227  -19.3484   22.1036 O.2     1  UNL1       -0.2697
     11 C          -8.6681  -18.2557   22.9689 C.2     1  UNL1        0.2536
     12 N          -9.5880  -17.4386   23.8269 N.am    1  UNL1       -0.2657
     13 H          -9.2241  -16.7215   24.3948 H       1  UNL1        0.1566
     14 C         -11.0625  -17.7142   23.8195 C.ar    1  UNL1        0.1345
     15 C         -11.9294  -17.1292   22.7442 C.ar    1  UNL1        0.0368
     16 C         -13.4039  -17.4047   22.7368 C.ar    1  UNL1        0.0341
     17 C         -14.0115  -18.2652   23.8046 C.ar    1  UNL1        0.1593
     18 F         -15.4859  -18.5407   23.7972 F       1  UNL1       -0.2025
     19 C         -13.1445  -18.8502   24.8800 C.ar    1  UNL1        0.1298
     20 N         -11.6701  -18.5746   24.8874 N.ar    1  UNL1       -0.2267
     21 O          -3.8438  -19.5364   21.5247 O.3     1  UNL1       -0.4480
     22 C          -2.7142  -18.9665   20.7189 C.ar    1  UNL1        0.1939
     23 C          -1.3090  -19.0438   21.2379 C.ar    1  UNL1        0.1387
     24 N          -0.1795  -18.4739   20.4322 N.ar    1  UNL1       -0.2366
     25 C          -0.4551  -17.8266   19.1074 C.ar    1  UNL1        0.1310
     26 C          -1.8603  -17.7493   18.5883 C.ar    1  UNL1        0.1895
     27 F          -2.1360  -17.1021   17.2635 F       1  UNL1       -0.2000
     28 C          -2.9899  -18.3192   19.3941 C.ar    1  UNL1        0.2047
     29 F          -4.3951  -18.2419   18.8751 F       1  UNL1       -0.1984
@<TRIPOS>BOND
     1    10    11    2
     2    11    12   am
     3    12    14    1
     4    14    15   ar
     5    15    16   ar
     6    16    17   ar
     7    17    18    1
     8    17    19   ar
     9    19    20   ar
    10    11     1    1
    11     1     2   ar
    12     2     3   ar
    13     3    21    1
    14    21    22    1
    15    22    23   ar
    16    23    24   ar
    17    24    25   ar
    18    25    26   ar
    19    26    27    1
    20    26    28   ar
    21    28    29    1
    22     3     4   ar
    23     4     5   ar
    24     5     6   ar
    25     6     7   ar
    26     7     8   ar
    27     8     9   ar
    28    20    14   ar
    29     9     1   ar
    30    28    22   ar
    31     9     5   ar
    32    12    13    1
@<TRIPOS>MOLECULE
*****
 29 32 0 0 0
SMALL
GASTEIGER

@<TRIPOS>ATOM
      1 C          -6.6957  -16.8481   23.7134 C.ar    1  UNL1        0.0926
      2 C          -8.0920  -17.2496   23.3402 C.ar    1  UNL1        0.0467
      3 C          -9.2448  -16.8556   24.2151 C.ar    1  UNL1        0.1649
      4 C          -9.0015  -16.0602   25.4634 C.ar    1  UNL1        0.1395
      5 N          -7.6053  -15.6587   25.8366 N.ar    1  UNL1       -0.2060
      6 N          -7.0613  -14.8797   26.9973 N.ar    1  UNL1       -0.1408
      7 C          -5.5722  -14.7923   26.8397 C.ar    1  UNL1        0.2213
      8 N          -5.1959  -15.5172   25.5816 N.ar    1  UNL1       -0.2033
      9 C          -6.4524  -16.0527   24.9616 C.ar    1  UNL1        0.1702
     10 O          -5.7691  -18.1415   21.6594 O.2     1  UNL1       -0.2697
     11 C          -5.5428  -17.2421   22.8384 C.2     1  UNL1        0.2536
     12 N          -4.1636  -16.7368   23.1424 N.am    1  UNL1       -0.2657
     13 H          -4.0151  -16.1465   23.9162 H       1  UNL1        0.1566
     14 C          -3.0107  -17.1308   22.2674 C.ar    1  UNL1        0.1345
     15 C          -2.6020  -18.5707   22.1688 C.ar    1  UNL1        0.0368
     16 C          -1.4491  -18.9648   21.2938 C.ar    1  UNL1        0.0341
     17 C          -0.7051  -17.9191   20.5174 C.ar    1  UNL1        0.1593
     18 F           0.4477  -18.3132   19.6424 F       1  UNL1       -0.2025
     19 C          -1.1139  -16.4792   20.6160 C.ar    1  UNL1        0.1298
     20 N          -2.2667  -16.0851   21.4910 N.ar    1  UNL1       -0.2267
     21 O         -10.6412  -17.2571   23.8418 O.3     1  UNL1       -0.4480
     22 C         -10.9250  -17.7985   22.4720 C.ar    1  UNL1        0.1939
     23 C         -10.9430  -19.2804   22.2401 C.ar    1  UNL1        0.1387
     24 N         -11.2269  -19.8218   20.8703 N.ar    1  UNL1       -0.2366
     25 C         -11.4928  -18.8813   19.7325 C.ar    1  UNL1        0.1310
     26 C         -11.4748  -17.3995   19.9644 C.ar    1  UNL1        0.1895
     27 F         -11.7407  -16.4589   18.8265 F       1  UNL1       -0.2000
     28 C         -11.1909  -16.8581   21.3341 C.ar    1  UNL1        0.2047
     29 F         -11.1730  -15.3762   21.5660 F       1  UNL1       -0.1984
@<TRIPOS>BOND
     1    10    11    2
     2    11    12   am
     3    12    14    1
     4    14    15   ar
     5    15    16   ar
     6    16    17   ar
     7    17    18    1
     8    17    19   ar
     9    19    20   ar
    10    11     1    1
    11     1     2   ar
    12     2     3   ar
    13     3    21    1
    14    21    22    1
    15    22    23   ar
    16    23    24   ar
    17    24    25   ar
    18    25    26   ar
    19    26    27    1
    20    26    28   ar
    21    28    29    1
    22     3     4   ar
    23     4     5   ar
    24     5     6   ar
    25     6     7   ar
    26     7     8   ar
    27     8     9   ar
    28    20    14   ar
    29     9     1   ar
    30    28    22   ar
    31     9     5   ar
    32    12    13    1
@<TRIPOS>MOLECULE
*****
 29 32 0 0 0
SMALL
GASTEIGER

@<TRIPOS>ATOM
      1 C          -7.7028  -18.1526   21.5211 C.ar    1  UNL1        0.0926
      2 C          -7.9658  -17.3399   22.7541 C.ar    1  UNL1        0.0467
      3 C          -9.3683  -17.1784   23.2608 C.ar    1  UNL1        0.1649
      4 C         -10.5079  -17.8297   22.5346 C.ar    1  UNL1        0.1395
      5 N         -10.2448  -18.6425   21.3017 N.ar    1  UNL1       -0.2060
      6 N         -11.1595  -19.3965   20.3826 N.ar    1  UNL1       -0.1408
      7 C         -10.3222  -20.0240   19.3077 C.ar    1  UNL1        0.2213
      8 N          -8.8901  -19.6578   19.5626 N.ar    1  UNL1       -0.2033
      9 C          -8.8422  -18.8039   20.7949 C.ar    1  UNL1        0.1702
     10 O          -6.0582  -18.6672   19.5767 O.2     1  UNL1       -0.2697
     11 C          -6.3002  -18.3141   21.0144 C.2     1  UNL1        0.2536
     12 N          -5.1397  -18.1225   21.9452 N.am    1  UNL1       -0.2657
     13 H          -5.2985  -17.8907   22.8888 H       1  UNL1        0.1566
     14 C          -3.7372  -18.2840   21.4384 C.ar    1  UNL1        0.1345
     15 C          -3.1457  -19.6547   21.2924 C.ar    1  UNL1        0.0368
     16 C          -1.7432  -19.8163   20.7856 C.ar    1  UNL1        0.0341
     17 C          -0.9321  -18.6072   20.4247 C.ar    1  UNL1        0.1593
     18 F           0.4703  -18.7687   19.9179 F       1  UNL1       -0.2025
     19 C          -1.5237  -17.2364   20.5708 C.ar    1  UNL1        0.1298
     20 N          -2.9261  -17.0749   21.0775 N.ar    1  UNL1       -0.2267
     21 O          -9.6314  -16.3656   24.4939 O.3     1  UNL1       -0.4480
     22 C          -8.5592  -16.2078   25.5310 C.ar    1  UNL1        0.1939
     23 C          -8.6943  -16.8914   26.8593 C.ar    1  UNL1        0.1387
     24 N          -7.6221  -16.7336   27.8964 N.ar    1  UNL1       -0.2366
     25 C          -6.4150  -15.8922   27.6053 C.ar    1  UNL1        0.1310
     26 C          -6.2800  -15.2085   26.2770 C.ar    1  UNL1        0.1895
     27 F          -5.0728  -14.3670   25.9857 F       1  UNL1       -0.2000
     28 C          -7.3521  -15.3663   25.2398 C.ar    1  UNL1        0.2047
     29 F          -7.2171  -14.6827   23.9115 F       1  UNL1       -0.1984
@<TRIPOS>BOND
     1    10    11    2
     2    11    12   am
     3    12    14    1
     4    14    15   ar
     5    15    16   ar
     6    16    17   ar
     7    17    18    1
     8    17    19   ar
     9    19    20   ar
    10    11     1    1
    11     1     2   ar
    12     2     3   ar
    13     3    21    1
    14    21    22    1
    15    22    23   ar
    16    23    24   ar
    17    24    25   ar
    18    25    26   ar
    19    26    27    1
    20    26    28   ar
    21    28    29    1
    22     3     4   ar
    23     4     5   ar
    24     5     6   ar
    25     6     7   ar
    26     7     8   ar
    27     8     9   ar
    28    20    14   ar
    29     9     1   ar
    30    28    22   ar
    31     9     5   ar
    32    12    13    1
@<TRIPOS>MOLECULE
*****
 29 32 0 0 0
SMALL
GASTEIGER

@<TRIPOS>ATOM
      1 C          -7.4008  -16.4598   24.0789 C.ar    1  UNL1        0.0926
      2 C          -6.1266  -16.4898   23.2880 C.ar    1  UNL1        0.0467
      3 C          -4.8638  -15.9372   23.8792 C.ar    1  UNL1        0.1649
      4 C          -4.8750  -15.3544   25.2614 C.ar    1  UNL1        0.1395
      5 N          -6.1492  -15.3244   26.0523 N.ar    1  UNL1       -0.2060
      6 N          -6.4647  -14.8172   27.4282 N.ar    1  UNL1       -0.1408
      7 C          -7.9226  -15.0564   27.6873 C.ar    1  UNL1        0.2213
      8 N          -8.5082  -15.7115   26.4716 N.ar    1  UNL1       -0.2033
      9 C          -7.4121  -15.8771   25.4610 C.ar    1  UNL1        0.1702
     10 O          -8.6366  -18.3154   22.7447 O.2     1  UNL1       -0.2697
     11 C          -8.6637  -17.0125   23.4876 C.2     1  UNL1        0.2536
     12 N          -9.9538  -16.2624   23.6393 N.am    1  UNL1       -0.2657
     13 H          -9.9717  -15.4073   24.1268 H       1  UNL1        0.1566
     14 C         -11.2167  -16.8151   23.0480 C.ar    1  UNL1        0.1345
     15 C         -12.1470  -17.6315   23.8955 C.ar    1  UNL1        0.0368
     16 C         -13.4098  -18.1843   23.3043 C.ar    1  UNL1        0.0341
     17 C         -13.7425  -17.9208   21.8656 C.ar    1  UNL1        0.1593
     18 F         -15.0053  -18.4735   21.2744 F       1  UNL1       -0.2025
     19 C         -12.8122  -17.1044   21.0181 C.ar    1  UNL1        0.1298
     20 N         -11.5494  -16.5516   21.6093 N.ar    1  UNL1       -0.2267
     21 O          -3.5895  -15.9672   23.0882 O.3     1  UNL1       -0.4480
     22 C          -3.1533  -17.2356   22.4168 C.ar    1  UNL1        0.1939
     23 C          -3.8583  -18.5247   22.7185 C.ar    1  UNL1        0.1387
     24 N          -3.4221  -19.7931   22.0470 N.ar    1  UNL1       -0.2366
     25 C          -2.2808  -19.7724   21.0739 C.ar    1  UNL1        0.1310
     26 C          -1.5757  -18.4833   20.7722 C.ar    1  UNL1        0.1895
     27 F          -0.4344  -18.4625   19.7990 F       1  UNL1       -0.2000
     28 C          -2.0120  -17.2149   21.4437 C.ar    1  UNL1        0.2047
     29 F          -1.3069  -15.9258   21.1420 F       1  UNL1       -0.1984
@<TRIPOS>BOND
     1    10    11    2
     2    11    12   am
     3    12    14    1
     4    14    15   ar
     5    15    16   ar
     6    16    17   ar
     7    17    18    1
     8    17    19   ar
     9    19    20   ar
    10    11     1    1
    11     1     2   ar
    12     2     3   ar
    13     3    21    1
    14    21    22    1
    15    22    23   ar
    16    23    24   ar
    17    24    25   ar
    18    25    26   ar
    19    26    27    1
    20    26    28   ar
    21    28    29    1
    22     3     4   ar
    23     4     5   ar
    24     5     6   ar
    25     6     7   ar
    26     7     8   ar
    27     8     9   ar
    28    20    14   ar
    29     9     1   ar
    30    28    22   ar
    31     9     5   ar
    32    12    13    1
@<TRIPOS>MOLECULE
*****
 29 32 0 0 0
SMALL
GASTEIGER

@<TRIPOS>ATOM
      1 C          -6.8096  -16.1269   23.7792 C.ar    1  UNL1        0.0926
      2 C          -5.4990  -16.6627   23.2840 C.ar    1  UNL1        0.0467
      3 C          -4.3635  -16.8699   24.2418 C.ar    1  UNL1        0.1649
      4 C          -4.5385  -16.5414   25.6950 C.ar    1  UNL1        0.1395
      5 N          -5.8491  -16.0056   26.1902 N.ar    1  UNL1       -0.2060
      6 N          -6.3139  -15.5950   27.5560 N.ar    1  UNL1       -0.1408
      7 C          -7.7367  -15.1340   27.4422 C.ar    1  UNL1        0.2213
      8 N          -8.1513  -15.2597   26.0061 N.ar    1  UNL1       -0.2033
      9 C          -6.9847  -15.7983   25.2323 C.ar    1  UNL1        0.1702
     10 O          -7.7839  -14.9872   21.6574 O.2     1  UNL1       -0.2697
     11 C          -7.9452  -15.9196   22.8214 C.2     1  UNL1        0.2536
     12 N          -9.2420  -16.6447   23.0274 N.am    1  UNL1       -0.2657
     13 H          -9.3479  -17.2567   23.7913 H       1  UNL1        0.1566
     14 C         -10.3776  -16.4374   22.0694 C.ar    1  UNL1        0.1345
     15 C         -11.7570  -16.1613   22.5900 C.ar    1  UNL1        0.0368
     16 C         -12.8926  -15.9540   21.6322 C.ar    1  UNL1        0.0341
     17 C         -12.6488  -16.0227   20.1537 C.ar    1  UNL1        0.1593
     18 F         -13.7842  -15.8154   19.1959 F       1  UNL1       -0.2025
     19 C         -11.2693  -16.2988   19.6332 C.ar    1  UNL1        0.1298
     20 N         -10.1338  -16.5061   20.5910 N.ar    1  UNL1       -0.2267
     21 O          -3.0529  -17.4058   23.7466 O.3     1  UNL1       -0.4480
     22 C          -2.8865  -17.7603   22.2986 C.ar    1  UNL1        0.1939
     23 C          -2.0938  -16.8646   21.3934 C.ar    1  UNL1        0.1387
     24 N          -1.9275  -17.2191   19.9455 N.ar    1  UNL1       -0.2366
     25 C          -2.5539  -18.4693   19.4026 C.ar    1  UNL1        0.1310
     26 C          -3.3466  -19.3649   20.3078 C.ar    1  UNL1        0.1895
     27 F          -3.9731  -20.6152   19.7650 F       1  UNL1       -0.2000
     28 C          -3.5130  -19.0104   21.7558 C.ar    1  UNL1        0.2047
     29 F          -4.3057  -19.9061   22.6609 F       1  UNL1       -0.1984
@<TRIPOS>BOND
     1    10    11    2
     2    11    12   am
     3    12    14    1
     4    14    15   ar
     5    15    16   ar
     6    16    17   ar
     7    17    18    1
     8    17    19   ar
     9    19    20   ar
    10    11     1    1
    11     1     2   ar
    12     2     3   ar
    13     3    21    1
    14    21    22    1
    15    22    23   ar
    16    23    24   ar
    17    24    25   ar
    18    25    26   ar
    19    26    27    1
    20    26    28   ar
    21    28    29    1
    22     3     4   ar
    23     4     5   ar
    24     5     6   ar
    25     6     7   ar
    26     7     8   ar
    27     8     9   ar
    28    20    14   ar
    29     9     1   ar
    30    28    22   ar
    31     9     5   ar
    32    12    13    1
@<TRIPOS>MOLECULE
*****
 29 32 0 0 0
SMALL
GASTEIGER

@<TRIPOS>ATOM
      1 C         -12.9966   -5.5762   18.8488 C.ar    1  UNL1        0.0926
      2 C         -13.0742   -4.0940   19.0656 C.ar    1  UNL1        0.0467
      3 C         -11.8192   -3.2728   19.0891 C.ar    1  UNL1        0.1649
      4 C         -10.4866   -3.9338   18.8959 C.ar    1  UNL1        0.1395
      5 N         -10.4091   -5.4161   18.6792 N.ar    1  UNL1       -0.2060
      6 N          -9.2469   -6.3391   18.4614 N.ar    1  UNL1       -0.1408
      7 C          -9.7838   -7.7308   18.3032 C.ar    1  UNL1        0.2213
      8 N         -11.2776   -7.6679   18.4232 N.ar    1  UNL1       -0.2033
      9 C         -11.6641   -6.2373   18.6556 C.ar    1  UNL1        0.1702
     10 O         -15.4289   -5.9923   19.6621 O.2     1  UNL1       -0.2697
     11 C         -14.2517   -6.3974   18.8253 C.2     1  UNL1        0.2536
     12 N         -14.3296   -7.6237   17.9650 N.am    1  UNL1       -0.2657
     13 H         -13.5570   -7.8896   17.4158 H       1  UNL1        0.1566
     14 C         -15.5847   -8.4448   17.9415 C.ar    1  UNL1        0.1345
     15 C         -16.7751   -7.9730   17.1603 C.ar    1  UNL1        0.0368
     16 C         -18.0302   -8.7940   17.1367 C.ar    1  UNL1        0.0341
     17 C         -18.0949  -10.0870   17.8944 C.ar    1  UNL1        0.1593
     18 F         -19.3499  -10.9080   17.8709 F       1  UNL1       -0.2025
     19 C         -16.9044  -10.5588   18.6756 C.ar    1  UNL1        0.1298
     20 N         -15.6494   -9.7378   18.6991 N.ar    1  UNL1       -0.2267
     21 O         -11.8968   -1.7905   19.3059 O.3     1  UNL1       -0.4480
     22 C         -12.3644   -0.8940   18.1979 C.ar    1  UNL1        0.1939
     23 C         -11.4153   -0.4898   17.1090 C.ar    1  UNL1        0.1387
     24 N         -11.8829    0.4067   16.0010 N.ar    1  UNL1       -0.2366
     25 C         -13.2996    0.8991   15.9820 C.ar    1  UNL1        0.1310
     26 C         -14.2487    0.4949   17.0709 C.ar    1  UNL1        0.1895
     27 F         -15.6656    0.9873   17.0520 F       1  UNL1       -0.2000
     28 C         -13.7811   -0.4016   18.1789 C.ar    1  UNL1        0.2047
     29 F         -14.7302   -0.8058   19.2678 F       1  UNL1       -0.1984
@<TRIPOS>BOND
     1    10    11    2
     2    11    12   am
     3    12    14    1
     4    14    15   ar
     5    15    16   ar
     6    16    17   ar
     7    17    18    1
     8    17    19   ar
     9    19    20   ar
    10    11     1    1
    11     1     2   ar
    12     2     3   ar
    13     3    21    1
    14    21    22    1
    15    22    23   ar
    16    23    24   ar
    17    24    25   ar
    18    25    26   ar
    19    26    27    1
    20    26    28   ar
    21    28    29    1
    22     3     4   ar
    23     4     5   ar
    24     5     6   ar
    25     6     7   ar
    26     7     8   ar
    27     8     9   ar
    28    20    14   ar
    29     9     1   ar
    30    28    22   ar
    31     9     5   ar
    32    12    13    1
@<TRIPOS>MOLECULE
*****
 29 32 0 0 0
SMALL
GASTEIGER

@<TRIPOS>ATOM
      1 C         -13.4707   -4.9665   19.2374 C.ar    1  UNL1        0.0926
      2 C         -14.3013   -6.2035   19.0646 C.ar    1  UNL1        0.0467
      3 C         -13.6548   -7.4871   18.6353 C.ar    1  UNL1        0.1649
      4 C         -12.1776   -7.5337   18.3787 C.ar    1  UNL1        0.1395
      5 N         -11.3470   -6.2967   18.5514 N.ar    1  UNL1       -0.2060
      6 N          -9.8800   -6.0397   18.3727 N.ar    1  UNL1       -0.1408
      7 C          -9.6200   -4.5973   18.6917 C.ar    1  UNL1        0.2213
      8 N         -10.9262   -3.9628   19.0675 N.ar    1  UNL1       -0.2033
      9 C         -11.9936   -5.0131   18.9808 C.ar    1  UNL1        0.1702
     10 O         -13.8119   -3.1041   21.0165 O.2     1  UNL1       -0.2697
     11 C         -14.1173   -3.6829   19.6667 C.2     1  UNL1        0.2536
     12 N         -15.0692   -2.9781   18.7464 N.am    1  UNL1       -0.2657
     13 H         -15.2697   -3.3580   17.8605 H       1  UNL1        0.1566
     14 C         -15.7158   -1.6945   19.1758 C.ar    1  UNL1        0.1345
     15 C         -15.0039   -0.3905   18.9693 C.ar    1  UNL1        0.0368
     16 C         -15.6503    0.8932   19.3987 C.ar    1  UNL1        0.0341
     17 C         -17.0087    0.8728   20.0347 C.ar    1  UNL1        0.1593
     18 F         -17.6551    2.1563   20.4641 F       1  UNL1       -0.2025
     19 C         -17.7205   -0.4314   20.2412 C.ar    1  UNL1        0.1298
     20 N         -17.0741   -1.7149   19.8118 N.ar    1  UNL1       -0.2267
     21 O         -14.4854   -8.7242   18.4625 O.3     1  UNL1       -0.4480
     22 C         -15.9723   -8.6124   18.2993 C.ar    1  UNL1        0.1939
     23 C         -16.5537   -8.2137   16.9753 C.ar    1  UNL1        0.1387
     24 N         -18.0406   -8.1019   16.8121 N.ar    1  UNL1       -0.2366
     25 C         -18.9462   -8.3889   17.9729 C.ar    1  UNL1        0.1310
     26 C         -18.3648   -8.7877   19.2969 C.ar    1  UNL1        0.1895
     27 F         -19.2703   -9.0747   20.4579 F       1  UNL1       -0.2000
     28 C         -16.8779   -8.8994   19.4601 C.ar    1  UNL1        0.2047
     29 F         -16.2966   -9.2982   20.7841 F       1  UNL1       -0.1984
@<TRIPOS>BOND
     1    10    11    2
     2    11    12   am
     3    12    14    1
     4    14    15   ar
     5    15    16   ar
     6    16    17   ar
     7    17    18    1
     8    17    19   ar
     9    19    20   ar
    10    11     1    1
    11     1     2   ar
    12     2     3   ar
    13     3    21    1
    14    21    22    1
    15    22    23   ar
    16    23    24   ar
    17    24    25   ar
    18    25    26   ar
    19    26    27    1
    20    26    28   ar
    21    28    29    1
    22     3     4   ar
    23     4     5   ar
    24     5     6   ar
    25     6     7   ar
    26     7     8   ar
    27     8     9   ar
    28    20    14   ar
    29     9     1   ar
    30    28    22   ar
    31     9     5   ar
    32    12    13    1
@<TRIPOS>MOLECULE
*****
 29 32 0 0 0
SMALL
GASTEIGER

@<TRIPOS>ATOM
      1 C           2.6892    1.2735   32.6234 C.ar    1  UNL1        0.0926
      2 C           2.7026    2.1144   33.8654 C.ar    1  UNL1        0.0467
      3 C           3.6922    1.8268   34.9552 C.ar    1  UNL1        0.1649
      4 C           4.6686    0.6982   34.8030 C.ar    1  UNL1        0.1395
      5 N           4.6552   -0.1427   33.5609 N.ar    1  UNL1       -0.2060
      6 N           5.4899   -1.3129   33.1322 N.ar    1  UNL1       -0.1408
      7 C           5.0159   -1.7486   31.7773 C.ar    1  UNL1        0.2213
      8 N           3.8884   -0.8475   31.3688 N.ar    1  UNL1       -0.2033
      9 C           3.6655    0.1450   32.4711 C.ar    1  UNL1        0.1702
     10 O           0.2730    1.8716   31.8786 O.2     1  UNL1       -0.2697
     11 C           1.6994    1.5611   31.5335 C.2     1  UNL1        0.2536
     12 N           2.1361    1.5383   30.0987 N.am    1  UNL1       -0.2657
     13 H           3.0722    1.3346   29.8722 H       1  UNL1        0.1566
     14 C           1.1462    1.8260   29.0089 C.ar    1  UNL1        0.1345
     15 C           0.4565    0.6954   28.3047 C.ar    1  UNL1        0.0368
     16 C          -0.5333    0.9829   27.2150 C.ar    1  UNL1        0.0341
     17 C          -0.8334    2.4011   26.8294 C.ar    1  UNL1        0.1593
     18 F          -1.8232    2.6887   25.7397 F       1  UNL1       -0.2025
     19 C          -0.1436    3.5318   27.5336 C.ar    1  UNL1        0.1298
     20 N           0.8462    3.2442   28.6233 N.ar    1  UNL1       -0.2267
     21 O           3.7056    2.6677   36.1973 O.3     1  UNL1       -0.4480
     22 C           2.6501    2.4742   37.2454 C.ar    1  UNL1        0.1939
     23 C           1.5713    3.5012   37.4220 C.ar    1  UNL1        0.1387
     24 N           0.5158    3.3077   38.4702 N.ar    1  UNL1       -0.2366
     25 C           0.5392    2.0871   39.3417 C.ar    1  UNL1        0.1310
     26 C           1.6181    1.0601   39.1651 C.ar    1  UNL1        0.1895
     27 F           1.6416   -0.1606   40.0367 F       1  UNL1       -0.2000
     28 C           2.6736    1.2536   38.1170 C.ar    1  UNL1        0.2047
     29 F           3.7524    0.2266   37.9404 F       1  UNL1       -0.1984
@<TRIPOS>BOND
     1    10    11    2
     2    11    12   am
     3    12    14    1
     4    14    15   ar
     5    15    16   ar
     6    16    17   ar
     7    17    18    1
     8    17    19   ar
     9    19    20   ar
    10    11     1    1
    11     1     2   ar
    12     2     3   ar
    13     3    21    1
    14    21    22    1
    15    22    23   ar
    16    23    24   ar
    17    24    25   ar
    18    25    26   ar
    19    26    27    1
    20    26    28   ar
    21    28    29    1
    22     3     4   ar
    23     4     5   ar
    24     5     6   ar
    25     6     7   ar
    26     7     8   ar
    27     8     9   ar
    28    20    14   ar
    29     9     1   ar
    30    28    22   ar
    31     9     5   ar
    32    12    13    1
