@<TRIPOS>MOLECULE
*****
 39 44 0 0 0
SMALL
GASTEIGER

@<TRIPOS>ATOM
      1 N           4.4416    0.6311   35.5005 N.3     1  UNL1       -0.2676
      2 C           5.1810   -0.2612   34.5481 C.3     1  UNL1        0.0746
      3 C           4.7550   -0.3423   33.1122 C.3     1  UNL1        0.0449
      4 C           3.5896    0.4689   32.6287 C.3     1  UNL1        0.1391
      5 C           2.8502    1.3612   33.5810 C.3     1  UNL1        0.0449
      6 C           3.2762    1.4423   35.0169 C.3     1  UNL1        0.0746
      7 C           2.4495    1.2169   32.0036 C.2     1  UNL1        0.2529
      8 O           1.5352    2.1773   32.7048 O.2     1  UNL1       -0.2724
      9 N           2.3841    0.8358   30.5542 N.am    1  UNL1       -0.1907
     10 C           3.4839   -0.1478   30.2835 C.2     1  UNL1        0.3219
     11 O           3.7856   -0.7915   28.9628 O.2     1  UNL1       -0.2512
     12 N           4.2289   -0.3745   31.5656 N.am    1  UNL1       -0.2222
     13 C           5.4064   -1.2848   31.7519 C.ar    1  UNL1        0.1453
     14 C           5.1949   -2.7067   32.1800 C.ar    1  UNL1        0.0922
     15 C           6.3725   -3.6169   32.3663 C.ar    1  UNL1        0.2259
     16 O           6.1610   -5.0389   32.7944 O.3     1  UNL1       -0.4919
     17 N           7.7617   -3.1053   32.1245 N.ar    1  UNL1       -0.1894
     18 C           7.9732   -1.6833   31.6964 C.ar    1  UNL1        0.2027
     19 N           6.7956   -0.7731   31.5101 N.ar    1  UNL1       -0.2084
     20 H           5.2932   -5.3586   32.9455 H       1  UNL1        0.2938
     21 C           1.3931    1.3482   29.5516 C.ar    1  UNL1        0.0623
     22 C           0.3562    0.4256   28.9829 C.ar    1  UNL1        0.0169
     23 C          -0.6348    0.9380   27.9803 C.ar    1  UNL1        0.0204
     24 C          -0.5890    2.3731   27.5465 C.ar    1  UNL1        0.0829
     25 C           0.4479    3.2958   28.1152 C.ar    1  UNL1        0.0204
     26 C           1.4389    2.7834   29.1178 C.ar    1  UNL1        0.0169
     27 N          -1.5801    2.8856   26.5439 N.ar    1  UNL1       -0.2281
     28 C          -1.4310    2.8362   25.0521 C.ar    1  UNL1        0.1020
     29 C          -2.6530    3.4575   24.4433 C.ar    1  UNL1        0.0431
     30 C          -3.5574    3.8908   25.5588 C.ar    1  UNL1        0.1221
     31 N          -2.8943    3.5374   26.8570 N.ar    1  UNL1       -0.1635
     32 C           4.8676    0.7123   36.9365 C.3     1  UNL1        0.1183
     33 C           2.4153    0.9609   38.6466 C.3     1  UNL1        0.0323
     34 C           3.3984    2.0917   38.5762 C.ar    1  UNL1       -0.0069
     35 C           3.1553    3.3468   39.3608 C.ar    1  UNL1       -0.0015
     36 C           4.1384    4.4775   39.2904 C.ar    1  UNL1        0.0203
     37 C           5.3645    4.3533   38.4354 C.ar    1  UNL1        0.0985
     38 N           5.6076    3.0981   37.6507 N.ar    1  UNL1       -0.2471
     39 C           4.6246    1.9674   37.7211 C.ar    1  UNL1        0.0712
@<TRIPOS>BOND
     1    33    34    1
     2    34    35   ar
     3    35    36   ar
     4    36    37   ar
     5    37    38   ar
     6    38    39   ar
     7    39    32    1
     8    32     1    1
     9     1     2    1
    10     2     3    1
    11     3     4    1
    12     4     5    1
    13     5     6    1
    14     4     7    1
    15     7     8    2
    16     7     9   am
    17     9    21    1
    18    21    22   ar
    19    22    23   ar
    20    23    24   ar
    21    24    27    1
    22    27    28   ar
    23    28    29   ar
    24    29    30   ar
    25    30    31   ar
    26    24    25   ar
    27    25    26   ar
    28     9    10   am
    29    10    11    2
    30    10    12   am
    31    12    13    1
    32    13    14   ar
    33    14    15   ar
    34    15    16    1
    35    15    17   ar
    36    17    18   ar
    37    18    19   ar
    38    39    34   ar
    39     6     1    1
    40    26    21   ar
    41    19    13   ar
    42    12     4    1
    43    31    27   ar
    44    16    20    1
@<TRIPOS>MOLECULE
*****
 39 44 0 0 0
SMALL
GASTEIGER

@<TRIPOS>ATOM
      1 N           2.7058    2.8590   35.0783 N.3     1  UNL1       -0.2676
      2 C           3.4625    1.7460   34.4161 C.3     1  UNL1        0.0746
      3 C           3.1920    1.4055   32.9806 C.3     1  UNL1        0.0449
      4 C           2.1649    2.1781   32.2072 C.3     1  UNL1        0.1391
      5 C           1.4082    3.2911   32.8693 C.3     1  UNL1        0.0449
      6 C           1.6786    3.6316   34.3049 C.3     1  UNL1        0.0746
      7 C           1.1727    2.8587   31.3114 C.2     1  UNL1        0.2529
      8 O           0.2768    3.9993   31.6939 O.2     1  UNL1       -0.2724
      9 N           1.2338    2.1984   29.9658 N.am    1  UNL1       -0.1907
     10 C           2.2637    1.1098   30.0300 C.2     1  UNL1        0.3219
     11 O           2.6503    0.1944   28.9064 O.2     1  UNL1       -0.2512
     12 N           2.8392    1.0972   31.4152 N.am    1  UNL1       -0.2222
     13 C           3.9022    0.1671   31.9199 C.ar    1  UNL1        0.1453
     14 C           3.5278   -1.1913   32.4344 C.ar    1  UNL1        0.0922
     15 C           4.5909   -2.1213   32.9391 C.ar    1  UNL1        0.2259
     16 O           4.2165   -3.4797   33.4536 O.3     1  UNL1       -0.4919
     17 N           6.0285   -1.6931   32.9294 N.ar    1  UNL1       -0.1894
     18 C           6.4029   -0.3348   32.4149 C.ar    1  UNL1        0.2027
     19 N           5.3398    0.5953   31.9102 N.ar    1  UNL1       -0.2084
     20 H           3.3185   -3.7472   33.4597 H       1  UNL1        0.2938
     21 C           0.4096    2.5629   28.7667 C.ar    1  UNL1        0.0623
     22 C          -0.5264    1.5565   28.1660 C.ar    1  UNL1        0.0169
     23 C          -1.3505    1.9209   26.9668 C.ar    1  UNL1        0.0204
     24 C          -1.2386    3.2917   26.3684 C.ar    1  UNL1        0.0829
     25 C          -0.3026    4.2982   26.9691 C.ar    1  UNL1        0.0204
     26 C           0.5216    3.9338   28.1682 C.ar    1  UNL1        0.0169
     27 N          -2.0627    3.6562   25.1692 N.ar    1  UNL1       -0.2281
     28 C          -3.5517    3.8363   25.1444 C.ar    1  UNL1        0.1020
     29 C          -3.9518    4.1959   23.7442 C.ar    1  UNL1        0.0431
     30 C          -2.7102    4.2380   22.9036 C.ar    1  UNL1        0.1221
     31 N          -1.5427    3.9044   23.7844 N.ar    1  UNL1       -0.1635
     32 C           2.9762    3.1996   36.5139 C.3     1  UNL1        0.1183
     33 C           4.0525    0.6380   37.6452 C.3     1  UNL1        0.0323
     34 C           2.7695    1.2098   38.1717 C.ar    1  UNL1       -0.0069
     35 C           2.0248    0.5008   39.2638 C.ar    1  UNL1       -0.0015
     36 C           0.7419    1.0727   39.7902 C.ar    1  UNL1        0.0203
     37 C           0.2037    2.3534   39.2246 C.ar    1  UNL1        0.0985
     38 N           0.9485    3.0625   38.1325 N.ar    1  UNL1       -0.2471
     39 C           2.2314    2.4906   37.6060 C.ar    1  UNL1        0.0712
@<TRIPOS>BOND
     1    33    34    1
     2    34    35   ar
     3    35    36   ar
     4    36    37   ar
     5    37    38   ar
     6    38    39   ar
     7    39    32    1
     8    32     1    1
     9     1     2    1
    10     2     3    1
    11     3     4    1
    12     4     5    1
    13     5     6    1
    14     4     7    1
    15     7     8    2
    16     7     9   am
    17     9    21    1
    18    21    22   ar
    19    22    23   ar
    20    23    24   ar
    21    24    27    1
    22    27    28   ar
    23    28    29   ar
    24    29    30   ar
    25    30    31   ar
    26    24    25   ar
    27    25    26   ar
    28     9    10   am
    29    10    11    2
    30    10    12   am
    31    12    13    1
    32    13    14   ar
    33    14    15   ar
    34    15    16    1
    35    15    17   ar
    36    17    18   ar
    37    18    19   ar
    38    39    34   ar
    39     6     1    1
    40    26    21   ar
    41    19    13   ar
    42    12     4    1
    43    31    27   ar
    44    16    20    1
@<TRIPOS>MOLECULE
*****
 39 44 0 0 0
SMALL
GASTEIGER

@<TRIPOS>ATOM
      1 N           3.5984    1.4945   35.4671 N.3     1  UNL1       -0.2676
      2 C           4.4241    0.5832   34.6082 C.3     1  UNL1        0.0746
      3 C           4.0991    0.4265   33.1522 C.3     1  UNL1        0.0449
      4 C           2.9483    1.1810   32.5552 C.3     1  UNL1        0.1391
      5 C           2.1227    2.0923   33.4141 C.3     1  UNL1        0.0449
      6 C           2.4477    2.2490   34.8700 C.3     1  UNL1        0.0746
      7 C           1.8341    1.8670   31.8218 C.2     1  UNL1        0.2529
      8 O           0.8493    2.8302   32.4155 O.2     1  UNL1       -0.2724
      9 N           1.8776    1.4208   30.3903 N.am    1  UNL1       -0.1907
     10 C           3.0187    0.4589   30.2391 C.2     1  UNL1        0.3219
     11 O           3.4264   -0.2332   28.9724 O.2     1  UNL1       -0.2512
     12 N           3.6804    0.3108   31.5770 N.am    1  UNL1       -0.2222
     13 C           4.8661   -0.5555   31.8832 C.ar    1  UNL1        0.1453
     14 C           4.6694   -2.0029   32.2243 C.ar    1  UNL1        0.0922
     15 C           5.8551   -2.8691   32.5304 C.ar    1  UNL1        0.2259
     16 O           5.6585   -4.3165   32.8715 O.3     1  UNL1       -0.4919
     17 N           7.2376   -2.2880   32.4955 N.ar    1  UNL1       -0.1894
     18 C           7.4343   -0.8406   32.1544 C.ar    1  UNL1        0.2027
     19 N           6.2485    0.0256   31.8482 N.ar    1  UNL1       -0.2084
     20 H           4.7949   -4.6795   32.8934 H       1  UNL1        0.2938
     21 C           0.9439    1.8593   29.3013 C.ar    1  UNL1        0.0623
     22 C          -0.0032    0.8739   28.6834 C.ar    1  UNL1        0.0169
     23 C          -0.9368    1.3124   27.5944 C.ar    1  UNL1        0.0204
     24 C          -0.9235    2.7364   27.1233 C.ar    1  UNL1        0.0829
     25 C           0.0237    3.7219   27.7412 C.ar    1  UNL1        0.0204
     26 C           0.9573    3.2833   28.8302 C.ar    1  UNL1        0.0169
     27 N          -1.8571    3.1749   26.0343 N.ar    1  UNL1       -0.2281
     28 C          -1.5355    3.2408   24.5706 C.ar    1  UNL1        0.1020
     29 C          -2.7560    3.7312   23.8495 C.ar    1  UNL1        0.0431
     30 C          -3.8318    3.9683   24.8674 C.ar    1  UNL1        0.1221
     31 N          -3.2763    3.6245   26.2177 N.ar    1  UNL1       -0.1635
     32 C           3.9235    1.6512   36.9231 C.3     1  UNL1        0.1183
     33 C           2.6502    4.1893   37.8910 C.3     1  UNL1        0.0323
     34 C           2.1912    2.8670   38.4301 C.ar    1  UNL1       -0.0069
     35 C           1.0955    2.8137   39.4531 C.ar    1  UNL1       -0.0015
     36 C           0.6364    1.4913   39.9922 C.ar    1  UNL1        0.0203
     37 C           1.2730    0.2223   39.5083 C.ar    1  UNL1        0.0985
     38 N           2.3687    0.2755   38.4852 N.ar    1  UNL1       -0.2471
     39 C           2.8278    1.5979   37.9461 C.ar    1  UNL1        0.0712
@<TRIPOS>BOND
     1    33    34    1
     2    34    35   ar
     3    35    36   ar
     4    36    37   ar
     5    37    38   ar
     6    38    39   ar
     7    39    32    1
     8    32     1    1
     9     1     2    1
    10     2     3    1
    11     3     4    1
    12     4     5    1
    13     5     6    1
    14     4     7    1
    15     7     8    2
    16     7     9   am
    17     9    21    1
    18    21    22   ar
    19    22    23   ar
    20    23    24   ar
    21    24    27    1
    22    27    28   ar
    23    28    29   ar
    24    29    30   ar
    25    30    31   ar
    26    24    25   ar
    27    25    26   ar
    28     9    10   am
    29    10    11    2
    30    10    12   am
    31    12    13    1
    32    13    14   ar
    33    14    15   ar
    34    15    16    1
    35    15    17   ar
    36    17    18   ar
    37    18    19   ar
    38    39    34   ar
    39     6     1    1
    40    26    21   ar
    41    19    13   ar
    42    12     4    1
    43    31    27   ar
    44    16    20    1
@<TRIPOS>MOLECULE
*****
 39 44 0 0 0
SMALL
GASTEIGER

@<TRIPOS>ATOM
      1 N           6.6109   -2.6423   23.8480 N.3     1  UNL1       -0.2676
      2 C           6.2038   -2.5621   22.4066 C.3     1  UNL1        0.0746
      3 C           4.9851   -1.7808   22.0139 C.3     1  UNL1        0.0449
      4 C           4.1736   -1.0797   23.0626 C.3     1  UNL1        0.1391
      5 C           4.5807   -1.1599   24.5040 C.3     1  UNL1        0.0449
      6 C           5.7994   -1.9412   24.8967 C.3     1  UNL1        0.0746
      7 C           3.2683   -0.3304   23.9948 C.2     1  UNL1        0.2529
      8 O           3.4229   -0.2309   25.4835 O.2     1  UNL1       -0.2724
      9 N           2.1813    0.3020   23.1770 N.am    1  UNL1       -0.1907
     10 C           2.4148   -0.0565   21.7393 C.2     1  UNL1        0.3219
     11 O           1.5662    0.3648   20.5765 O.2     1  UNL1       -0.2512
     12 N           3.6460   -0.9104   21.6685 N.am    1  UNL1       -0.2222
     13 C           4.2447   -1.4928   20.4226 C.ar    1  UNL1        0.1453
     14 C           3.8966   -2.8911   20.0060 C.ar    1  UNL1        0.0922
     15 C           4.4953   -3.4734   18.7600 C.ar    1  UNL1        0.2259
     16 O           4.1471   -4.8717   18.3434 O.3     1  UNL1       -0.4919
     17 N           5.4422   -2.6575   17.9307 N.ar    1  UNL1       -0.1894
     18 C           5.7904   -1.2593   18.3474 C.ar    1  UNL1        0.2027
     19 N           5.1916   -0.6769   19.5933 N.ar    1  UNL1       -0.2084
     20 H           3.5556   -5.3814   18.8614 H       1  UNL1        0.2938
     21 C           1.0581    1.1448   23.7043 C.ar    1  UNL1        0.0623
     22 C           0.5426    0.9223   25.0952 C.ar    1  UNL1        0.0169
     23 C          -0.5806    1.7651   25.6225 C.ar    1  UNL1        0.0204
     24 C          -1.1882    2.8305   24.7590 C.ar    1  UNL1        0.0829
     25 C          -0.6726    3.0530   23.3680 C.ar    1  UNL1        0.0204
     26 C           0.4505    2.2101   22.8407 C.ar    1  UNL1        0.0169
     27 N          -2.3114    3.6733   25.2863 N.ar    1  UNL1       -0.2281
     28 C          -2.9508    3.5452   26.6372 C.ar    1  UNL1        0.1020
     29 C          -4.0270    4.5849   26.7411 C.ar    1  UNL1        0.0431
     30 C          -4.0527    5.3556   25.4545 C.ar    1  UNL1        0.1221
     31 N          -2.9924    4.7922   24.5554 N.ar    1  UNL1       -0.1635
     32 C           7.8297   -3.4237   24.2408 C.3     1  UNL1        0.1183
     33 C           8.8248   -5.7480   22.6261 C.3     1  UNL1        0.0323
     34 C           8.1847   -5.9823   23.9622 C.ar    1  UNL1       -0.0069
     35 C           8.0421   -7.3787   24.4911 C.ar    1  UNL1       -0.0015
     36 C           7.4020   -7.6130   25.8272 C.ar    1  UNL1        0.0203
     37 C           6.9044   -6.4508   26.6346 C.ar    1  UNL1        0.0985
     38 N           7.0470   -5.0543   26.1058 N.ar    1  UNL1       -0.2471
     39 C           7.6871   -4.8201   24.7696 C.ar    1  UNL1        0.0712
@<TRIPOS>BOND
     1    33    34    1
     2    34    35   ar
     3    35    36   ar
     4    36    37   ar
     5    37    38   ar
     6    38    39   ar
     7    39    32    1
     8    32     1    1
     9     1     2    1
    10     2     3    1
    11     3     4    1
    12     4     5    1
    13     5     6    1
    14     4     7    1
    15     7     8    2
    16     7     9   am
    17     9    21    1
    18    21    22   ar
    19    22    23   ar
    20    23    24   ar
    21    24    27    1
    22    27    28   ar
    23    28    29   ar
    24    29    30   ar
    25    30    31   ar
    26    24    25   ar
    27    25    26   ar
    28     9    10   am
    29    10    11    2
    30    10    12   am
    31    12    13    1
    32    13    14   ar
    33    14    15   ar
    34    15    16    1
    35    15    17   ar
    36    17    18   ar
    37    18    19   ar
    38    39    34   ar
    39     6     1    1
    40    26    21   ar
    41    19    13   ar
    42    12     4    1
    43    31    27   ar
    44    16    20    1
@<TRIPOS>MOLECULE
*****
 39 44 0 0 0
SMALL
GASTEIGER

@<TRIPOS>ATOM
      1 N           6.7645   -2.7234   23.2497 N.3     1  UNL1       -0.2676
      2 C           7.2082   -3.8507   24.1342 C.3     1  UNL1        0.0746
      3 C           6.9494   -3.7921   25.6105 C.3     1  UNL1        0.0449
      4 C           6.2469   -2.6062   26.2023 C.3     1  UNL1        0.1391
      5 C           5.8032   -1.4790   25.3178 C.3     1  UNL1        0.0449
      6 C           6.0620   -1.5376   23.8415 C.3     1  UNL1        0.0746
      7 C           5.5594   -1.4914   26.9333 C.2     1  UNL1        0.2529
      8 O           5.0100   -0.2393   26.3164 O.2     1  UNL1       -0.2724
      9 N           5.5177   -1.8483   28.3897 N.am    1  UNL1       -0.1907
     10 C           6.1795   -3.1839   28.5587 C.2     1  UNL1        0.3219
     11 O           6.3590   -3.9214   29.8523 O.2     1  UNL1       -0.2512
     12 N           6.6301   -3.6523   27.2068 N.am    1  UNL1       -0.2222
     13 C           7.3394   -4.9405   26.9113 C.ar    1  UNL1        0.1453
     14 C           6.5629   -6.2206   26.8205 C.ar    1  UNL1        0.0922
     15 C           7.2723   -7.5087   26.5249 C.ar    1  UNL1        0.2259
     16 O           6.4958   -8.7888   26.4341 O.3     1  UNL1       -0.4919
     17 N           8.7583   -7.5169   26.3202 N.ar    1  UNL1       -0.1894
     18 C           9.5348   -6.2367   26.4111 C.ar    1  UNL1        0.2027
     19 N           8.8254   -4.9486   26.7066 N.ar    1  UNL1       -0.2084
     20 H           5.5675   -8.7838   26.5619 H       1  UNL1        0.2938
     21 C           4.9193   -1.0160   29.4848 C.ar    1  UNL1        0.0623
     22 C           3.4638   -0.6563   29.4433 C.ar    1  UNL1        0.0169
     23 C           2.8654    0.1761   30.5383 C.ar    1  UNL1        0.0204
     24 C           3.7226    0.6487   31.6748 C.ar    1  UNL1        0.0829
     25 C           5.1783    0.2890   31.7163 C.ar    1  UNL1        0.0204
     26 C           5.7766   -0.5434   30.6213 C.ar    1  UNL1        0.0169
     27 N           3.1243    1.4811   32.7699 N.ar    1  UNL1       -0.2281
     28 C           3.4990    1.4297   34.2215 C.ar    1  UNL1        0.1020
     29 C           2.6524    2.4278   34.9543 C.ar    1  UNL1        0.0431
     30 C           1.7546    3.0961   33.9557 C.ar    1  UNL1        0.1221
     31 N           2.0462    2.5110   32.6057 N.ar    1  UNL1       -0.1635
     32 C           7.0233   -2.7820   21.7733 C.3     1  UNL1        0.1183
     33 C           7.1603   -2.2133   18.8308 C.3     1  UNL1        0.0323
     34 C           6.0516   -3.0613   19.3800 C.ar    1  UNL1       -0.0069
     35 C           5.0114   -3.6250   18.4580 C.ar    1  UNL1       -0.0015
     36 C           3.9027   -4.4731   19.0071 C.ar    1  UNL1        0.0203
     37 C           3.8342   -4.7574   20.4783 C.ar    1  UNL1        0.0985
     38 N           4.8744   -4.1937   21.4004 N.ar    1  UNL1       -0.2471
     39 C           5.9831   -3.3457   20.8513 C.ar    1  UNL1        0.0712
@<TRIPOS>BOND
     1    33    34    1
     2    34    35   ar
     3    35    36   ar
     4    36    37   ar
     5    37    38   ar
     6    38    39   ar
     7    39    32    1
     8    32     1    1
     9     1     2    1
    10     2     3    1
    11     3     4    1
    12     4     5    1
    13     5     6    1
    14     4     7    1
    15     7     8    2
    16     7     9   am
    17     9    21    1
    18    21    22   ar
    19    22    23   ar
    20    23    24   ar
    21    24    27    1
    22    27    28   ar
    23    28    29   ar
    24    29    30   ar
    25    30    31   ar
    26    24    25   ar
    27    25    26   ar
    28     9    10   am
    29    10    11    2
    30    10    12   am
    31    12    13    1
    32    13    14   ar
    33    14    15   ar
    34    15    16    1
    35    15    17   ar
    36    17    18   ar
    37    18    19   ar
    38    39    34   ar
    39     6     1    1
    40    26    21   ar
    41    19    13   ar
    42    12     4    1
    43    31    27   ar
    44    16    20    1
@<TRIPOS>MOLECULE
*****
 39 44 0 0 0
SMALL
GASTEIGER

@<TRIPOS>ATOM
      1 N           5.3398   -2.0859   24.6569 N.3     1  UNL1       -0.2676
      2 C           6.1731   -3.2106   25.1959 C.3     1  UNL1        0.0746
      3 C           6.3866   -3.3439   26.6746 C.3     1  UNL1        0.0449
      4 C           5.7668   -2.3525   27.6142 C.3     1  UNL1        0.1391
      5 C           4.9335   -1.2278   27.0752 C.3     1  UNL1        0.0449
      6 C           4.7200   -1.0945   25.5965 C.3     1  UNL1        0.0746
      7 C           5.2136   -1.4424   28.6706 C.2     1  UNL1        0.2529
      8 O           4.3498   -0.2393   28.4336 O.2     1  UNL1       -0.2724
      9 N           5.6760   -1.9468   30.0055 N.am    1  UNL1       -0.1907
     10 C           6.5150   -3.1686   29.7742 C.2     1  UNL1        0.3219
     11 O           7.1808   -3.9945   30.8345 O.2     1  UNL1       -0.2512
     12 N           6.5711   -3.4193   28.2964 N.am    1  UNL1       -0.2222
     13 C           7.3030   -4.5400   27.6194 C.ar    1  UNL1        0.1453
     14 C           6.6032   -5.8396   27.3525 C.ar    1  UNL1        0.0922
     15 C           7.3352   -6.9603   26.6755 C.ar    1  UNL1        0.2259
     16 O           6.6354   -8.2599   26.4085 O.3     1  UNL1       -0.4919
     17 N           8.7669   -6.7815   26.2654 N.ar    1  UNL1       -0.1894
     18 C           9.4667   -5.4818   26.5323 C.ar    1  UNL1        0.2027
     19 N           8.7348   -4.3612   27.2093 N.ar    1  UNL1       -0.2084
     20 H           5.7410   -8.3717   26.6647 H       1  UNL1        0.2938
     21 C           5.3557   -1.3365   31.3378 C.ar    1  UNL1        0.0623
     22 C           5.7193    0.0920   31.6153 C.ar    1  UNL1        0.0169
     23 C           5.3989    0.7022   32.9475 C.ar    1  UNL1        0.0204
     24 C           4.7149   -0.1160   34.0023 C.ar    1  UNL1        0.0829
     25 C           4.3513   -1.5445   33.7248 C.ar    1  UNL1        0.0204
     26 C           4.6716   -2.1548   32.3925 C.ar    1  UNL1        0.0169
     27 N           4.3946    0.4943   35.3345 N.ar    1  UNL1       -0.2281
     28 C           4.8771    0.0044   36.6677 C.ar    1  UNL1        0.1020
     29 C           4.3162    0.9090   37.7246 C.ar    1  UNL1        0.0431
     30 C           3.4870    1.9579   37.0448 C.ar    1  UNL1        0.1221
     31 N           3.5355    1.7016   35.5676 N.ar    1  UNL1       -0.1635
     32 C           5.1262   -1.9526   23.1781 C.3     1  UNL1        0.1183
     33 C           4.6066   -3.9623   21.0121 C.3     1  UNL1        0.0323
     34 C           5.9621   -3.3333   21.1422 C.ar    1  UNL1       -0.0069
     35 C           7.0579   -3.7091   20.1892 C.ar    1  UNL1       -0.0015
     36 C           8.4134   -3.0801   20.3192 C.ar    1  UNL1        0.0203
     37 C           8.6732   -2.0753   21.4022 C.ar    1  UNL1        0.0985
     38 N           7.5775   -1.6994   22.3552 N.ar    1  UNL1       -0.2471
     39 C           6.2219   -2.3284   22.2252 C.ar    1  UNL1        0.0712
@<TRIPOS>BOND
     1    33    34    1
     2    34    35   ar
     3    35    36   ar
     4    36    37   ar
     5    37    38   ar
     6    38    39   ar
     7    39    32    1
     8    32     1    1
     9     1     2    1
    10     2     3    1
    11     3     4    1
    12     4     5    1
    13     5     6    1
    14     4     7    1
    15     7     8    2
    16     7     9   am
    17     9    21    1
    18    21    22   ar
    19    22    23   ar
    20    23    24   ar
    21    24    27    1
    22    27    28   ar
    23    28    29   ar
    24    29    30   ar
    25    30    31   ar
    26    24    25   ar
    27    25    26   ar
    28     9    10   am
    29    10    11    2
    30    10    12   am
    31    12    13    1
    32    13    14   ar
    33    14    15   ar
    34    15    16    1
    35    15    17   ar
    36    17    18   ar
    37    18    19   ar
    38    39    34   ar
    39     6     1    1
    40    26    21   ar
    41    19    13   ar
    42    12     4    1
    43    31    27   ar
    44    16    20    1
@<TRIPOS>MOLECULE
*****
 39 44 0 0 0
SMALL
GASTEIGER

@<TRIPOS>ATOM
      1 N           6.4797   -2.1276   28.8262 N.3     1  UNL1       -0.2676
      2 C           6.0690   -1.7800   30.2263 C.3     1  UNL1        0.0746
      3 C           4.8237   -0.9787   30.4654 C.3     1  UNL1        0.0449
      4 C           3.9892   -0.5252   29.3044 C.3     1  UNL1        0.1391
      5 C           4.3999   -0.8729   27.9043 C.3     1  UNL1        0.0449
      6 C           5.6452   -1.6741   27.6652 C.3     1  UNL1        0.0746
      7 C           3.0592   -0.0048   28.2488 C.2     1  UNL1        0.2529
      8 O           3.2114   -0.1943   26.7686 O.2     1  UNL1       -0.2724
      9 N           1.9504    0.7384   28.9332 N.am    1  UNL1       -0.1907
     10 C           2.1951    0.6773   30.4119 C.2     1  UNL1        0.3219
     11 O           1.3315    1.2895   31.4744 O.2     1  UNL1       -0.2512
     12 N           3.4551   -0.1036   30.6413 N.am    1  UNL1       -0.2222
     13 C           4.0726   -0.4094   31.9736 C.ar    1  UNL1        0.1453
     14 C           5.0255    0.5651   32.6000 C.ar    1  UNL1        0.0922
     15 C           5.6430    0.2593   33.9324 C.ar    1  UNL1        0.2259
     16 O           6.5958    1.2338   34.5588 O.3     1  UNL1       -0.4919
     17 N           5.3076   -1.0210   34.6384 N.ar    1  UNL1       -0.1894
     18 C           4.3548   -1.9955   34.0120 C.ar    1  UNL1        0.2027
     19 N           3.7373   -1.6897   32.6797 N.ar    1  UNL1       -0.2084
     20 H           6.8053    2.0336   34.1178 H       1  UNL1        0.2938
     21 C           0.7991    1.4225   28.2575 C.ar    1  UNL1        0.0623
     22 C           1.0424    2.6276   27.3982 C.ar    1  UNL1        0.0169
     23 C          -0.1089    3.3117   26.7226 C.ar    1  UNL1        0.0204
     24 C          -1.5034    2.7907   26.9063 C.ar    1  UNL1        0.0829
     25 C          -1.7467    1.5856   27.7656 C.ar    1  UNL1        0.0204
     26 C          -0.5954    0.9015   28.4413 C.ar    1  UNL1        0.0169
     27 N          -2.6547    3.4749   26.2306 N.ar    1  UNL1       -0.2281
     28 C          -2.7676    3.7699   24.7642 C.ar    1  UNL1        0.1020
     29 C          -4.0779    4.4614   24.5301 C.ar    1  UNL1        0.0431
     30 C          -4.7748    4.5939   25.8517 C.ar    1  UNL1        0.1221
     31 N          -3.8953    3.9841   26.9027 N.ar    1  UNL1       -0.1635
     32 C           7.7251   -2.9289   28.5870 C.3     1  UNL1        0.1183
     33 C           6.9378   -5.6593   29.5489 C.3     1  UNL1        0.0323
     34 C           7.3081   -5.4487   28.1107 C.ar    1  UNL1       -0.0069
     35 C           7.2848   -6.6033   27.1534 C.ar    1  UNL1       -0.0015
     36 C           7.6551   -6.3927   25.7152 C.ar    1  UNL1        0.0203
     37 C           8.0487   -5.0275   25.2342 C.ar    1  UNL1        0.0985
     38 N           8.0721   -3.8729   26.1915 N.ar    1  UNL1       -0.2471
     39 C           7.7018   -4.0835   27.6297 C.ar    1  UNL1        0.0712
@<TRIPOS>BOND
     1    33    34    1
     2    34    35   ar
     3    35    36   ar
     4    36    37   ar
     5    37    38   ar
     6    38    39   ar
     7    39    32    1
     8    32     1    1
     9     1     2    1
    10     2     3    1
    11     3     4    1
    12     4     5    1
    13     5     6    1
    14     4     7    1
    15     7     8    2
    16     7     9   am
    17     9    21    1
    18    21    22   ar
    19    22    23   ar
    20    23    24   ar
    21    24    27    1
    22    27    28   ar
    23    28    29   ar
    24    29    30   ar
    25    30    31   ar
    26    24    25   ar
    27    25    26   ar
    28     9    10   am
    29    10    11    2
    30    10    12   am
    31    12    13    1
    32    13    14   ar
    33    14    15   ar
    34    15    16    1
    35    15    17   ar
    36    17    18   ar
    37    18    19   ar
    38    39    34   ar
    39     6     1    1
    40    26    21   ar
    41    19    13   ar
    42    12     4    1
    43    31    27   ar
    44    16    20    1
@<TRIPOS>MOLECULE
*****
 39 44 0 0 0
SMALL
GASTEIGER

@<TRIPOS>ATOM
      1 N          -0.1422    3.1660   24.6669 N.3     1  UNL1       -0.2676
      2 C           0.0584    2.7117   26.0822 C.3     1  UNL1        0.0746
      3 C           1.0470    1.6259   26.3884 C.3     1  UNL1        0.0449
      4 C           1.8350    0.9945   25.2791 C.3     1  UNL1        0.1391
      5 C           1.6344    1.4489   23.8638 C.3     1  UNL1        0.0449
      6 C           0.6458    2.5346   23.5577 C.3     1  UNL1        0.0746
      7 C           2.6904    0.2736   24.2798 C.2     1  UNL1        0.2529
      8 O           2.7074    0.5119   22.7990 O.2     1  UNL1       -0.2724
      9 N           3.5259   -0.7275   25.0214 N.am    1  UNL1       -0.1907
     10 C           3.1867   -0.6253   26.4791 C.2     1  UNL1        0.3219
     11 O           3.7872   -1.4436   27.5834 O.2     1  UNL1       -0.2512
     12 N           2.1417    0.4389   26.6383 N.am    1  UNL1       -0.2222
     13 C           1.5137    0.8717   27.9299 C.ar    1  UNL1        0.1453
     14 C           0.2010    0.2862   28.3588 C.ar    1  UNL1        0.0922
     15 C          -0.4270    0.7190   29.6505 C.ar    1  UNL1        0.2259
     16 O          -1.7397    0.1336   30.0794 O.3     1  UNL1       -0.4919
     17 N           0.2577    1.7373   30.5132 N.ar    1  UNL1       -0.1894
     18 C           1.5704    2.3228   30.0843 C.ar    1  UNL1        0.2027
     19 N           2.1984    1.8900   28.7927 N.ar    1  UNL1       -0.2084
     20 H          -2.1674   -0.5025   29.5405 H       1  UNL1        0.2938
     21 C           4.5250   -1.6660   24.4124 C.ar    1  UNL1        0.0623
     22 C           4.1311   -2.5310   23.2520 C.ar    1  UNL1        0.0169
     23 C           5.1302   -3.4695   22.6429 C.ar    1  UNL1        0.0204
     24 C           6.5232   -3.5430   23.1942 C.ar    1  UNL1        0.0829
     25 C           6.9171   -2.6780   24.3547 C.ar    1  UNL1        0.0204
     26 C           5.9180   -1.7395   24.9638 C.ar    1  UNL1        0.0169
     27 N           7.5223   -4.4815   22.5852 N.ar    1  UNL1       -0.2281
     28 C           8.1901   -4.3149   21.2523 C.ar    1  UNL1        0.1020
     29 C           9.1096   -5.4818   21.0454 C.ar    1  UNL1        0.0431
     30 C           9.0101   -6.3696   22.2503 C.ar    1  UNL1        0.1221
     31 N           8.0292   -5.7514   23.2019 N.ar    1  UNL1       -0.1635
     32 C          -1.1308    4.2519   24.3607 C.3     1  UNL1        0.1183
     33 C          -3.4969    3.8821   26.1677 C.3     1  UNL1        0.0323
     34 C          -3.6532    3.7202   24.6847 C.ar    1  UNL1       -0.0069
     35 C          -4.9926    3.3735   24.1052 C.ar    1  UNL1       -0.0015
     36 C          -5.1489    3.2116   22.6221 C.ar    1  UNL1        0.0203
     37 C          -3.9659    3.3965   21.7187 C.ar    1  UNL1        0.0985
     38 N          -2.6265    3.7432   22.2982 N.ar    1  UNL1       -0.2471
     39 C          -2.4702    3.9051   23.7812 C.ar    1  UNL1        0.0712
@<TRIPOS>BOND
     1    33    34    1
     2    34    35   ar
     3    35    36   ar
     4    36    37   ar
     5    37    38   ar
     6    38    39   ar
     7    39    32    1
     8    32     1    1
     9     1     2    1
    10     2     3    1
    11     3     4    1
    12     4     5    1
    13     5     6    1
    14     4     7    1
    15     7     8    2
    16     7     9   am
    17     9    21    1
    18    21    22   ar
    19    22    23   ar
    20    23    24   ar
    21    24    27    1
    22    27    28   ar
    23    28    29   ar
    24    29    30   ar
    25    30    31   ar
    26    24    25   ar
    27    25    26   ar
    28     9    10   am
    29    10    11    2
    30    10    12   am
    31    12    13    1
    32    13    14   ar
    33    14    15   ar
    34    15    16    1
    35    15    17   ar
    36    17    18   ar
    37    18    19   ar
    38    39    34   ar
    39     6     1    1
    40    26    21   ar
    41    19    13   ar
    42    12     4    1
    43    31    27   ar
    44    16    20    1
@<TRIPOS>MOLECULE
*****
 39 44 0 0 0
SMALL
GASTEIGER

@<TRIPOS>ATOM
      1 N           2.2820    0.4162   19.9049 N.3     1  UNL1       -0.2676
      2 C           3.0431    0.3506   21.1957 C.3     1  UNL1        0.0746
      3 C           2.4496    0.9280   22.4465 C.3     1  UNL1        0.0449
      4 C           1.0951    1.5710   22.4063 C.3     1  UNL1        0.1391
      5 C           0.3340    1.6367   21.1155 C.3     1  UNL1        0.0449
      6 C           0.9274    1.0593   19.8648 C.3     1  UNL1        0.0746
      7 C          -0.2420    2.2414   22.5198 C.2     1  UNL1        0.2529
      8 O          -1.2203    2.4522   21.4025 O.2     1  UNL1       -0.2724
      9 N          -0.4290    2.6642   23.9469 N.am    1  UNL1       -0.1907
     10 C           0.7926    2.2550   24.7154 C.2     1  UNL1        0.3219
     11 O           1.0304    2.4816   26.1789 O.2     1  UNL1       -0.2512
     12 N           1.7345    1.5794   23.7633 N.am    1  UNL1       -0.2222
     13 C           3.0795    1.0118   24.1076 C.ar    1  UNL1        0.1453
     14 C           3.2009   -0.4182   24.5439 C.ar    1  UNL1        0.0922
     15 C           4.5460   -0.9857   24.8882 C.ar    1  UNL1        0.2259
     16 O           4.6673   -2.4157   25.3245 O.3     1  UNL1       -0.4919
     17 N           5.7699   -0.1233   24.7961 N.ar    1  UNL1       -0.1894
     18 C           5.6485    1.3067   24.3598 C.ar    1  UNL1        0.2027
     19 N           4.3034    1.8742   24.0155 N.ar    1  UNL1       -0.2084
     20 H           3.9029   -2.9544   25.3820 H       1  UNL1        0.2938
     21 C          -1.6270    3.3718   24.5071 C.ar    1  UNL1        0.0623
     22 C          -2.2799    4.4739   23.7268 C.ar    1  UNL1        0.0169
     23 C          -3.4780    5.1815   24.2870 C.ar    1  UNL1        0.0204
     24 C          -4.0232    4.7870   25.6275 C.ar    1  UNL1        0.0829
     25 C          -3.3703    3.6849   26.4079 C.ar    1  UNL1        0.0204
     26 C          -2.1722    2.9772   25.8477 C.ar    1  UNL1        0.0169
     27 N          -5.2213    5.4947   26.1877 N.ar    1  UNL1       -0.2281
     28 C          -6.2118    6.3057   25.4058 C.ar    1  UNL1        0.1020
     29 C          -7.2419    6.8278   26.3630 C.ar    1  UNL1        0.0431
     30 C          -6.8881    6.3395   27.7365 C.ar    1  UNL1        0.1221
     31 N          -5.6393    5.5156   27.6281 N.ar    1  UNL1       -0.1635
     32 C           2.8755   -0.1612   18.6540 C.3     1  UNL1        0.1183
     33 C           5.6868   -0.2972   17.6157 C.3     1  UNL1        0.0323
     34 C           5.0401   -1.5217   18.1922 C.ar    1  UNL1       -0.0069
     35 C           5.7991   -2.8142   18.2495 C.ar    1  UNL1       -0.0015
     36 C           5.1524   -4.0388   18.8260 C.ar    1  UNL1        0.0203
     37 C           3.7468   -3.9708   19.3451 C.ar    1  UNL1        0.0985
     38 N           2.9878   -2.6782   19.2878 N.ar    1  UNL1       -0.2471
     39 C           3.6344   -1.4537   18.7114 C.ar    1  UNL1        0.0712
@<TRIPOS>BOND
     1    33    34    1
     2    34    35   ar
     3    35    36   ar
     4    36    37   ar
     5    37    38   ar
     6    38    39   ar
     7    39    32    1
     8    32     1    1
     9     1     2    1
    10     2     3    1
    11     3     4    1
    12     4     5    1
    13     5     6    1
    14     4     7    1
    15     7     8    2
    16     7     9   am
    17     9    21    1
    18    21    22   ar
    19    22    23   ar
    20    23    24   ar
    21    24    27    1
    22    27    28   ar
    23    28    29   ar
    24    29    30   ar
    25    30    31   ar
    26    24    25   ar
    27    25    26   ar
    28     9    10   am
    29    10    11    2
    30    10    12   am
    31    12    13    1
    32    13    14   ar
    33    14    15   ar
    34    15    16    1
    35    15    17   ar
    36    17    18   ar
    37    18    19   ar
    38    39    34   ar
    39     6     1    1
    40    26    21   ar
    41    19    13   ar
    42    12     4    1
    43    31    27   ar
    44    16    20    1
