@<TRIPOS>MOLECULE
*****
 36 40 0 0 0
SMALL
GASTEIGER

@<TRIPOS>ATOM
      1 C           2.7026   -0.7917   19.5893 C.ar    1  UNL1        0.0289
      2 C           2.3630   -0.0586   18.3256 C.ar    1  UNL1        0.0035
      3 C           1.3879    1.0808   18.3583 C.ar    1  UNL1        0.0147
      4 C           0.7523    1.4870   19.6548 C.ar    1  UNL1        0.0520
      5 C           1.0918    0.7539   20.9186 C.ar    1  UNL1        0.0207
      6 C           2.0669   -0.3854   20.8859 C.ar    1  UNL1        0.1374
      7 F           2.4064   -1.1186   22.1497 F       1  UNL1       -0.2045
      8 C           0.3124    1.3760   22.0390 C.3     1  UNL1        0.0518
      9 C          -0.5089    2.4937   21.4676 C.3     1  UNL1        0.1030
     10 N          -0.2370    2.5622   19.9941 N.am    1  UNL1       -0.2582
     11 C          -0.8472    3.5352   19.0293 C.2     1  UNL1        0.2354
     12 O          -0.4773    3.4829   17.5766 O.2     1  UNL1       -0.2741
     13 C           4.8135   -5.5754   18.8539 C.3     1  UNL1        0.1319
     14 N           4.6479   -4.1299   19.2186 N.ar    1  UNL1       -0.3094
     15 C           3.3928   -3.3217   19.0718 C.ar    1  UNL1        0.0772
     16 C           3.6776   -1.9311   19.5566 C.ar    1  UNL1        0.0250
     17 C           5.1088   -1.8798   20.0030 C.ar    1  UNL1        0.0669
     18 C           5.9433   -0.7713   20.5727 C.ar    1  UNL1        0.1300
     19 N           5.3437    0.5877   20.7817 N.pl3   1  UNL1       -0.3425
     20 N           7.3776   -1.0217   20.9335 N.ar    1  UNL1       -0.2094
     21 C           7.9772   -2.3806   20.7246 C.ar    1  UNL1        0.2014
     22 N           7.1427   -3.4892   20.1549 N.ar    1  UNL1       -0.2065
     23 C           5.7084   -3.2387   19.7941 C.ar    1  UNL1        0.1483
     24 H           4.4023    0.7520   20.5448 H       1  UNL1        0.1437
     25 H           5.8914    1.3153   21.1556 H       1  UNL1        0.1437
     26 C          -1.8275    4.5605   19.5172 C.3     1  UNL1        0.1312
     27 C          -3.2949    4.2500   19.5274 C.ar    1  UNL1        0.0681
     28 C          -4.0037    3.9346   18.2437 C.ar    1  UNL1        0.0152
     29 C          -5.4712    3.6241   18.2539 C.ar    1  UNL1        0.0027
     30 C          -6.2298    3.6290   19.5477 C.ar    1  UNL1        0.0231
     31 C          -5.5211    3.9445   20.8316 C.ar    1  UNL1        0.1522
     32 N          -4.0536    4.2550   20.8214 N.ar    1  UNL1       -0.2452
     33 C          -6.2798    3.9494   22.1255 C.3     1  UNL1        0.4348
     34 F          -7.0385    3.9543   23.4195 F       1  UNL1       -0.1644
     35 F          -5.3294    2.9335   22.6867 F       1  UNL1       -0.1644
     36 F          -7.2302    4.9653   21.5644 F       1  UNL1       -0.1644
@<TRIPOS>BOND
     1    13    14    1
     2    14    15   ar
     3    15    16   ar
     4    16     1    1
     5     1     2   ar
     6     2     3   ar
     7     3     4   ar
     8     4     5   ar
     9     5     6   ar
    10     6     7    1
    11     5     8    1
    12     8     9    1
    13     9    10    1
    14    10    11   am
    15    11    12    2
    16    11    26    1
    17    26    27    1
    18    27    28   ar
    19    28    29   ar
    20    29    30   ar
    21    30    31   ar
    22    31    33    1
    23    33    34    1
    24    33    35    1
    25    33    36    1
    26    31    32   ar
    27    16    17   ar
    28    17    18   ar
    29    18    19    1
    30    18    20   ar
    31    20    21   ar
    32    21    22   ar
    33    22    23   ar
    34    23    14   ar
    35     6     1   ar
    36    32    27   ar
    37    23    17   ar
    38    10     4    1
    39    19    24    1
    40    19    25    1
@<TRIPOS>MOLECULE
*****
 36 40 0 0 0
SMALL
GASTEIGER

@<TRIPOS>ATOM
      1 C           6.6897   -2.7470   26.4532 C.ar    1  UNL1        0.0289
      2 C           7.2165   -3.6961   25.4180 C.ar    1  UNL1        0.0035
      3 C           6.5699   -3.7660   24.0663 C.ar    1  UNL1        0.0147
      4 C           5.3966   -2.8868   23.7498 C.ar    1  UNL1        0.0520
      5 C           4.8698   -1.9377   24.7850 C.ar    1  UNL1        0.0207
      6 C           5.5163   -1.8678   26.1367 C.ar    1  UNL1        0.1374
      7 F           4.9895   -0.9187   27.1719 F       1  UNL1       -0.2045
      8 C           3.7077   -1.2000   24.1889 C.3     1  UNL1        0.0518
      9 C           3.5163   -1.6932   22.7852 C.3     1  UNL1        0.1030
     10 N           4.5601   -2.7356   22.5139 N.am    1  UNL1       -0.2582
     11 C           4.7364   -3.4939   21.2318 C.2     1  UNL1        0.2354
     12 O           5.8310   -4.5119   21.1069 O.2     1  UNL1       -0.2741
     13 C           9.4754   -1.0511   30.6058 C.3     1  UNL1        0.1319
     14 N           8.6167   -1.8976   29.7136 N.ar    1  UNL1       -0.3094
     15 C           8.1783   -1.5487   28.3222 C.ar    1  UNL1        0.0772
     16 C           7.3362   -2.6771   27.8049 C.ar    1  UNL1        0.0250
     17 C           7.2542   -3.7234   28.8767 C.ar    1  UNL1        0.0669
     18 C           6.5611   -5.0525   28.9308 C.ar    1  UNL1        0.1300
     19 N           5.7697   -5.5343   27.7511 N.pl3   1  UNL1       -0.3425
     20 N           6.6593   -5.8999   30.1646 N.ar    1  UNL1       -0.2094
     21 C           7.4507   -5.4181   31.3442 C.ar    1  UNL1        0.2014
     22 N           8.1438   -4.0890   31.2901 N.ar    1  UNL1       -0.2065
     23 C           8.0455   -3.2416   30.0563 C.ar    1  UNL1        0.1483
     24 H           5.7052   -4.9781   26.9413 H       1  UNL1        0.1437
     25 H           5.3148   -6.4067   27.7866 H       1  UNL1        0.1437
     26 C           3.8182   -3.2342   20.0744 C.3     1  UNL1        0.1312
     27 C           4.0191   -2.0212   19.2151 C.ar    1  UNL1        0.0681
     28 C           5.2523   -1.8963   18.3705 C.ar    1  UNL1        0.0152
     29 C           5.4531   -0.6834   17.5112 C.ar    1  UNL1        0.0027
     30 C           4.4209    0.4047   17.4966 C.ar    1  UNL1        0.0231
     31 C           3.1876    0.2799   18.3413 C.ar    1  UNL1        0.1522
     32 N           2.9867   -0.9331   19.2005 N.ar    1  UNL1       -0.2452
     33 C           2.1552    1.3680   18.3267 C.3     1  UNL1        0.4348
     34 F           1.1229    2.4562   18.3121 F       1  UNL1       -0.1644
     35 F           3.2433    2.3998   18.2860 F       1  UNL1       -0.1644
     36 F           1.0672    0.3363   18.3673 F       1  UNL1       -0.1644
@<TRIPOS>BOND
     1    13    14    1
     2    14    15   ar
     3    15    16   ar
     4    16     1    1
     5     1     2   ar
     6     2     3   ar
     7     3     4   ar
     8     4     5   ar
     9     5     6   ar
    10     6     7    1
    11     5     8    1
    12     8     9    1
    13     9    10    1
    14    10    11   am
    15    11    12    2
    16    11    26    1
    17    26    27    1
    18    27    28   ar
    19    28    29   ar
    20    29    30   ar
    21    30    31   ar
    22    31    33    1
    23    33    34    1
    24    33    35    1
    25    33    36    1
    26    31    32   ar
    27    16    17   ar
    28    17    18   ar
    29    18    19    1
    30    18    20   ar
    31    20    21   ar
    32    21    22   ar
    33    22    23   ar
    34    23    14   ar
    35     6     1   ar
    36    32    27   ar
    37    23    17   ar
    38    10     4    1
    39    19    24    1
    40    19    25    1
@<TRIPOS>MOLECULE
*****
 36 40 0 0 0
SMALL
GASTEIGER

@<TRIPOS>ATOM
      1 C           5.2501   -0.9929   32.8614 C.ar    1  UNL1        0.0289
      2 C           4.8835   -2.4107   33.1855 C.ar    1  UNL1        0.0035
      3 C           5.6887   -3.5420   32.6182 C.ar    1  UNL1        0.0147
      4 C           6.8606   -3.2555   31.7268 C.ar    1  UNL1        0.0520
      5 C           7.2272   -1.8376   31.4027 C.ar    1  UNL1        0.0207
      6 C           6.4220   -0.7062   31.9700 C.ar    1  UNL1        0.1374
      7 F           6.7887    0.7117   31.6458 F       1  UNL1       -0.2045
      8 C           8.4261   -1.8632   30.5016 C.3     1  UNL1        0.0518
      9 C           8.8004   -3.2970   30.2688 C.3     1  UNL1        0.1030
     10 N           7.8328   -4.1574   31.0260 N.am    1  UNL1       -0.2582
     11 C           7.8369   -5.6566   31.0741 C.2     1  UNL1        0.2354
     12 O           6.8006   -6.3840   31.8785 O.2     1  UNL1       -0.2741
     13 C           3.5310    2.8347   36.0669 C.3     1  UNL1        0.1319
     14 N           3.6547    1.8978   34.9020 N.ar    1  UNL1       -0.3094
     15 C           4.6980    0.8332   34.7337 C.ar    1  UNL1        0.0772
     16 C           4.4449    0.1385   33.4287 C.ar    1  UNL1        0.0250
     17 C           3.2452    0.7736   32.7904 C.ar    1  UNL1        0.0669
     18 C           2.5345    0.5024   31.4976 C.ar    1  UNL1        0.1300
     19 N           3.0228   -0.5849   30.5870 N.pl3   1  UNL1       -0.3425
     20 N           1.3353    1.3185   31.1155 N.ar    1  UNL1       -0.2094
     21 C           0.8470    2.4058   32.0262 C.ar    1  UNL1        0.2014
     22 N           1.5578    2.6770   33.3189 N.ar    1  UNL1       -0.2065
     23 C           2.7569    1.8610   33.7010 C.ar    1  UNL1        0.1483
     24 H           3.8099   -1.1206   30.8378 H       1  UNL1        0.1437
     25 H           2.5563   -0.7630   29.7386 H       1  UNL1        0.1437
     26 C           8.8772   -6.4285   30.3177 C.3     1  UNL1        0.1312
     27 C           8.6207   -6.8411   28.8985 C.ar    1  UNL1        0.0681
     28 C           9.0551   -8.1949   28.4209 C.ar    1  UNL1        0.0152
     29 C           8.7986   -8.6076   27.0018 C.ar    1  UNL1        0.0027
     30 C           8.1077   -7.6663   26.0603 C.ar    1  UNL1        0.0231
     31 C           7.6733   -6.3124   26.5379 C.ar    1  UNL1        0.1522
     32 N           7.9297   -5.8998   27.9570 N.ar    1  UNL1       -0.2452
     33 C           6.9823   -5.3710   25.5963 C.3     1  UNL1        0.4348
     34 F           6.2913   -4.4297   24.6548 F       1  UNL1       -0.1644
     35 F           7.4991   -6.1590   24.4292 F       1  UNL1       -0.1644
     36 F           6.4655   -4.5830   26.7634 F       1  UNL1       -0.1644
@<TRIPOS>BOND
     1    13    14    1
     2    14    15   ar
     3    15    16   ar
     4    16     1    1
     5     1     2   ar
     6     2     3   ar
     7     3     4   ar
     8     4     5   ar
     9     5     6   ar
    10     6     7    1
    11     5     8    1
    12     8     9    1
    13     9    10    1
    14    10    11   am
    15    11    12    2
    16    11    26    1
    17    26    27    1
    18    27    28   ar
    19    28    29   ar
    20    29    30   ar
    21    30    31   ar
    22    31    33    1
    23    33    34    1
    24    33    35    1
    25    33    36    1
    26    31    32   ar
    27    16    17   ar
    28    17    18   ar
    29    18    19    1
    30    18    20   ar
    31    20    21   ar
    32    21    22   ar
    33    22    23   ar
    34    23    14   ar
    35     6     1   ar
    36    32    27   ar
    37    23    17   ar
    38    10     4    1
    39    19    24    1
    40    19    25    1
@<TRIPOS>MOLECULE
*****
 36 40 0 0 0
SMALL
GASTEIGER

@<TRIPOS>ATOM
      1 C           1.6153    1.7575   26.1323 C.ar    1  UNL1        0.0289
      2 C           0.3888    1.3619   25.3649 C.ar    1  UNL1        0.0035
      3 C           0.4640    1.1659   23.8796 C.ar    1  UNL1        0.0147
      4 C           1.7658    1.3656   23.1618 C.ar    1  UNL1        0.0520
      5 C           2.9924    1.7613   23.9292 C.ar    1  UNL1        0.0207
      6 C           2.9172    1.9573   25.4144 C.ar    1  UNL1        0.1374
      7 F           4.1438    2.3529   26.1818 F       1  UNL1       -0.2045
      8 C           4.1276    1.8856   22.9566 C.3     1  UNL1        0.0518
      9 C           3.6026    1.5667   21.5882 C.3     1  UNL1        0.1030
     10 N           2.1430    1.2453   21.7150 N.am    1  UNL1       -0.2582
     11 C           1.2221    0.8697   20.5921 C.2     1  UNL1        0.2354
     12 O          -0.2214    0.5742   20.8729 O.2     1  UNL1       -0.2741
     13 C           0.6662    3.8712   30.8770 C.3     1  UNL1        0.1319
     14 N           1.1038    2.9251   29.7984 N.ar    1  UNL1       -0.3094
     15 C           0.9773    3.1528   28.3212 C.ar    1  UNL1        0.0772
     16 C           1.5400    1.9535   27.6175 C.ar    1  UNL1        0.0250
     17 C           2.0143    0.9847   28.6598 C.ar    1  UNL1        0.0669
     18 C           2.6569   -0.3667   28.5557 C.ar    1  UNL1        0.1300
     19 N           2.9265   -0.9671   27.2078 N.pl3   1  UNL1       -0.3425
     20 N           3.0298   -1.1176   29.7995 N.ar    1  UNL1       -0.2094
     21 C           2.7602   -0.5172   31.1473 C.ar    1  UNL1        0.2014
     22 N           2.1177    0.8342   31.2515 N.ar    1  UNL1       -0.2065
     23 C           1.7447    1.5851   30.0077 C.ar    1  UNL1        0.1483
     24 H           2.6817   -0.4743   26.3915 H       1  UNL1        0.1437
     25 H           3.3482   -1.8541   27.1395 H       1  UNL1        0.1437
     26 C           1.7448    0.7895   19.1883 C.3     1  UNL1        0.1312
     27 C           2.7733   -0.2414   18.8287 C.ar    1  UNL1        0.0681
     28 C           3.8449    0.0844   17.8310 C.ar    1  UNL1        0.0152
     29 C           4.8734   -0.9466   17.4713 C.ar    1  UNL1        0.0027
     30 C           4.8304   -2.3033   18.1095 C.ar    1  UNL1        0.0231
     31 C           3.7588   -2.6292   19.1073 C.ar    1  UNL1        0.1522
     32 N           2.7303   -1.5982   19.4669 N.ar    1  UNL1       -0.2452
     33 C           3.7158   -3.9860   19.7455 C.3     1  UNL1        0.4348
     34 F           3.6728   -5.3428   20.3837 F       1  UNL1       -0.1644
     35 F           4.6753   -3.5202   20.8003 F       1  UNL1       -0.1644
     36 F           2.7564   -4.4517   18.6907 F       1  UNL1       -0.1644
@<TRIPOS>BOND
     1    13    14    1
     2    14    15   ar
     3    15    16   ar
     4    16     1    1
     5     1     2   ar
     6     2     3   ar
     7     3     4   ar
     8     4     5   ar
     9     5     6   ar
    10     6     7    1
    11     5     8    1
    12     8     9    1
    13     9    10    1
    14    10    11   am
    15    11    12    2
    16    11    26    1
    17    26    27    1
    18    27    28   ar
    19    28    29   ar
    20    29    30   ar
    21    30    31   ar
    22    31    33    1
    23    33    34    1
    24    33    35    1
    25    33    36    1
    26    31    32   ar
    27    16    17   ar
    28    17    18   ar
    29    18    19    1
    30    18    20   ar
    31    20    21   ar
    32    21    22   ar
    33    22    23   ar
    34    23    14   ar
    35     6     1   ar
    36    32    27   ar
    37    23    17   ar
    38    10     4    1
    39    19    24    1
    40    19    25    1
@<TRIPOS>MOLECULE
*****
 36 40 0 0 0
SMALL
GASTEIGER

@<TRIPOS>ATOM
      1 C           2.6490   -0.6833   20.0425 C.ar    1  UNL1        0.0289
      2 C           2.0769   -0.3913   21.3980 C.ar    1  UNL1        0.0035
      3 C           1.1057    0.7380   21.5748 C.ar    1  UNL1        0.0147
      4 C           0.7064    1.5754   20.3961 C.ar    1  UNL1        0.0520
      5 C           1.2784    1.2834   19.0406 C.ar    1  UNL1        0.0207
      6 C           2.2497    0.1541   18.8637 C.ar    1  UNL1        0.1374
      7 F           2.8217   -0.1378   17.5082 F       1  UNL1       -0.2045
      8 C           0.7026    2.2731   18.0715 C.3     1  UNL1        0.0518
      9 C          -0.2253    3.1767   18.8282 C.3     1  UNL1        0.1030
     10 N          -0.2229    2.7455   20.2648 N.am    1  UNL1       -0.2582
     11 C          -1.0114    3.3740   21.3753 C.2     1  UNL1        0.2354
     12 O          -0.9071    2.8312   22.7697 O.2     1  UNL1       -0.2741
     13 C           4.7112   -5.3891   18.8247 C.3     1  UNL1        0.1319
     14 N           4.5681   -3.9756   19.3059 N.ar    1  UNL1       -0.3094
     15 C           3.3065   -3.1644   19.2963 C.ar    1  UNL1        0.0772
     16 C           3.6202   -1.8126   19.8657 C.ar    1  UNL1        0.0250
     17 C           5.0758   -1.7883   20.2272 C.ar    1  UNL1        0.0669
     18 C           5.9435   -0.7217   20.8266 C.ar    1  UNL1        0.1300
     19 N           5.3577    0.6151   21.1726 N.pl3   1  UNL1       -0.3425
     20 N           7.3970   -0.9919   21.0801 N.ar    1  UNL1       -0.2094
     21 C           7.9828   -2.3287   20.7342 C.ar    1  UNL1        0.2014
     22 N           7.1152   -3.3953   20.1347 N.ar    1  UNL1       -0.2065
     23 C           5.6617   -3.1252   19.8812 C.ar    1  UNL1        0.1483
     24 H           4.4037    0.7925   21.0062 H       1  UNL1        0.1437
     25 H           5.9271    1.3152   21.5660 H       1  UNL1        0.1437
     26 C          -1.9044    4.5454   21.0913 C.3     1  UNL1        0.1312
     27 C          -3.3347    4.3206   20.6993 C.ar    1  UNL1        0.0681
     28 C          -3.6754    3.9467   19.2872 C.ar    1  UNL1        0.0152
     29 C          -5.1057    3.7218   18.8952 C.ar    1  UNL1        0.0027
     30 C          -6.1952    3.8708   19.9152 C.ar    1  UNL1        0.0231
     31 C          -5.8545    4.2446   21.3273 C.ar    1  UNL1        0.1522
     32 N          -4.4243    4.4695   21.7194 N.ar    1  UNL1       -0.2452
     33 C          -6.9441    4.3936   22.3475 C.3     1  UNL1        0.4348
     34 F          -8.0337    4.5425   23.3676 F       1  UNL1       -0.1644
     35 F          -6.2207    3.4466   23.2585 F       1  UNL1       -0.1644
     36 F          -7.6676    5.3405   21.4365 F       1  UNL1       -0.1644
@<TRIPOS>BOND
     1    13    14    1
     2    14    15   ar
     3    15    16   ar
     4    16     1    1
     5     1     2   ar
     6     2     3   ar
     7     3     4   ar
     8     4     5   ar
     9     5     6   ar
    10     6     7    1
    11     5     8    1
    12     8     9    1
    13     9    10    1
    14    10    11   am
    15    11    12    2
    16    11    26    1
    17    26    27    1
    18    27    28   ar
    19    28    29   ar
    20    29    30   ar
    21    30    31   ar
    22    31    33    1
    23    33    34    1
    24    33    35    1
    25    33    36    1
    26    31    32   ar
    27    16    17   ar
    28    17    18   ar
    29    18    19    1
    30    18    20   ar
    31    20    21   ar
    32    21    22   ar
    33    22    23   ar
    34    23    14   ar
    35     6     1   ar
    36    32    27   ar
    37    23    17   ar
    38    10     4    1
    39    19    24    1
    40    19    25    1
@<TRIPOS>MOLECULE
*****
 36 40 0 0 0
SMALL
GASTEIGER

@<TRIPOS>ATOM
      1 C           2.6229   -0.4199   20.0311 C.ar    1  UNL1        0.0289
      2 C           2.2545   -0.1737   21.4640 C.ar    1  UNL1        0.0035
      3 C           1.2789    0.9114   21.8119 C.ar    1  UNL1        0.0147
      4 C           0.6718    1.7503   20.7266 C.ar    1  UNL1        0.0520
      5 C           1.0403    1.5040   19.2936 C.ar    1  UNL1        0.0207
      6 C           2.0158    0.4190   18.9458 C.ar    1  UNL1        0.1374
      7 F           2.3842    0.1727   17.5127 F       1  UNL1       -0.2045
      8 C           0.2851    2.4844   18.4458 C.3     1  UNL1        0.0518
      9 C          -0.5500    3.3365   19.3550 C.3     1  UNL1        0.1030
     10 N          -0.3110    2.8828   20.7645 N.am    1  UNL1       -0.2582
     11 C          -0.9437    3.4602   21.9959 C.2     1  UNL1        0.2354
     12 O          -0.6061    2.8999   23.3457 O.2     1  UNL1       -0.2741
     13 C           4.6701   -5.1369   18.8310 C.3     1  UNL1        0.1319
     14 N           4.5394   -3.6731   19.1316 N.ar    1  UNL1       -0.3094
     15 C           3.2654   -2.9492   19.4523 C.ar    1  UNL1        0.0772
     16 C           3.5984   -1.5050   19.6833 C.ar    1  UNL1        0.0250
     17 C           5.0782   -1.3364   19.5053 C.ar    1  UNL1        0.0669
     18 C           5.9713   -0.1357   19.6097 C.ar    1  UNL1        0.1300
     19 N           5.3897    1.2042   19.9506 N.pl3   1  UNL1       -0.3425
     20 N           7.4459   -0.2751   19.3731 N.ar    1  UNL1       -0.2094
     21 C           8.0275   -1.6151   19.0322 C.ar    1  UNL1        0.2014
     22 N           7.1344   -2.8157   18.9278 N.ar    1  UNL1       -0.2065
     23 C           5.6598   -2.6763   19.1644 C.ar    1  UNL1        0.1483
     24 H           4.4219    1.2957   20.1059 H       1  UNL1        0.1437
     25 H           5.9759    1.9922   20.0191 H       1  UNL1        0.1437
     26 C          -1.9141    4.5979   21.8774 C.3     1  UNL1        0.1312
     27 C          -3.3843    4.3499   22.0414 C.ar    1  UNL1        0.0681
     28 C          -3.9610    4.1373   23.4097 C.ar    1  UNL1        0.0152
     29 C          -5.4312    3.8893   23.5738 C.ar    1  UNL1        0.0027
     30 C          -6.3247    3.8539   22.3696 C.ar    1  UNL1        0.0231
     31 C          -5.7482    4.0665   21.0013 C.ar    1  UNL1        0.1522
     32 N          -4.2780    4.3146   20.8372 N.ar    1  UNL1       -0.2452
     33 C          -6.6418    4.0312   19.7970 C.3     1  UNL1        0.4348
     34 F          -7.5354    3.9958   18.5927 F       1  UNL1       -0.1644
     35 F          -7.4271    5.1854   20.3458 F       1  UNL1       -0.1644
     36 F          -5.8565    2.8770   19.2482 F       1  UNL1       -0.1644
@<TRIPOS>BOND
     1    13    14    1
     2    14    15   ar
     3    15    16   ar
     4    16     1    1
     5     1     2   ar
     6     2     3   ar
     7     3     4   ar
     8     4     5   ar
     9     5     6   ar
    10     6     7    1
    11     5     8    1
    12     8     9    1
    13     9    10    1
    14    10    11   am
    15    11    12    2
    16    11    26    1
    17    26    27    1
    18    27    28   ar
    19    28    29   ar
    20    29    30   ar
    21    30    31   ar
    22    31    33    1
    23    33    34    1
    24    33    35    1
    25    33    36    1
    26    31    32   ar
    27    16    17   ar
    28    17    18   ar
    29    18    19    1
    30    18    20   ar
    31    20    21   ar
    32    21    22   ar
    33    22    23   ar
    34    23    14   ar
    35     6     1   ar
    36    32    27   ar
    37    23    17   ar
    38    10     4    1
    39    19    24    1
    40    19    25    1
@<TRIPOS>MOLECULE
*****
 36 40 0 0 0
SMALL
GASTEIGER

@<TRIPOS>ATOM
      1 C           4.7308   -0.6880   32.8142 C.ar    1  UNL1        0.0289
      2 C           4.3901   -2.1096   33.1501 C.ar    1  UNL1        0.0035
      3 C           5.2749   -3.2248   32.6772 C.ar    1  UNL1        0.0147
      4 C           6.5004   -2.9184   31.8685 C.ar    1  UNL1        0.0520
      5 C           6.8412   -1.4967   31.5326 C.ar    1  UNL1        0.0207
      6 C           5.9565   -0.3815   32.0055 C.ar    1  UNL1        0.1374
      7 F           6.2973    1.0401   31.6696 F       1  UNL1       -0.2045
      8 C           8.1053   -1.5015   30.7251 C.3     1  UNL1        0.0518
      9 C           8.5458   -2.9261   30.5620 C.3     1  UNL1        0.1030
     10 N           7.5539   -3.8017   31.2686 N.am    1  UNL1       -0.2582
     11 C           7.6063   -5.2980   31.3594 C.2     1  UNL1        0.2354
     12 O           6.5377   -6.0421   32.1042 O.2     1  UNL1       -0.2741
     13 C           1.1770    3.2165   32.8864 C.3     1  UNL1        0.1319
     14 N           2.2126    2.2219   33.3202 N.ar    1  UNL1       -0.3094
     15 C           2.8859    1.2099   32.4413 C.ar    1  UNL1        0.0772
     16 C           3.8461    0.4272   33.2871 C.ar    1  UNL1        0.0250
     17 C           3.7662    0.9554   34.6887 C.ar    1  UNL1        0.0669
     18 C           4.4824    0.5697   35.9490 C.ar    1  UNL1        0.1300
     19 N           5.4920   -0.5395   35.9285 N.pl3   1  UNL1       -0.3425
     20 N           4.1890    1.2932   37.2297 N.ar    1  UNL1       -0.2094
     21 C           3.1794    2.4024   37.2502 C.ar    1  UNL1        0.2014
     22 N           2.4632    2.7881   35.9900 N.ar    1  UNL1       -0.2065
     23 C           2.7567    2.0646   34.7092 C.ar    1  UNL1        0.1483
     24 H           5.6846   -1.0144   35.0878 H       1  UNL1        0.1437
     25 H           5.9620   -0.7926   36.7557 H       1  UNL1        0.1437
     26 C           8.7273   -6.0503   30.7055 C.3     1  UNL1        0.1312
     27 C           8.5762   -6.5480   29.2986 C.ar    1  UNL1        0.0681
     28 C           9.1572   -7.8738   28.9055 C.ar    1  UNL1        0.0152
     29 C           9.0061   -8.3714   27.4986 C.ar    1  UNL1        0.0027
     30 C           8.2739   -7.5433   26.4847 C.ar    1  UNL1        0.0231
     31 C           7.6928   -6.2175   26.8777 C.ar    1  UNL1        0.1522
     32 N           7.8440   -5.7198   28.2846 N.ar    1  UNL1       -0.2452
     33 C           6.9606   -5.3893   25.8638 C.3     1  UNL1        0.4348
     34 F           6.2284   -4.5612   24.8498 F       1  UNL1       -0.1644
     35 F           7.4967   -6.2596   24.7659 F       1  UNL1       -0.1644
     36 F           6.4246   -4.5191   26.9617 F       1  UNL1       -0.1644
@<TRIPOS>BOND
     1    13    14    1
     2    14    15   ar
     3    15    16   ar
     4    16     1    1
     5     1     2   ar
     6     2     3   ar
     7     3     4   ar
     8     4     5   ar
     9     5     6   ar
    10     6     7    1
    11     5     8    1
    12     8     9    1
    13     9    10    1
    14    10    11   am
    15    11    12    2
    16    11    26    1
    17    26    27    1
    18    27    28   ar
    19    28    29   ar
    20    29    30   ar
    21    30    31   ar
    22    31    33    1
    23    33    34    1
    24    33    35    1
    25    33    36    1
    26    31    32   ar
    27    16    17   ar
    28    17    18   ar
    29    18    19    1
    30    18    20   ar
    31    20    21   ar
    32    21    22   ar
    33    22    23   ar
    34    23    14   ar
    35     6     1   ar
    36    32    27   ar
    37    23    17   ar
    38    10     4    1
    39    19    24    1
    40    19    25    1
@<TRIPOS>MOLECULE
*****
 36 40 0 0 0
SMALL
GASTEIGER

@<TRIPOS>ATOM
      1 C           2.6136   -0.4351   20.0475 C.ar    1  UNL1        0.0289
      2 C           2.2144   -0.2145   21.4764 C.ar    1  UNL1        0.0035
      3 C           1.2366    0.8688   21.8233 C.ar    1  UNL1        0.0147
      4 C           0.6579    1.7315   20.7413 C.ar    1  UNL1        0.0520
      5 C           1.0571    1.5110   19.3123 C.ar    1  UNL1        0.0207
      6 C           2.0349    0.4277   18.9654 C.ar    1  UNL1        0.1374
      7 F           2.4341    0.2072   17.5364 F       1  UNL1       -0.2045
      8 C           0.3258    2.5114   18.4671 C.3     1  UNL1        0.0518
      9 C          -0.5254    3.3502   19.3737 C.3     1  UNL1        0.1030
     10 N          -0.3201    2.8682   20.7792 N.am    1  UNL1       -0.2582
     11 C          -0.9774    3.4251   22.0071 C.2     1  UNL1        0.2354
     12 O          -0.6728    2.8372   23.3531 O.2     1  UNL1       -0.2741
     13 C           4.6682   -5.1448   18.8320 C.3     1  UNL1        0.1319
     14 N           4.5358   -3.6831   19.1418 N.ar    1  UNL1       -0.3094
     15 C           3.2595   -2.9606   19.4565 C.ar    1  UNL1        0.0772
     16 C           3.5915   -1.5183   19.7005 C.ar    1  UNL1        0.0250
     17 C           5.0729   -1.3494   19.5368 C.ar    1  UNL1        0.0669
     18 C           5.9658   -0.1502   19.6574 C.ar    1  UNL1        0.1300
     19 N           5.3821    1.1877   20.0027 N.pl3   1  UNL1       -0.3425
     20 N           7.4423   -0.2889   19.4328 N.ar    1  UNL1       -0.2094
     21 C           8.0260   -1.6269   19.0875 C.ar    1  UNL1        0.2014
     22 N           7.1331   -2.8261   18.9668 N.ar    1  UNL1       -0.2065
     23 C           5.6566   -2.6874   19.1915 C.ar    1  UNL1        0.1483
     24 H           4.4129    1.2788   20.1502 H       1  UNL1        0.1437
     25 H           5.9681    1.9748   20.0819 H       1  UNL1        0.1437
     26 C          -1.9395    4.5700   21.8890 C.3     1  UNL1        0.1312
     27 C          -3.3547    4.4120   22.3602 C.ar    1  UNL1        0.0681
     28 C          -4.4234    3.9896   21.3961 C.ar    1  UNL1        0.0152
     29 C          -5.8387    3.8316   21.8672 C.ar    1  UNL1        0.0027
     30 C          -6.1853    4.0960   23.3024 C.ar    1  UNL1        0.0231
     31 C          -5.1167    4.5185   24.2665 C.ar    1  UNL1        0.1522
     32 N          -3.7014    4.6765   23.7954 N.ar    1  UNL1       -0.2452
     33 C          -5.4634    4.7830   25.7017 C.3     1  UNL1        0.4348
     34 F          -5.8101    5.0474   27.1370 F       1  UNL1       -0.1644
     35 F          -6.3459    5.9199   25.2791 F       1  UNL1       -0.1644
     36 F          -4.5809    3.6460   26.1244 F       1  UNL1       -0.1644
@<TRIPOS>BOND
     1    13    14    1
     2    14    15   ar
     3    15    16   ar
     4    16     1    1
     5     1     2   ar
     6     2     3   ar
     7     3     4   ar
     8     4     5   ar
     9     5     6   ar
    10     6     7    1
    11     5     8    1
    12     8     9    1
    13     9    10    1
    14    10    11   am
    15    11    12    2
    16    11    26    1
    17    26    27    1
    18    27    28   ar
    19    28    29   ar
    20    29    30   ar
    21    30    31   ar
    22    31    33    1
    23    33    34    1
    24    33    35    1
    25    33    36    1
    26    31    32   ar
    27    16    17   ar
    28    17    18   ar
    29    18    19    1
    30    18    20   ar
    31    20    21   ar
    32    21    22   ar
    33    22    23   ar
    34    23    14   ar
    35     6     1   ar
    36    32    27   ar
    37    23    17   ar
    38    10     4    1
    39    19    24    1
    40    19    25    1
@<TRIPOS>MOLECULE
*****
 36 40 0 0 0
SMALL
GASTEIGER

@<TRIPOS>ATOM
      1 C           2.4946    0.4651   21.5604 C.ar    1  UNL1        0.0289
      2 C           3.7540    0.7711   22.3154 C.ar    1  UNL1        0.0035
      3 C           4.8870   -0.2119   22.3141 C.ar    1  UNL1        0.0147
      4 C           4.7605   -1.5011   21.5577 C.ar    1  UNL1        0.0520
      5 C           3.5011   -1.8072   20.8027 C.ar    1  UNL1        0.0207
      6 C           2.3681   -0.8241   20.8040 C.ar    1  UNL1        0.1374
      7 F           1.1087   -1.1303   20.0490 F       1  UNL1       -0.2045
      8 C           3.6646   -3.1494   20.1534 C.3     1  UNL1        0.0518
      9 C           5.0250   -3.6728   20.5071 C.3     1  UNL1        0.1030
     10 N           5.7024   -2.6541   21.3750 N.am    1  UNL1       -0.2582
     11 C           7.0797   -2.7684   21.9579 C.2     1  UNL1        0.2354
     12 O           7.6269   -1.6631   22.8117 O.2     1  UNL1       -0.2741
     13 C          -1.0792    4.0110   19.9683 C.3     1  UNL1        0.1319
     14 N          -0.2811    3.0780   20.8299 N.ar    1  UNL1       -0.3094
     15 C           0.8588    2.2155   20.3751 C.ar    1  UNL1        0.0772
     16 C           1.3616    1.4481   21.5618 C.ar    1  UNL1        0.0250
     17 C           0.5326    1.8364   22.7501 C.ar    1  UNL1        0.0669
     18 C           0.5710    1.4028   24.1855 C.ar    1  UNL1        0.1300
     19 N           1.5863    0.3955   24.6378 N.pl3   1  UNL1       -0.3425
     20 N          -0.4058    1.9765   25.1686 N.ar    1  UNL1       -0.2094
     21 C          -1.4210    2.9838   24.7163 C.ar    1  UNL1        0.2014
     22 N          -1.4595    3.4174   23.2809 N.ar    1  UNL1       -0.2065
     23 C          -0.4826    2.8437   22.2978 C.ar    1  UNL1        0.1483
     24 H           2.2274    0.0189   23.9925 H       1  UNL1        0.1437
     25 H           1.6115    0.1109   25.5799 H       1  UNL1        0.1437
     26 C           7.9100   -3.9880   21.6870 C.3     1  UNL1        0.1312
     27 C           8.0457   -5.0511   22.7363 C.ar    1  UNL1        0.0681
     28 C           8.9027   -6.2548   22.4781 C.ar    1  UNL1        0.0152
     29 C           9.0384   -7.3180   23.5274 C.ar    1  UNL1        0.0027
     30 C           8.3172   -7.1775   24.8350 C.ar    1  UNL1        0.0231
     31 C           7.4602   -5.9739   25.0934 C.ar    1  UNL1        0.1522
     32 N           7.3244   -4.9107   24.0440 N.ar    1  UNL1       -0.2452
     33 C           6.7388   -5.8335   26.4010 C.3     1  UNL1        0.4348
     34 F           6.0175   -5.6930   27.7087 F       1  UNL1       -0.1644
     35 F           6.8022   -4.3400   26.2756 F       1  UNL1       -0.1644
     36 F           6.6755   -7.3269   26.5265 F       1  UNL1       -0.1644
@<TRIPOS>BOND
     1    13    14    1
     2    14    15   ar
     3    15    16   ar
     4    16     1    1
     5     1     2   ar
     6     2     3   ar
     7     3     4   ar
     8     4     5   ar
     9     5     6   ar
    10     6     7    1
    11     5     8    1
    12     8     9    1
    13     9    10    1
    14    10    11   am
    15    11    12    2
    16    11    26    1
    17    26    27    1
    18    27    28   ar
    19    28    29   ar
    20    29    30   ar
    21    30    31   ar
    22    31    33    1
    23    33    34    1
    24    33    35    1
    25    33    36    1
    26    31    32   ar
    27    16    17   ar
    28    17    18   ar
    29    18    19    1
    30    18    20   ar
    31    20    21   ar
    32    21    22   ar
    33    22    23   ar
    34    23    14   ar
    35     6     1   ar
    36    32    27   ar
    37    23    17   ar
    38    10     4    1
    39    19    24    1
    40    19    25    1
