@<TRIPOS>MOLECULE
*****
 26 28 0 0 0
SMALL
GASTEIGER

@<TRIPOS>ATOM
      1 C          -9.5984  -17.7890   21.7911 C.ar    1  UNL1        0.0981
      2 N         -10.7323  -17.2098   20.9982 N.ar    1  UNL1       -0.2425
      3 C         -11.1081  -17.8123   19.6769 C.ar    1  UNL1        0.0989
      4 C         -10.3501  -18.9940   19.1487 C.ar    1  UNL1        0.0205
      5 C          -9.2163  -19.5732   19.9417 C.ar    1  UNL1        0.0025
      6 C          -8.8404  -18.9707   21.2629 C.ar    1  UNL1        0.0403
      7 N          -9.6623  -17.6745   24.4610 N.ar    1  UNL1       -0.2513
      8 N          -9.0524  -16.7799   25.4992 N.ar    1  UNL1       -0.1677
      9 C          -8.2358  -15.7390   24.7922 C.ar    1  UNL1        0.1217
     10 C          -8.3409  -15.9903   23.3172 C.ar    1  UNL1        0.0427
     11 C          -9.2225  -17.1865   23.1124 C.ar    1  UNL1        0.0967
     12 C         -12.0446  -18.6951   24.6416 C.3     1  UNL1        0.0263
     13 C         -10.5551  -18.8505   24.7250 C.3     1  UNL1        0.1054
     14 C          -9.9583  -20.1821   25.0725 C.3     1  UNL1        0.0263
     15 C          -7.7065  -19.5499   22.0559 C.3     1  UNL1        0.2335
     16 O          -6.4778  -18.7299   22.3166 O.3     1  UNL1       -0.4704
     17 C          -5.1591  -19.1503   21.7387 C.ar    1  UNL1        0.1451
     18 C          -5.1175  -20.0909   20.5711 C.ar    1  UNL1        0.0372
     19 C          -3.7986  -20.5113   19.9932 C.ar    1  UNL1        0.0062
     20 C          -2.5214  -19.9910   20.5830 C.ar    1  UNL1        0.0369
     21 C          -2.5629  -19.0504   21.7506 C.ar    1  UNL1        0.1397
     22 O          -1.2856  -18.5301   22.3404 O.3     1  UNL1       -0.5053
     23 C          -3.8817  -18.6300   22.3285 C.ar    1  UNL1        0.1097
     24 H          -0.4618  -18.7927   21.9794 H       1  UNL1        0.2922
     25 C          -3.9232  -17.6893   23.4962 C.2     1  UNL1        0.2402
     26 O          -4.3694  -16.2706   23.3009 O.2     1  UNL1       -0.2829
@<TRIPOS>BOND
     1    12    13    1
     2    13    14    1
     3    13     7    1
     4     7     8   ar
     5     8     9   ar
     6     9    10   ar
     7    10    11   ar
     8    11     1    1
     9     1     2   ar
    10     2     3   ar
    11     3     4   ar
    12     4     5   ar
    13     5     6   ar
    14     6    15    1
    15    15    16    1
    16    16    17    1
    17    17    18   ar
    18    18    19   ar
    19    19    20   ar
    20    20    21   ar
    21    21    22    1
    22    21    23   ar
    23    23    25    1
    24    25    26    2
    25    11     7   ar
    26     6     1   ar
    27    23    17   ar
    28    22    24    1
@<TRIPOS>MOLECULE
*****
 26 28 0 0 0
SMALL
GASTEIGER

@<TRIPOS>ATOM
      1 C          -9.3557  -18.0729   21.5184 C.ar    1  UNL1        0.0981
      2 N         -10.6592  -17.7225   20.8641 N.ar    1  UNL1       -0.2425
      3 C         -11.0598  -18.3935   19.5838 C.ar    1  UNL1        0.0989
      4 C         -10.1569  -19.4148   18.9578 C.ar    1  UNL1        0.0205
      5 C          -8.8535  -19.7651   19.6122 C.ar    1  UNL1        0.0025
      6 C          -8.4529  -19.0941   20.8925 C.ar    1  UNL1        0.0403
      7 N          -9.4518  -17.7514   24.1704 N.ar    1  UNL1       -0.2513
      8 N          -8.7911  -16.8292   25.1517 N.ar    1  UNL1       -0.1677
      9 C          -7.8860  -15.9097   24.3866 C.ar    1  UNL1        0.1217
     10 C          -7.9873  -16.2636   22.9325 C.ar    1  UNL1        0.0427
     11 C          -8.9550  -17.4019   22.7988 C.ar    1  UNL1        0.0967
     12 C         -11.9087  -18.5604   24.4140 C.3     1  UNL1        0.0263
     13 C         -10.4364  -18.8332   24.5023 C.3     1  UNL1        0.1054
     14 C          -9.9487  -20.1880   24.9227 C.3     1  UNL1        0.0263
     15 C          -7.1493  -19.4445   21.5469 C.3     1  UNL1        0.2335
     16 O          -5.8585  -19.2123   20.8190 O.3     1  UNL1       -0.4704
     17 C          -4.6506  -18.7333   21.5683 C.ar    1  UNL1        0.1451
     18 C          -4.7915  -18.2273   22.9734 C.ar    1  UNL1        0.0372
     19 C          -3.5835  -17.7483   23.7227 C.ar    1  UNL1        0.0062
     20 C          -2.2348  -17.7751   23.0669 C.ar    1  UNL1        0.0369
     21 C          -2.0939  -18.2811   21.6618 C.ar    1  UNL1        0.1397
     22 O          -0.7451  -18.3080   21.0061 O.3     1  UNL1       -0.5053
     23 C          -3.3018  -18.7601   20.9125 C.ar    1  UNL1        0.1097
     24 H           0.0094  -18.0087   21.4741 H       1  UNL1        0.2922
     25 C          -3.1609  -19.2661   19.5075 C.2     1  UNL1        0.2402
     26 O          -2.1262  -18.6738   18.5973 O.2     1  UNL1       -0.2829
@<TRIPOS>BOND
     1    12    13    1
     2    13    14    1
     3    13     7    1
     4     7     8   ar
     5     8     9   ar
     6     9    10   ar
     7    10    11   ar
     8    11     1    1
     9     1     2   ar
    10     2     3   ar
    11     3     4   ar
    12     4     5   ar
    13     5     6   ar
    14     6    15    1
    15    15    16    1
    16    16    17    1
    17    17    18   ar
    18    18    19   ar
    19    19    20   ar
    20    20    21   ar
    21    21    22    1
    22    21    23   ar
    23    23    25    1
    24    25    26    2
    25    11     7   ar
    26     6     1   ar
    27    23    17   ar
    28    22    24    1
@<TRIPOS>MOLECULE
*****
 26 28 0 0 0
SMALL
GASTEIGER

@<TRIPOS>ATOM
      1 C          -9.1788  -19.4131   21.5715 C.ar    1  UNL1        0.0981
      2 N         -10.2816  -19.6172   20.5754 N.ar    1  UNL1       -0.2425
      3 C          -9.9558  -19.7985   19.1225 C.ar    1  UNL1        0.0989
      4 C          -8.5272  -19.7757   18.6657 C.ar    1  UNL1        0.0205
      5 C          -7.4245  -19.5716   19.6617 C.ar    1  UNL1        0.0025
      6 C          -7.7502  -19.3903   21.1146 C.ar    1  UNL1        0.0403
      7 N          -9.5804  -17.9236   23.7544 N.ar    1  UNL1       -0.2513
      8 N          -9.9344  -18.2101   25.1836 N.ar    1  UNL1       -0.1677
      9 C         -10.0773  -19.6954   25.3369 C.ar    1  UNL1        0.1217
     10 C          -9.8116  -20.3268   24.0025 C.ar    1  UNL1        0.0427
     11 C          -9.5046  -19.2318   23.0245 C.ar    1  UNL1        0.0967
     12 C          -8.1729  -15.7446   23.6095 C.3     1  UNL1        0.0263
     13 C          -9.3438  -16.5670   23.1596 C.3     1  UNL1        0.1054
     14 C         -10.2782  -16.0328   22.1149 C.3     1  UNL1        0.0263
     15 C          -6.6474  -19.1861   22.1108 C.3     1  UNL1        0.2335
     16 O          -5.3415  -19.9044   21.9416 O.3     1  UNL1       -0.4704
     17 C          -4.1916  -19.2202   21.2637 C.ar    1  UNL1        0.1451
     18 C          -3.7391  -19.6787   19.9090 C.ar    1  UNL1        0.0372
     19 C          -2.5891  -18.9945   19.2311 C.ar    1  UNL1        0.0062
     20 C          -1.8917  -17.8518   19.9078 C.ar    1  UNL1        0.0369
     21 C          -2.3443  -17.3934   21.2625 C.ar    1  UNL1        0.1397
     22 O          -1.6469  -16.2508   21.9392 O.3     1  UNL1       -0.5053
     23 C          -3.4942  -18.0775   21.9404 C.ar    1  UNL1        0.1097
     24 H          -0.9285  -15.8234   21.5158 H       1  UNL1        0.2922
     25 C          -3.9467  -17.6191   23.2950 C.2     1  UNL1        0.2402
     26 O          -4.4671  -16.2245   23.4797 O.2     1  UNL1       -0.2829
@<TRIPOS>BOND
     1    12    13    1
     2    13    14    1
     3    13     7    1
     4     7     8   ar
     5     8     9   ar
     6     9    10   ar
     7    10    11   ar
     8    11     1    1
     9     1     2   ar
    10     2     3   ar
    11     3     4   ar
    12     4     5   ar
    13     5     6   ar
    14     6    15    1
    15    15    16    1
    16    16    17    1
    17    17    18   ar
    18    18    19   ar
    19    19    20   ar
    20    20    21   ar
    21    21    22    1
    22    21    23   ar
    23    23    25    1
    24    25    26    2
    25    11     7   ar
    26     6     1   ar
    27    23    17   ar
    28    22    24    1
@<TRIPOS>MOLECULE
*****
 26 28 0 0 0
SMALL
GASTEIGER

@<TRIPOS>ATOM
      1 C          -8.9148  -17.2204   23.8687 C.ar    1  UNL1        0.0981
      2 N          -9.3580  -16.3252   24.9877 N.ar    1  UNL1       -0.2425
      3 C          -8.5375  -15.1254   25.3580 C.ar    1  UNL1        0.0989
      4 C          -7.2739  -14.8207   24.6094 C.ar    1  UNL1        0.0205
      5 C          -6.8308  -15.7159   23.4904 C.ar    1  UNL1        0.0025
      6 C          -7.6512  -16.9158   23.1200 C.ar    1  UNL1        0.0403
      7 N         -10.8277  -18.4585   22.4710 N.ar    1  UNL1       -0.2513
      8 N         -11.3749  -19.8544   22.4279 N.ar    1  UNL1       -0.1677
      9 C         -10.6208  -20.6790   23.4287 C.ar    1  UNL1        0.1217
     10 C          -9.6075  -19.7927   24.0902 C.ar    1  UNL1        0.0427
     11 C          -9.7353  -18.4203   23.4983 C.ar    1  UNL1        0.0967
     12 C         -10.9953  -17.2764   20.1635 C.3     1  UNL1        0.0263
     13 C         -11.2913  -17.3035   21.6337 C.3     1  UNL1        0.1054
     14 C         -12.0511  -16.1756   22.2667 C.3     1  UNL1        0.0263
     15 C          -7.2081  -17.8110   22.0010 C.3     1  UNL1        0.2335
     16 O          -6.5137  -19.1052   22.3060 O.3     1  UNL1       -0.4704
     17 C          -5.2150  -19.4364   21.6324 C.ar    1  UNL1        0.1451
     18 C          -5.1914  -20.3955   20.4794 C.ar    1  UNL1        0.0372
     19 C          -3.8926  -20.7267   19.8058 C.ar    1  UNL1        0.0062
     20 C          -2.6176  -20.0988   20.2853 C.ar    1  UNL1        0.0369
     21 C          -2.6412  -19.1396   21.4384 C.ar    1  UNL1        0.1397
     22 O          -1.3662  -18.5117   21.9179 O.3     1  UNL1       -0.5053
     23 C          -3.9399  -18.8084   22.1119 C.ar    1  UNL1        0.1097
     24 H          -0.5549  -18.7186   21.4971 H       1  UNL1        0.2922
     25 C          -3.9635  -17.8493   23.2650 C.2     1  UNL1        0.2402
     26 O          -3.5888  -16.4124   23.0531 O.2     1  UNL1       -0.2829
@<TRIPOS>BOND
     1    12    13    1
     2    13    14    1
     3    13     7    1
     4     7     8   ar
     5     8     9   ar
     6     9    10   ar
     7    10    11   ar
     8    11     1    1
     9     1     2   ar
    10     2     3   ar
    11     3     4   ar
    12     4     5   ar
    13     5     6   ar
    14     6    15    1
    15    15    16    1
    16    16    17    1
    17    17    18   ar
    18    18    19   ar
    19    19    20   ar
    20    20    21   ar
    21    21    22    1
    22    21    23   ar
    23    23    25    1
    24    25    26    2
    25    11     7   ar
    26     6     1   ar
    27    23    17   ar
    28    22    24    1
@<TRIPOS>MOLECULE
*****
 26 28 0 0 0
SMALL
GASTEIGER

@<TRIPOS>ATOM
      1 C          -9.4324  -19.4793   21.3792 C.ar    1  UNL1        0.0981
      2 N         -10.2160  -20.1038   20.2630 N.ar    1  UNL1       -0.2425
      3 C          -9.6163  -20.2072   18.8920 C.ar    1  UNL1        0.0989
      4 C          -8.2329  -19.6861   18.6373 C.ar    1  UNL1        0.0205
      5 C          -7.4494  -19.0616   19.7535 C.ar    1  UNL1        0.0025
      6 C          -8.0491  -18.9583   21.1245 C.ar    1  UNL1        0.0403
      7 N         -11.1028  -18.4146   23.1740 N.ar    1  UNL1       -0.2513
      8 N         -11.3989  -18.6602   24.6238 N.ar    1  UNL1       -0.1677
      9 C         -10.5113  -19.7734   25.0961 C.ar    1  UNL1        0.1217
     10 C          -9.6666  -20.2157   23.9381 C.ar    1  UNL1        0.0427
     11 C         -10.0322  -19.3759   22.7502 C.ar    1  UNL1        0.0967
     12 C         -11.0981  -16.0626   22.0703 C.3     1  UNL1        0.0263
     13 C         -11.7616  -17.3878   22.3013 C.3     1  UNL1        0.1054
     14 C         -13.0841  -17.6863   21.6594 C.3     1  UNL1        0.0263
     15 C          -7.2655  -18.3338   22.2408 C.3     1  UNL1        0.2335
     16 O          -7.3836  -16.8626   22.5085 O.3     1  UNL1       -0.4704
     17 C          -7.3715  -16.3536   23.9194 C.ar    1  UNL1        0.1451
     18 C          -8.5319  -16.6336   24.8277 C.ar    1  UNL1        0.0372
     19 C          -8.5196  -16.1246   26.2387 C.ar    1  UNL1        0.0062
     20 C          -7.3471  -15.3357   26.7413 C.ar    1  UNL1        0.0369
     21 C          -6.1867  -15.0557   25.8330 C.ar    1  UNL1        0.1397
     22 O          -5.0141  -14.2668   26.3356 O.3     1  UNL1       -0.5053
     23 C          -6.1988  -15.5647   24.4220 C.ar    1  UNL1        0.1097
     24 H          -5.0065  -13.9489   27.2169 H       1  UNL1        0.2922
     25 C          -5.0384  -15.2847   23.5137 C.2     1  UNL1        0.2402
     26 O          -4.1071  -16.3937   23.1232 O.2     1  UNL1       -0.2829
@<TRIPOS>BOND
     1    12    13    1
     2    13    14    1
     3    13     7    1
     4     7     8   ar
     5     8     9   ar
     6     9    10   ar
     7    10    11   ar
     8    11     1    1
     9     1     2   ar
    10     2     3   ar
    11     3     4   ar
    12     4     5   ar
    13     5     6   ar
    14     6    15    1
    15    15    16    1
    16    16    17    1
    17    17    18   ar
    18    18    19   ar
    19    19    20   ar
    20    20    21   ar
    21    21    22    1
    22    21    23   ar
    23    23    25    1
    24    25    26    2
    25    11     7   ar
    26     6     1   ar
    27    23    17   ar
    28    22    24    1
@<TRIPOS>MOLECULE
*****
 26 28 0 0 0
SMALL
GASTEIGER

@<TRIPOS>ATOM
      1 C          -9.1976  -16.4850   23.2215 C.ar    1  UNL1        0.0981
      2 N          -9.6664  -15.5754   24.3182 N.ar    1  UNL1       -0.2425
      3 C          -8.6924  -15.0694   25.3406 C.ar    1  UNL1        0.0989
      4 C          -7.2497  -15.4730   25.2662 C.ar    1  UNL1        0.0205
      5 C          -6.7809  -16.3825   24.1694 C.ar    1  UNL1        0.0025
      6 C          -7.7549  -16.8885   23.1471 C.ar    1  UNL1        0.0403
      7 N         -11.0232  -18.2194   22.3247 N.ar    1  UNL1       -0.2513
      8 N         -11.8429  -18.3452   21.0748 N.ar    1  UNL1       -0.1677
      9 C         -11.4979  -17.1944   20.1766 C.ar    1  UNL1        0.1217
     10 C         -10.4650  -16.3575   20.8714 C.ar    1  UNL1        0.0427
     11 C         -10.1716  -16.9910   22.1990 C.ar    1  UNL1        0.0967
     12 C         -11.9576  -18.8810   24.6569 C.3     1  UNL1        0.0263
     13 C         -11.0504  -19.1575   23.4949 C.3     1  UNL1        0.1054
     14 C         -10.1701  -20.3721   23.5031 C.3     1  UNL1        0.0263
     15 C          -7.2861  -17.7981   22.0502 C.3     1  UNL1        0.2335
     16 O          -6.5657  -19.0699   22.3871 O.3     1  UNL1       -0.4704
     17 C          -5.2961  -19.4249   21.6716 C.ar    1  UNL1        0.1451
     18 C          -5.3266  -20.3912   20.5246 C.ar    1  UNL1        0.0372
     19 C          -4.0569  -20.7461   19.8090 C.ar    1  UNL1        0.0062
     20 C          -2.7568  -20.1349   20.2404 C.ar    1  UNL1        0.0369
     21 C          -2.7263  -19.1686   21.3873 C.ar    1  UNL1        0.1397
     22 O          -1.4263  -18.5574   21.8187 O.3     1  UNL1       -0.5053
     23 C          -3.9959  -18.8136   22.1029 C.ar    1  UNL1        0.1097
     24 H          -0.6332  -18.7791   21.3717 H       1  UNL1        0.2922
     25 C          -3.9654  -17.8474   23.2498 C.2     1  UNL1        0.2402
     26 O          -3.5416  -16.4266   23.0225 O.2     1  UNL1       -0.2829
@<TRIPOS>BOND
     1    12    13    1
     2    13    14    1
     3    13     7    1
     4     7     8   ar
     5     8     9   ar
     6     9    10   ar
     7    10    11   ar
     8    11     1    1
     9     1     2   ar
    10     2     3   ar
    11     3     4   ar
    12     4     5   ar
    13     5     6   ar
    14     6    15    1
    15    15    16    1
    16    16    17    1
    17    17    18   ar
    18    18    19   ar
    19    19    20   ar
    20    20    21   ar
    21    21    22    1
    22    21    23   ar
    23    23    25    1
    24    25    26    2
    25    11     7   ar
    26     6     1   ar
    27    23    17   ar
    28    22    24    1
@<TRIPOS>MOLECULE
*****
 26 28 0 0 0
SMALL
GASTEIGER

@<TRIPOS>ATOM
      1 C          -8.5201  -17.3888   22.7980 C.ar    1  UNL1        0.0981
      2 N          -9.2179  -16.3345   23.6051 N.ar    1  UNL1       -0.2425
      3 C          -8.4195  -15.3819   24.4448 C.ar    1  UNL1        0.0989
      4 C          -6.9233  -15.4836   24.4774 C.ar    1  UNL1        0.0205
      5 C          -6.2255  -16.5379   23.6702 C.ar    1  UNL1        0.0025
      6 C          -7.0239  -17.4905   22.8305 C.ar    1  UNL1        0.0403
      7 N         -10.3374  -19.3201   22.4622 N.ar    1  UNL1       -0.2513
      8 N         -10.8867  -20.0662   21.2826 N.ar    1  UNL1       -0.1677
      9 C         -10.2073  -19.5486   20.0495 C.ar    1  UNL1        0.1217
     10 C          -9.2381  -18.4826   20.4670 C.ar    1  UNL1        0.0427
     11 C          -9.3185  -18.3414   21.9582 C.ar    1  UNL1        0.0967
     12 C          -9.9764  -20.4792   24.7593 C.3     1  UNL1        0.0263
     13 C         -10.7368  -19.5180   23.8945 C.3     1  UNL1        0.1054
     14 C         -11.8967  -18.7547   24.4620 C.3     1  UNL1        0.0263
     15 C          -6.3261  -18.5448   22.0233 C.3     1  UNL1        0.2335
     16 O          -4.9348  -18.9705   22.3883 O.3     1  UNL1       -0.4704
     17 C          -3.7536  -18.2736   21.7809 C.ar    1  UNL1        0.1451
     18 C          -3.0314  -17.2100   22.5537 C.ar    1  UNL1        0.0372
     19 C          -1.8501  -16.5130   21.9462 C.ar    1  UNL1        0.0062
     20 C          -1.3911  -16.8797   20.5661 C.ar    1  UNL1        0.0369
     21 C          -2.1133  -17.9433   19.7933 C.ar    1  UNL1        0.1397
     22 O          -1.6543  -18.3100   18.4132 O.3     1  UNL1       -0.5053
     23 C          -3.2946  -18.6402   20.4007 C.ar    1  UNL1        0.1097
     24 H          -0.9165  -17.8746   18.0338 H       1  UNL1        0.2922
     25 C          -4.0168  -19.7038   19.6280 C.2     1  UNL1        0.2402
     26 O          -3.9820  -21.1274   20.0991 O.2     1  UNL1       -0.2829
@<TRIPOS>BOND
     1    12    13    1
     2    13    14    1
     3    13     7    1
     4     7     8   ar
     5     8     9   ar
     6     9    10   ar
     7    10    11   ar
     8    11     1    1
     9     1     2   ar
    10     2     3   ar
    11     3     4   ar
    12     4     5   ar
    13     5     6   ar
    14     6    15    1
    15    15    16    1
    16    16    17    1
    17    17    18   ar
    18    18    19   ar
    19    19    20   ar
    20    20    21   ar
    21    21    22    1
    22    21    23   ar
    23    23    25    1
    24    25    26    2
    25    11     7   ar
    26     6     1   ar
    27    23    17   ar
    28    22    24    1
@<TRIPOS>MOLECULE
*****
 26 28 0 0 0
SMALL
GASTEIGER

@<TRIPOS>ATOM
      1 C          -9.2886  -19.4151   21.4237 C.ar    1  UNL1        0.0981
      2 N         -10.2792  -19.7266   20.3414 N.ar    1  UNL1       -0.2425
      3 C          -9.8122  -19.9121   18.9281 C.ar    1  UNL1        0.0989
      4 C          -8.3546  -19.7861   18.5972 C.ar    1  UNL1        0.0205
      5 C          -7.3640  -19.4747   19.6795 C.ar    1  UNL1        0.0025
      6 C          -7.8310  -19.2891   21.0928 C.ar    1  UNL1        0.0403
      7 N         -10.3816  -17.9895   23.4033 N.ar    1  UNL1       -0.2513
      8 N         -10.6914  -18.2450   24.8485 N.ar    1  UNL1       -0.1677
      9 C         -10.2569  -19.6430   25.1756 C.ar    1  UNL1        0.1217
     10 C          -9.6785  -20.2514   23.9325 C.ar    1  UNL1        0.0427
     11 C          -9.7556  -19.2296   22.8371 C.ar    1  UNL1        0.0967
     12 C          -9.5349  -16.0214   21.9337 C.3     1  UNL1        0.0263
     13 C         -10.6506  -16.7174   22.6554 C.3     1  UNL1        0.1054
     14 C         -12.0352  -16.1412   22.6293 C.3     1  UNL1        0.0263
     15 C          -6.8403  -18.9777   22.1753 C.3     1  UNL1        0.2335
     16 O          -5.4545  -19.5480   22.1104 O.3     1  UNL1       -0.4704
     17 C          -4.2799  -18.6414   21.8903 C.ar    1  UNL1        0.1451
     18 C          -3.9337  -17.6007   22.9136 C.ar    1  UNL1        0.0372
     19 C          -2.7590  -16.6941   22.6934 C.ar    1  UNL1        0.0062
     20 C          -1.9308  -16.8282   21.4501 C.ar    1  UNL1        0.0369
     21 C          -2.2770  -17.8689   20.4269 C.ar    1  UNL1        0.1397
     22 O          -1.4488  -18.0031   19.1835 O.3     1  UNL1       -0.5053
     23 C          -3.4516  -18.7755   20.6470 C.ar    1  UNL1        0.1097
     24 H          -0.7150  -17.4368   19.0460 H       1  UNL1        0.2922
     25 C          -3.7979  -19.8162   19.6237 C.2     1  UNL1        0.2402
     26 O          -3.5981  -21.2699   19.9351 O.2     1  UNL1       -0.2829
@<TRIPOS>BOND
     1    12    13    1
     2    13    14    1
     3    13     7    1
     4     7     8   ar
     5     8     9   ar
     6     9    10   ar
     7    10    11   ar
     8    11     1    1
     9     1     2   ar
    10     2     3   ar
    11     3     4   ar
    12     4     5   ar
    13     5     6   ar
    14     6    15    1
    15    15    16    1
    16    16    17    1
    17    17    18   ar
    18    18    19   ar
    19    19    20   ar
    20    20    21   ar
    21    21    22    1
    22    21    23   ar
    23    23    25    1
    24    25    26    2
    25    11     7   ar
    26     6     1   ar
    27    23    17   ar
    28    22    24    1
@<TRIPOS>MOLECULE
*****
 26 28 0 0 0
SMALL
GASTEIGER

@<TRIPOS>ATOM
      1 C          -5.6379  -18.1072   22.3624 C.ar    1  UNL1        0.0981
      2 N          -4.5244  -17.4891   23.1548 N.ar    1  UNL1       -0.2425
      3 C          -4.7963  -16.3024   24.0308 C.ar    1  UNL1        0.0989
      4 C          -6.1817  -15.7336   24.1145 C.ar    1  UNL1        0.0205
      5 C          -7.2953  -16.3517   23.3222 C.ar    1  UNL1        0.0025
      6 C          -7.0234  -17.5384   22.4461 C.ar    1  UNL1        0.0403
      7 N          -4.1492  -19.5003   20.6337 N.ar    1  UNL1       -0.2513
      8 N          -4.2944  -20.8166   19.9293 N.ar    1  UNL1       -0.1677
      9 C          -5.6010  -21.4240   20.3466 C.ar    1  UNL1        0.1217
     10 C          -6.2633  -20.4829   21.3088 C.ar    1  UNL1        0.0427
     11 C          -5.3661  -19.2940   21.4862 C.ar    1  UNL1        0.0967
     12 C          -1.9028  -18.5613   21.5403 C.3     1  UNL1        0.0263
     13 C          -2.9907  -18.5559   20.5076 C.3     1  UNL1        0.1054
     14 C          -2.9199  -17.6061   19.3488 C.3     1  UNL1        0.0263
     15 C          -8.1370  -18.1566   21.6536 C.3     1  UNL1        0.2335
     16 O          -9.0892  -19.1087   22.3146 O.3     1  UNL1       -0.4704
     17 C         -10.5036  -18.6885   22.5843 C.ar    1  UNL1        0.1451
     18 C         -11.3172  -18.0519   21.4967 C.ar    1  UNL1        0.0372
     19 C         -12.7317  -17.6318   21.7664 C.ar    1  UNL1        0.0062
     20 C         -13.3326  -17.8483   23.1236 C.ar    1  UNL1        0.0369
     21 C         -12.5190  -18.4849   24.2111 C.ar    1  UNL1        0.1397
     22 O         -13.1199  -18.7014   25.5683 O.3     1  UNL1       -0.5053
     23 C         -11.1046  -18.9050   23.9415 C.ar    1  UNL1        0.1097
     24 H         -14.0035  -18.4390   25.7368 H       1  UNL1        0.2922
     25 C         -10.2910  -19.5417   25.0291 C.2     1  UNL1        0.2402
     26 O          -9.6305  -20.8676   24.7932 O.2     1  UNL1       -0.2829
@<TRIPOS>BOND
     1    12    13    1
     2    13    14    1
     3    13     7    1
     4     7     8   ar
     5     8     9   ar
     6     9    10   ar
     7    10    11   ar
     8    11     1    1
     9     1     2   ar
    10     2     3   ar
    11     3     4   ar
    12     4     5   ar
    13     5     6   ar
    14     6    15    1
    15    15    16    1
    16    16    17    1
    17    17    18   ar
    18    18    19   ar
    19    19    20   ar
    20    20    21   ar
    21    21    22    1
    22    21    23   ar
    23    23    25    1
    24    25    26    2
    25    11     7   ar
    26     6     1   ar
    27    23    17   ar
    28    22    24    1
