@<TRIPOS>MOLECULE
*****
 29 32 0 0 0
SMALL
GASTEIGER

@<TRIPOS>ATOM
      1 O          -9.3147  -18.7353   21.5779 O.2     1  UNL1       -0.2734
      2 C          -7.8634  -18.3652   21.6590 C.2     1  UNL1        0.2420
      3 N          -7.3576  -17.5638   22.8218 N.am    1  UNL1       -0.2760
      4 C          -5.9062  -17.1937   22.9029 C.3     1  UNL1        0.0983
      5 C          -5.4004  -16.3924   24.0656 C.3     1  UNL1        0.0476
      6 C          -6.3459  -15.9612   25.1473 C.ar    1  UNL1       -0.0229
      7 C          -5.8401  -15.1599   26.3101 C.ar    1  UNL1       -0.0045
      8 C          -6.7856  -14.7287   27.3917 C.ar    1  UNL1       -0.0003
      9 C          -8.2369  -15.0989   27.3107 C.ar    1  UNL1       -0.0003
     10 C          -8.7428  -15.9001   26.1479 C.ar    1  UNL1       -0.0030
     11 C          -7.7973  -16.3313   25.0663 C.ar    1  UNL1       -0.0082
     12 C          -8.3031  -17.1327   23.9035 C.3     1  UNL1        0.0975
     13 C          -9.7544  -17.5028   23.8224 C.3     1  UNL1        0.0224
     14 C         -10.8179  -16.7443   23.0851 C.3     1  UNL1        0.0020
     15 C         -12.1179  -17.4691   23.2714 C.3     1  UNL1        0.0001
     16 C         -11.8578  -18.6756   24.1238 C.3     1  UNL1        0.0001
     17 C         -10.3971  -18.6964   24.4644 C.3     1  UNL1        0.0020
     18 C          -6.9179  -18.7963   20.5773 C.3     1  UNL1        0.1552
     19 N          -6.0701  -20.0193   20.7659 N.3     1  UNL1       -0.2879
     20 H          -6.5838  -20.7997   20.3566 H       1  UNL1        0.1238
     21 C          -4.6838  -20.0663   20.1947 C.3     1  UNL1        0.0961
     22 C          -3.5901  -19.2462   20.8120 C.3     1  UNL1        0.1027
     23 O          -4.1266  -19.9282   22.0357 O.3     1  UNL1       -0.3854
     24 C          -3.4335  -18.8492   19.3741 C.3     1  UNL1        0.0283
     25 C          -2.3694  -17.8688   18.9784 C.3     1  UNL1        0.0024
     26 C          -1.4619  -17.2855   20.0207 C.3     1  UNL1        0.0002
     27 C          -1.6186  -17.6826   21.4586 C.3     1  UNL1        0.0024
     28 C          -2.6827  -18.6629   21.8544 C.3     1  UNL1        0.0283
     29 H          -4.8617  -20.5096   21.7857 H       1  UNL1        0.2103
@<TRIPOS>BOND
     1     1     2    2
     2     2    18    1
     3    18    19    1
     4    19    21    1
     5    21    22    1
     6    22    23    1
     7    22    24    1
     8    24    25    1
     9    25    26    1
    10    26    27    1
    11    27    28    1
    12     2     3   am
    13     3     4    1
    14     4     5    1
    15     5     6    1
    16     6     7   ar
    17     7     8   ar
    18     8     9   ar
    19     9    10   ar
    20    10    11   ar
    21    11    12    1
    22    12    13    1
    23    13    14    1
    24    14    15    1
    25    15    16    1
    26    16    17    1
    27    28    22    1
    28    12     3    1
    29    17    13    1
    30    11     6   ar
    31    19    20    1
    32    23    29    1
@<TRIPOS>MOLECULE
*****
 29 32 0 0 0
SMALL
GASTEIGER

@<TRIPOS>ATOM
      1 O          -5.8356  -17.4302   23.1224 O.2     1  UNL1       -0.2734
      2 C          -6.3791  -18.3522   22.0714 C.2     1  UNL1        0.2420
      3 N          -7.8490  -18.3655   21.7727 N.am    1  UNL1       -0.2760
      4 C          -8.3925  -19.2875   20.7217 C.3     1  UNL1        0.0983
      5 C          -9.8623  -19.3008   20.4230 C.3     1  UNL1        0.0476
      6 C         -10.7888  -18.3921   21.1753 C.ar    1  UNL1       -0.0229
      7 C         -12.2587  -18.4054   20.8766 C.ar    1  UNL1       -0.0045
      8 C         -13.1851  -17.4967   21.6289 C.ar    1  UNL1       -0.0003
      9 C         -12.6417  -16.5747   22.6799 C.ar    1  UNL1       -0.0003
     10 C         -11.1718  -16.5614   22.9786 C.ar    1  UNL1       -0.0030
     11 C         -10.2454  -17.4701   22.2263 C.ar    1  UNL1       -0.0082
     12 C          -8.7754  -17.4568   22.5250 C.3     1  UNL1        0.0975
     13 C          -8.2320  -16.5348   23.5760 C.3     1  UNL1        0.0224
     14 C          -8.2884  -16.7569   25.0584 C.3     1  UNL1        0.0020
     15 C          -7.6280  -15.5882   25.7277 C.3     1  UNL1        0.0001
     16 C          -7.1634  -14.6438   24.6590 C.3     1  UNL1        0.0001
     17 C          -7.5367  -15.2288   23.3291 C.3     1  UNL1        0.0020
     18 C          -5.4526  -19.2609   21.3191 C.3     1  UNL1        0.1552
     19 N          -4.3770  -20.0078   22.0506 N.3     1  UNL1       -0.2879
     20 H          -4.0827  -20.7714   21.4418 H       1  UNL1        0.1238
     21 C          -3.1306  -19.2946   22.4842 C.3     1  UNL1        0.0961
     22 C          -2.1101  -18.8814   21.4655 C.3     1  UNL1        0.1027
     23 O          -2.1077  -20.3658   21.2493 O.3     1  UNL1       -0.3854
     24 C          -2.4670  -17.5406   22.0354 C.3     1  UNL1        0.0283
     25 C          -1.8025  -16.3020   21.5116 C.3     1  UNL1        0.0024
     26 C          -0.7811  -16.4043   20.4178 C.3     1  UNL1        0.0002
     27 C          -0.4243  -17.7451   19.8479 C.3     1  UNL1        0.0024
     28 C          -1.0887  -18.9836   20.3717 C.3     1  UNL1        0.0283
     29 H          -2.7392  -20.7820   21.8566 H       1  UNL1        0.2103
@<TRIPOS>BOND
     1     1     2    2
     2     2    18    1
     3    18    19    1
     4    19    21    1
     5    21    22    1
     6    22    23    1
     7    22    24    1
     8    24    25    1
     9    25    26    1
    10    26    27    1
    11    27    28    1
    12     2     3   am
    13     3     4    1
    14     4     5    1
    15     5     6    1
    16     6     7   ar
    17     7     8   ar
    18     8     9   ar
    19     9    10   ar
    20    10    11   ar
    21    11    12    1
    22    12    13    1
    23    13    14    1
    24    14    15    1
    25    15    16    1
    26    16    17    1
    27    28    22    1
    28    12     3    1
    29    17    13    1
    30    11     6   ar
    31    19    20    1
    32    23    29    1
@<TRIPOS>MOLECULE
*****
 29 32 0 0 0
SMALL
GASTEIGER

@<TRIPOS>ATOM
      1 O          -5.2628  -18.6210   21.1294 O.2     1  UNL1       -0.2734
      2 C          -6.7055  -18.5971   21.5393 C.2     1  UNL1        0.2420
      3 N          -7.1248  -17.8391   22.7639 N.am    1  UNL1       -0.2760
      4 C          -8.5675  -17.8151   23.1738 C.3     1  UNL1        0.0983
      5 C          -8.9868  -17.0572   24.3984 C.3     1  UNL1        0.0476
      6 C          -7.9634  -16.3230   25.2131 C.ar    1  UNL1       -0.0229
      7 C          -8.3827  -15.5650   26.4377 C.ar    1  UNL1       -0.0045
      8 C          -7.3593  -14.8310   27.2523 C.ar    1  UNL1       -0.0003
      9 C          -5.9166  -14.8549   26.8424 C.ar    1  UNL1       -0.0003
     10 C          -5.4973  -15.6129   25.6179 C.ar    1  UNL1       -0.0030
     11 C          -6.5207  -16.3469   24.8032 C.ar    1  UNL1       -0.0082
     12 C          -6.1014  -17.1050   23.5786 C.3     1  UNL1        0.0975
     13 C          -4.6587  -17.1289   23.1687 C.3     1  UNL1        0.0224
     14 C          -3.6998  -18.2622   23.3833 C.3     1  UNL1        0.0020
     15 C          -2.3700  -17.8574   22.8195 C.3     1  UNL1        0.0001
     16 C          -2.5071  -16.4739   22.2563 C.3     1  UNL1        0.0001
     17 C          -3.9216  -16.0237   22.4722 C.3     1  UNL1        0.0020
     18 C          -7.7290  -19.3312   20.7246 C.3     1  UNL1        0.1552
     19 N          -8.8197  -18.5715   20.0296 N.3     1  UNL1       -0.2879
     20 H          -8.5524  -18.5049   19.0475 H       1  UNL1        0.1238
     21 C         -10.2288  -19.0851   20.0610 C.3     1  UNL1        0.0961
     22 C         -11.1544  -18.6684   21.1653 C.3     1  UNL1        0.1027
     23 O         -11.0790  -20.1428   21.4310 O.3     1  UNL1       -0.3854
     24 C         -10.9083  -17.3388   20.5161 C.3     1  UNL1        0.0283
     25 C         -11.5617  -16.1045   21.0634 C.3     1  UNL1        0.0024
     26 C         -12.4612  -16.1999   22.2600 C.3     1  UNL1        0.0002
     27 C         -12.7073  -17.5295   22.9092 C.3     1  UNL1        0.0024
     28 C         -12.0539  -18.7638   22.3619 C.3     1  UNL1        0.0283
     29 H         -10.4978  -20.5601   20.7760 H       1  UNL1        0.2103
@<TRIPOS>BOND
     1     1     2    2
     2     2    18    1
     3    18    19    1
     4    19    21    1
     5    21    22    1
     6    22    23    1
     7    22    24    1
     8    24    25    1
     9    25    26    1
    10    26    27    1
    11    27    28    1
    12     2     3   am
    13     3     4    1
    14     4     5    1
    15     5     6    1
    16     6     7   ar
    17     7     8   ar
    18     8     9   ar
    19     9    10   ar
    20    10    11   ar
    21    11    12    1
    22    12    13    1
    23    13    14    1
    24    14    15    1
    25    15    16    1
    26    16    17    1
    27    28    22    1
    28    12     3    1
    29    17    13    1
    30    11     6   ar
    31    19    20    1
    32    23    29    1
@<TRIPOS>MOLECULE
*****
 29 32 0 0 0
SMALL
GASTEIGER

@<TRIPOS>ATOM
      1 O          -6.0836  -16.5794   24.9435 O.2     1  UNL1       -0.2734
      2 C          -6.1173  -17.1928   23.5751 C.2     1  UNL1        0.2420
      3 N          -7.4324  -17.5221   22.9330 N.am    1  UNL1       -0.2760
      4 C          -7.4661  -18.1354   21.5645 C.3     1  UNL1        0.0983
      5 C          -8.7810  -18.4647   20.9224 C.3     1  UNL1        0.0476
      6 C         -10.0624  -18.1807   21.6487 C.ar    1  UNL1       -0.0229
      7 C         -11.3774  -18.5101   21.0066 C.ar    1  UNL1       -0.0045
      8 C         -12.6586  -18.2260   21.7330 C.ar    1  UNL1       -0.0003
      9 C         -12.6249  -17.6127   23.1014 C.ar    1  UNL1       -0.0003
     10 C         -11.3100  -17.2834   23.7436 C.ar    1  UNL1       -0.0030
     11 C         -10.0287  -17.5674   23.0172 C.ar    1  UNL1       -0.0082
     12 C          -8.7136  -17.2381   23.6593 C.3     1  UNL1        0.0975
     13 C          -8.6799  -16.6247   25.0278 C.3     1  UNL1        0.0224
     14 C          -8.6375  -15.1573   25.3355 C.3     1  UNL1        0.0020
     15 C          -8.6141  -14.9967   26.8267 C.3     1  UNL1        0.0001
     16 C          -8.6421  -16.3651   27.4406 C.3     1  UNL1        0.0001
     17 C          -8.6828  -17.3712   26.3288 C.3     1  UNL1        0.0020
     18 C          -4.8360  -17.4768   22.8487 C.3     1  UNL1        0.1552
     19 N          -3.5715  -17.7089   23.6214 N.3     1  UNL1       -0.2879
     20 H          -3.7447  -18.5027   24.2380 H       1  UNL1        0.1238
     21 C          -2.2908  -17.9961   22.8951 C.3     1  UNL1        0.0961
     22 C          -2.1945  -17.7503   21.4186 C.3     1  UNL1        0.1027
     23 O          -1.6000  -16.4734   21.9345 O.3     1  UNL1       -0.3854
     24 C          -2.8224  -19.1125   21.4154 C.3     1  UNL1        0.0283
     25 C          -3.1475  -19.7855   20.1149 C.3     1  UNL1        0.0024
     26 C          -2.8448  -19.0961   18.8175 C.3     1  UNL1        0.0002
     27 C          -2.2169  -17.7339   18.8206 C.3     1  UNL1        0.0024
     28 C          -1.8917  -17.0610   20.1212 C.3     1  UNL1        0.0283
     29 H          -1.5954  -16.4876   22.9044 H       1  UNL1        0.2103
@<TRIPOS>BOND
     1     1     2    2
     2     2    18    1
     3    18    19    1
     4    19    21    1
     5    21    22    1
     6    22    23    1
     7    22    24    1
     8    24    25    1
     9    25    26    1
    10    26    27    1
    11    27    28    1
    12     2     3   am
    13     3     4    1
    14     4     5    1
    15     5     6    1
    16     6     7   ar
    17     7     8   ar
    18     8     9   ar
    19     9    10   ar
    20    10    11   ar
    21    11    12    1
    22    12    13    1
    23    13    14    1
    24    14    15    1
    25    15    16    1
    26    16    17    1
    27    28    22    1
    28    12     3    1
    29    17    13    1
    30    11     6   ar
    31    19    20    1
    32    23    29    1
@<TRIPOS>MOLECULE
*****
 29 32 0 0 0
SMALL
GASTEIGER

@<TRIPOS>ATOM
      1 O          -7.4244  -17.9018   23.7826 O.2     1  UNL1       -0.2734
      2 C          -7.1249  -18.8536   22.6626 C.2     1  UNL1        0.2420
      3 N          -5.8051  -18.7852   21.9529 N.am    1  UNL1       -0.2760
      4 C          -5.5056  -19.7370   20.8329 C.3     1  UNL1        0.0983
      5 C          -4.1859  -19.6687   20.1233 C.3     1  UNL1        0.0476
      6 C          -3.1657  -18.6484   20.5336 C.ar    1  UNL1       -0.0229
      7 C          -1.8460  -18.5801   19.8239 C.ar    1  UNL1       -0.0045
      8 C          -0.8258  -17.5599   20.2342 C.ar    1  UNL1       -0.0003
      9 C          -1.1253  -16.6081   21.3542 C.ar    1  UNL1       -0.0003
     10 C          -2.4450  -16.6764   22.0638 C.ar    1  UNL1       -0.0030
     11 C          -3.4652  -17.6966   21.6535 C.ar    1  UNL1       -0.0082
     12 C          -4.7850  -17.7650   22.3632 C.3     1  UNL1        0.0975
     13 C          -5.0845  -16.8132   23.4832 C.3     1  UNL1        0.0224
     14 C          -5.8728  -15.5419   23.3728 C.3     1  UNL1        0.0020
     15 C          -5.9238  -14.9086   24.7316 C.3     1  UNL1        0.0001
     16 C          -5.1670  -15.7885   25.6818 C.3     1  UNL1        0.0001
     17 C          -4.6483  -16.9656   24.9102 C.3     1  UNL1        0.0020
     18 C          -8.1451  -19.8738   22.2523 C.3     1  UNL1        0.1552
     19 N          -9.3423  -20.1280   23.1194 N.3     1  UNL1       -0.2879
     20 H          -9.2687  -19.4951   23.9159 H       1  UNL1        0.1238
     21 C         -10.7236  -19.9601   22.5590 C.3     1  UNL1        0.0961
     22 C         -11.4153  -18.6326   22.6543 C.3     1  UNL1        0.1027
     23 O         -11.4040  -19.0248   24.1021 O.3     1  UNL1       -0.3854
     24 C         -11.1865  -18.7015   21.1735 C.3     1  UNL1        0.0283
     25 C         -11.6454  -17.5790   20.2906 C.3     1  UNL1        0.0024
     26 C         -12.3332  -16.3876   20.8887 C.3     1  UNL1        0.0002
     27 C         -12.5621  -16.3187   22.3695 C.3     1  UNL1        0.0024
     28 C         -12.1031  -17.4412   23.2523 C.3     1  UNL1        0.0283
     29 H         -10.9745  -19.8890   24.1996 H       1  UNL1        0.2103
@<TRIPOS>BOND
     1     1     2    2
     2     2    18    1
     3    18    19    1
     4    19    21    1
     5    21    22    1
     6    22    23    1
     7    22    24    1
     8    24    25    1
     9    25    26    1
    10    26    27    1
    11    27    28    1
    12     2     3   am
    13     3     4    1
    14     4     5    1
    15     5     6    1
    16     6     7   ar
    17     7     8   ar
    18     8     9   ar
    19     9    10   ar
    20    10    11   ar
    21    11    12    1
    22    12    13    1
    23    13    14    1
    24    14    15    1
    25    15    16    1
    26    16    17    1
    27    28    22    1
    28    12     3    1
    29    17    13    1
    30    11     6   ar
    31    19    20    1
    32    23    29    1
@<TRIPOS>MOLECULE
*****
 29 32 0 0 0
SMALL
GASTEIGER

@<TRIPOS>ATOM
      1 O         -10.4875   -4.6285   16.9064 O.2     1  UNL1       -0.2734
      2 C         -11.7813   -3.9245   16.6228 C.2     1  UNL1        0.2420
      3 N         -13.0841   -4.5779   16.9776 N.am    1  UNL1       -0.2760
      4 C         -14.3779   -3.8739   16.6940 C.3     1  UNL1        0.0983
      5 C         -15.6807   -4.5273   17.0488 C.3     1  UNL1        0.0476
      6 C         -15.6897   -5.8847   17.6871 C.ar    1  UNL1       -0.0229
      7 C         -16.9925   -6.5380   18.0419 C.ar    1  UNL1       -0.0045
      8 C         -17.0014   -7.8953   18.6802 C.ar    1  UNL1       -0.0003
      9 C         -15.7076   -8.5993   18.9638 C.ar    1  UNL1       -0.0003
     10 C         -14.4048   -7.9460   18.6091 C.ar    1  UNL1       -0.0030
     11 C         -14.3959   -6.5887   17.9707 C.ar    1  UNL1       -0.0082
     12 C         -13.0931   -5.9353   17.6160 C.3     1  UNL1        0.0975
     13 C         -11.7992   -6.6393   17.8995 C.3     1  UNL1        0.0224
     14 C         -11.1413   -7.6623   17.0218 C.3     1  UNL1        0.0020
     15 C          -9.8716   -8.0992   17.6904 C.3     1  UNL1        0.0001
     16 C          -9.7448   -7.3461   18.9815 C.3     1  UNL1        0.0001
     17 C         -10.9362   -6.4438   19.1107 C.3     1  UNL1        0.0020
     18 C         -11.7723   -2.5672   15.9845 C.3     1  UNL1        0.1552
     19 N         -11.5795   -1.3426   16.8289 N.3     1  UNL1       -0.2879
     20 H         -12.4160   -0.7705   16.7132 H       1  UNL1        0.1238
     21 C         -11.3483   -1.4780   18.3048 C.3     1  UNL1        0.0961
     22 C         -12.3770   -2.1479   19.1668 C.3     1  UNL1        0.1027
     23 O         -11.1949   -3.0305   19.4384 O.3     1  UNL1       -0.3854
     24 C         -13.2017   -1.0327   18.5958 C.3     1  UNL1        0.0283
     25 C         -14.6447   -0.8938   18.9811 C.3     1  UNL1        0.0024
     26 C         -15.2629   -1.8701   19.9375 C.3     1  UNL1        0.0002
     27 C         -14.4382   -2.9853   20.5085 C.3     1  UNL1        0.0024
     28 C         -12.9952   -3.1242   20.1231 C.3     1  UNL1        0.0283
     29 H         -10.4303   -2.7112   18.9341 H       1  UNL1        0.2103
@<TRIPOS>BOND
     1     1     2    2
     2     2    18    1
     3    18    19    1
     4    19    21    1
     5    21    22    1
     6    22    23    1
     7    22    24    1
     8    24    25    1
     9    25    26    1
    10    26    27    1
    11    27    28    1
    12     2     3   am
    13     3     4    1
    14     4     5    1
    15     5     6    1
    16     6     7   ar
    17     7     8   ar
    18     8     9   ar
    19     9    10   ar
    20    10    11   ar
    21    11    12    1
    22    12    13    1
    23    13    14    1
    24    14    15    1
    25    15    16    1
    26    16    17    1
    27    28    22    1
    28    12     3    1
    29    17    13    1
    30    11     6   ar
    31    19    20    1
    32    23    29    1
@<TRIPOS>MOLECULE
*****
 29 32 0 0 0
SMALL
GASTEIGER

@<TRIPOS>ATOM
      1 O          -8.5448  -19.3198   19.7717 O.2     1  UNL1       -0.2734
      2 C          -9.2133  -18.1222   20.3789 C.2     1  UNL1        0.2420
      3 N          -8.5342  -17.3615   21.4790 N.am    1  UNL1       -0.2760
      4 C          -9.2027  -16.1638   22.0862 C.3     1  UNL1        0.0983
      5 C          -8.5236  -15.4031   23.1862 C.3     1  UNL1        0.0476
      6 C          -7.1759  -15.8401   23.6791 C.ar    1  UNL1       -0.0229
      7 C          -6.4968  -15.0794   24.7792 C.ar    1  UNL1       -0.0045
      8 C          -5.1491  -15.5164   25.2720 C.ar    1  UNL1       -0.0003
      9 C          -4.4806  -16.7140   24.6647 C.ar    1  UNL1       -0.0003
     10 C          -5.1597  -17.4747   23.5647 C.ar    1  UNL1       -0.0030
     11 C          -6.5073  -17.0377   23.0719 C.ar    1  UNL1       -0.0082
     12 C          -7.1865  -17.7984   21.9718 C.3     1  UNL1        0.0975
     13 C          -6.5180  -18.9961   21.3646 C.3     1  UNL1        0.0224
     14 C          -6.7075  -20.4219   21.7901 C.3     1  UNL1        0.0020
     15 C          -5.8492  -21.2852   20.9137 C.3     1  UNL1        0.0001
     16 C          -5.1293  -20.3930   19.9465 C.3     1  UNL1        0.0001
     17 C          -5.5426  -18.9782   20.2252 C.3     1  UNL1        0.0020
     18 C         -10.5610  -17.6852   19.8861 C.3     1  UNL1        0.1552
     19 N         -11.7945  -18.4138   20.3305 N.3     1  UNL1       -0.2879
     20 H         -11.7342  -19.3566   19.9461 H       1  UNL1        0.1238
     21 C         -12.0925  -18.5608   21.7933 C.3     1  UNL1        0.0961
     22 C         -11.1945  -19.3908   22.6620 C.3     1  UNL1        0.1027
     23 O         -11.3468  -20.3129   21.4886 O.3     1  UNL1       -0.3854
     24 C         -11.3541  -18.1806   23.5336 C.3     1  UNL1        0.0283
     25 C         -10.6686  -18.1205   24.8664 C.3     1  UNL1        0.0024
     26 C          -9.8234  -19.2708   25.3276 C.3     1  UNL1        0.0002
     27 C          -9.6638  -20.4810   24.4560 C.3     1  UNL1        0.0024
     28 C         -10.3493  -20.5411   23.1232 C.3     1  UNL1        0.0283
     29 H         -11.9192  -19.8987   20.8240 H       1  UNL1        0.2103
@<TRIPOS>BOND
     1     1     2    2
     2     2    18    1
     3    18    19    1
     4    19    21    1
     5    21    22    1
     6    22    23    1
     7    22    24    1
     8    24    25    1
     9    25    26    1
    10    26    27    1
    11    27    28    1
    12     2     3   am
    13     3     4    1
    14     4     5    1
    15     5     6    1
    16     6     7   ar
    17     7     8   ar
    18     8     9   ar
    19     9    10   ar
    20    10    11   ar
    21    11    12    1
    22    12    13    1
    23    13    14    1
    24    14    15    1
    25    15    16    1
    26    16    17    1
    27    28    22    1
    28    12     3    1
    29    17    13    1
    30    11     6   ar
    31    19    20    1
    32    23    29    1
@<TRIPOS>MOLECULE
*****
 29 32 0 0 0
SMALL
GASTEIGER

@<TRIPOS>ATOM
      1 O          -9.2491  -17.8358   21.9500 O.2     1  UNL1       -0.2734
      2 C          -8.5139  -18.7876   21.0536 C.2     1  UNL1        0.2420
      3 N          -7.0255  -18.9321   21.1728 N.am    1  UNL1       -0.2760
      4 C          -6.2903  -19.8839   20.2765 C.3     1  UNL1        0.0983
      5 C          -4.8020  -20.0284   20.3956 C.3     1  UNL1        0.0476
      6 C          -4.0490  -19.2211   21.4111 C.ar    1  UNL1       -0.0229
      7 C          -2.5608  -19.3656   21.5302 C.ar    1  UNL1       -0.0045
      8 C          -1.8078  -18.5582   22.5457 C.ar    1  UNL1       -0.0003
      9 C          -2.5431  -17.6064   23.4420 C.ar    1  UNL1       -0.0003
     10 C          -4.0313  -17.4619   23.3229 C.ar    1  UNL1       -0.0030
     11 C          -4.7843  -18.2692   22.3074 C.ar    1  UNL1       -0.0082
     12 C          -6.2726  -18.1248   22.1883 C.3     1  UNL1        0.0975
     13 C          -7.0078  -17.1729   23.0846 C.3     1  UNL1        0.0224
     14 C          -7.8497  -17.5482   24.2680 C.3     1  UNL1        0.0020
     15 C          -8.3925  -16.2859   24.8697 C.3     1  UNL1        0.0001
     16 C          -7.8861  -15.1305   24.0582 C.3     1  UNL1        0.0001
     17 C          -7.0303  -15.6787   22.9550 C.3     1  UNL1        0.0020
     18 C          -9.2668  -19.5949   20.0381 C.3     1  UNL1        0.1552
     19 N         -10.7615  -19.4964   19.9604 N.3     1  UNL1       -0.2879
     20 H         -11.1217  -19.7532   20.8795 H       1  UNL1        0.1238
     21 C         -11.4092  -18.1952   19.5895 C.3     1  UNL1        0.0961
     22 C         -11.6819  -17.1654   20.6455 C.3     1  UNL1        0.1027
     23 O         -10.8893  -16.3402   19.6754 O.3     1  UNL1       -0.3854
     24 C         -12.3797  -18.3482   21.2487 C.3     1  UNL1        0.0283
     25 C         -13.0751  -18.2146   22.5710 C.3     1  UNL1        0.0024
     26 C         -13.0726  -16.8982   23.2901 C.3     1  UNL1        0.0002
     27 C         -12.3748  -15.7154   22.6869 C.3     1  UNL1        0.0024
     28 C         -11.6794  -15.8490   21.3646 C.3     1  UNL1        0.0283
     29 H         -10.6348  -16.8886   18.9169 H       1  UNL1        0.2103
@<TRIPOS>BOND
     1     1     2    2
     2     2    18    1
     3    18    19    1
     4    19    21    1
     5    21    22    1
     6    22    23    1
     7    22    24    1
     8    24    25    1
     9    25    26    1
    10    26    27    1
    11    27    28    1
    12     2     3   am
    13     3     4    1
    14     4     5    1
    15     5     6    1
    16     6     7   ar
    17     7     8   ar
    18     8     9   ar
    19     9    10   ar
    20    10    11   ar
    21    11    12    1
    22    12    13    1
    23    13    14    1
    24    14    15    1
    25    15    16    1
    26    16    17    1
    27    28    22    1
    28    12     3    1
    29    17    13    1
    30    11     6   ar
    31    19    20    1
    32    23    29    1
@<TRIPOS>MOLECULE
*****
 29 32 0 0 0
SMALL
GASTEIGER

@<TRIPOS>ATOM
      1 O           6.3391   -4.3119   21.9702 O.2     1  UNL1       -0.2734
      2 C           6.0477   -3.5656   23.2383 C.2     1  UNL1        0.2420
      3 N           4.9676   -2.5250   23.2649 N.am    1  UNL1       -0.2760
      4 C           4.6763   -1.7787   24.5330 C.3     1  UNL1        0.0983
      5 C           3.5962   -0.7381   24.5595 C.3     1  UNL1        0.0476
      6 C           2.8075   -0.4439   23.3180 C.ar    1  UNL1       -0.0229
      7 C           1.7274    0.5967   23.3446 C.ar    1  UNL1       -0.0045
      8 C           0.9388    0.8908   22.1031 C.ar    1  UNL1       -0.0003
      9 C           1.2301    0.1445   20.8350 C.ar    1  UNL1       -0.0003
     10 C           2.3102   -0.8960   20.8084 C.ar    1  UNL1       -0.0030
     11 C           3.0989   -1.1902   22.0499 C.ar    1  UNL1       -0.0082
     12 C           4.1790   -2.2308   22.0233 C.3     1  UNL1        0.0975
     13 C           4.4703   -2.9771   20.7552 C.3     1  UNL1        0.0224
     14 C           5.3998   -2.5335   19.6648 C.3     1  UNL1        0.0020
     15 C           5.3873   -3.5803   18.5905 C.3     1  UNL1        0.0001
     16 C           4.4501   -4.6710   19.0171 C.3     1  UNL1        0.0001
     17 C           3.8834   -4.2982   20.3549 C.3     1  UNL1        0.0020
     18 C           6.8364   -3.8598   24.4798 C.3     1  UNL1        0.1552
     19 N           6.2060   -4.6257   25.6049 N.3     1  UNL1       -0.2879
     20 H           5.4261   -5.1476   25.2051 H       1  UNL1        0.1238
     21 C           7.0222   -5.6049   26.3956 C.3     1  UNL1        0.0961
     22 C           7.0821   -5.4968   27.8905 C.3     1  UNL1        0.1027
     23 O           5.6175   -5.7645   27.7071 O.3     1  UNL1       -0.3854
     24 C           8.5257   -5.2666   27.5546 C.3     1  UNL1        0.0283
     25 C           9.5207   -5.0213   28.6500 C.3     1  UNL1        0.0024
     26 C           9.0719   -5.0061   30.0812 C.3     1  UNL1        0.0002
     27 C           7.6283   -5.2363   30.4171 C.3     1  UNL1        0.0024
     28 C           6.6333   -5.4816   29.3217 C.3     1  UNL1        0.0283
     29 H           5.4222   -5.8604   26.7619 H       1  UNL1        0.2103
@<TRIPOS>BOND
     1     1     2    2
     2     2    18    1
     3    18    19    1
     4    19    21    1
     5    21    22    1
     6    22    23    1
     7    22    24    1
     8    24    25    1
     9    25    26    1
    10    26    27    1
    11    27    28    1
    12     2     3   am
    13     3     4    1
    14     4     5    1
    15     5     6    1
    16     6     7   ar
    17     7     8   ar
    18     8     9   ar
    19     9    10   ar
    20    10    11   ar
    21    11    12    1
    22    12    13    1
    23    13    14    1
    24    14    15    1
    25    15    16    1
    26    16    17    1
    27    28    22    1
    28    12     3    1
    29    17    13    1
    30    11     6   ar
    31    19    20    1
    32    23    29    1
