@<TRIPOS>MOLECULE
*****
 36 41 0 0 0
SMALL
GASTEIGER

@<TRIPOS>ATOM
      1 C           8.3102   -8.6176   27.3927 C.ar    1  UNL1       -0.0065
      2 C           8.1309   -7.5579   28.4391 C.ar    1  UNL1       -0.0029
      3 C           7.8747   -6.1373   28.0316 C.ar    1  UNL1        0.0010
      4 C           7.7977   -5.7763   26.5777 C.ar    1  UNL1        0.0167
      5 C           7.9769   -6.8360   25.5314 C.ar    1  UNL1       -0.0206
      6 C           8.2332   -8.2566   25.9388 C.ar    1  UNL1       -0.0071
      7 C           7.9000   -6.4750   24.0775 C.3     1  UNL1        0.0312
      8 C           7.6437   -5.0544   23.6700 C.3     1  UNL1        0.0360
      9 C           7.4644   -3.9946   24.7164 C.ar    1  UNL1        0.0392
     10 C           7.5414   -4.3556   26.1703 C.ar    1  UNL1        0.1187
     11 N           7.3261   -3.1052   26.9704 N.ar    1  UNL1       -0.0772
     12 O           7.1160   -1.9715   26.0110 O.2     1  UNL1       -0.3505
     13 C           7.2015   -2.5211   24.6180 C.ar    1  UNL1        0.2097
     14 C           7.0506   -1.7353   23.3492 C.ar    1  UNL1        0.2173
     15 O           7.8653   -0.5409   22.9497 O.2     1  UNL1       -0.3502
     16 N           7.3766   -0.0733   21.6108 N.ar    1  UNL1       -0.0769
     17 C           6.2599   -0.9788   21.1829 C.ar    1  UNL1        0.1270
     18 C           6.0584   -2.0060   22.2573 C.ar    1  UNL1        0.1323
     19 C           5.4815   -0.8753   19.9049 C.ar    1  UNL1        0.0209
     20 C           4.4120    0.1665   19.7605 C.ar    1  UNL1        0.0016
     21 C           3.6335    0.2700   18.4825 C.ar    1  UNL1        0.0000
     22 C           3.9246   -0.6683   17.3489 C.ar    1  UNL1        0.0000
     23 C           4.9940   -1.7100   17.4933 C.ar    1  UNL1        0.0000
     24 C           5.7725   -1.8136   18.7713 C.ar    1  UNL1        0.0016
     25 C           5.0431   -3.1099   22.2423 C.3     1  UNL1        0.4231
     26 F           4.0276   -4.2138   22.2274 F       1  UNL1       -0.1657
     27 F           4.1721   -2.3214   23.1750 F       1  UNL1       -0.1657
     28 F           5.9140   -3.8984   21.3096 F       1  UNL1       -0.1657
     29 C           8.5665  -10.0383   27.8002 C.3     1  UNL1        0.0992
     30 C           5.8105  -12.3732   28.0582 C.3     1  UNL1        0.0684
     31 C           7.2919  -12.4523   28.2796 C.3     1  UNL1        0.0793
     32 N           7.4249  -11.0054   27.9070 N.3     1  UNL1       -0.2682
     33 C           5.9435  -10.9263   27.6856 C.3     1  UNL1        0.0793
     34 O           3.7600  -13.2990   29.3575 O.co2   1  UNL1       -0.5491
     35 C           4.6688  -13.3404   28.1650 C.2     1  UNL1        0.0527
     36 O           4.4362  -14.3489   27.0793 O.co2   1  UNL1       -0.5491
@<TRIPOS>UNITY_ATOM_ATTR
34 1
charge -1
@<TRIPOS>BOND
     1    34    35   ar
     2    35    36   ar
     3    35    30    1
     4    30    31    1
     5    31    32    1
     6    32    29    1
     7    29     1    1
     8     1     2   ar
     9     2     3   ar
    10     3     4   ar
    11     4     5   ar
    12     5     6   ar
    13     5     7    1
    14     7     8    1
    15     8     9    1
    16     9    10   ar
    17    10    11   ar
    18    11    12   ar
    19    12    13   ar
    20    13    14    1
    21    14    15   ar
    22    15    16   ar
    23    16    17   ar
    24    17    19    1
    25    19    20   ar
    26    20    21   ar
    27    21    22   ar
    28    22    23   ar
    29    23    24   ar
    30    17    18   ar
    31    18    25    1
    32    25    26    1
    33    25    27    1
    34    25    28    1
    35    32    33    1
    36    33    30    1
    37     6     1   ar
    38    13     9   ar
    39    18    14   ar
    40    10     4    1
    41    24    19   ar
@<TRIPOS>MOLECULE
*****
 36 41 0 0 0
SMALL
GASTEIGER

@<TRIPOS>ATOM
      1 C           4.5139   -1.1990   18.3523 C.ar    1  UNL1       -0.0065
      2 C           4.6428    0.1502   17.7097 C.ar    1  UNL1       -0.0029
      3 C           3.6163    1.2103   17.9788 C.ar    1  UNL1        0.0010
      4 C           2.4608    0.9212   18.8906 C.ar    1  UNL1        0.0167
      5 C           2.3319   -0.4280   19.5333 C.ar    1  UNL1       -0.0206
      6 C           3.3584   -1.4881   19.2641 C.ar    1  UNL1       -0.0071
      7 C           1.1764   -0.7171   20.4450 C.3     1  UNL1        0.0312
      8 C           0.1499    0.3429   20.7142 C.3     1  UNL1        0.0360
      9 C           0.2788    1.6922   20.0715 C.ar    1  UNL1        0.0392
     10 C           1.4343    1.9813   19.1597 C.ar    1  UNL1        0.1187
     11 N           1.2985    3.3936   18.6729 N.ar    1  UNL1       -0.0772
     12 O           0.0591    3.9773   19.2838 O.2     1  UNL1       -0.3505
     13 C          -0.5711    2.9258   20.1482 C.ar    1  UNL1        0.2097
     14 C          -1.8301    3.0807   20.9487 C.ar    1  UNL1        0.2173
     15 O          -3.2224    2.8030   20.4647 O.2     1  UNL1       -0.3502
     16 N          -4.1707    3.0912   21.5907 N.ar    1  UNL1       -0.0769
     17 C          -3.3643    3.5469   22.7706 C.ar    1  UNL1        0.1270
     18 C          -1.9178    3.5404   22.3738 C.ar    1  UNL1        0.1323
     19 C          -3.9090    3.9400   24.1118 C.ar    1  UNL1        0.0209
     20 C          -3.1824    3.5421   25.3622 C.ar    1  UNL1        0.0016
     21 C          -3.7271    3.9352   26.7034 C.ar    1  UNL1        0.0000
     22 C          -4.9983    4.7263   26.7941 C.ar    1  UNL1        0.0000
     23 C          -5.7249    5.1242   25.5437 C.ar    1  UNL1        0.0000
     24 C          -5.1802    4.7311   24.2025 C.ar    1  UNL1        0.0016
     25 C          -0.7620    3.9259   23.2486 C.3     1  UNL1        0.4231
     26 F           0.3939    4.3116   24.1234 F       1  UNL1       -0.1657
     27 F          -1.0492    5.3752   22.9894 F       1  UNL1       -0.1657
     28 F          -0.4747    2.4767   23.5079 F       1  UNL1       -0.1657
     29 C           5.5404   -2.2591   18.0832 C.3     1  UNL1        0.0992
     30 C           7.3100   -3.8069   20.8376 C.3     1  UNL1        0.0684
     31 C           5.9274   -3.9211   20.2672 C.3     1  UNL1        0.0793
     32 N           6.2734   -2.9002   19.2241 N.3     1  UNL1       -0.2682
     33 C           7.6560   -2.7860   19.7945 C.3     1  UNL1        0.0793
     34 O           8.4109   -3.6356   23.1847 O.co2   1  UNL1       -0.5491
     35 C           8.0431   -4.4479   21.9786 C.2     1  UNL1        0.0527
     36 O           8.4082   -5.9014   21.9133 O.co2   1  UNL1       -0.5491
@<TRIPOS>UNITY_ATOM_ATTR
34 1
charge -1
@<TRIPOS>BOND
     1    34    35   ar
     2    35    36   ar
     3    35    30    1
     4    30    31    1
     5    31    32    1
     6    32    29    1
     7    29     1    1
     8     1     2   ar
     9     2     3   ar
    10     3     4   ar
    11     4     5   ar
    12     5     6   ar
    13     5     7    1
    14     7     8    1
    15     8     9    1
    16     9    10   ar
    17    10    11   ar
    18    11    12   ar
    19    12    13   ar
    20    13    14    1
    21    14    15   ar
    22    15    16   ar
    23    16    17   ar
    24    17    19    1
    25    19    20   ar
    26    20    21   ar
    27    21    22   ar
    28    22    23   ar
    29    23    24   ar
    30    17    18   ar
    31    18    25    1
    32    25    26    1
    33    25    27    1
    34    25    28    1
    35    32    33    1
    36    33    30    1
    37     6     1   ar
    38    13     9   ar
    39    18    14   ar
    40    10     4    1
    41    24    19   ar
@<TRIPOS>MOLECULE
*****
 36 41 0 0 0
SMALL
GASTEIGER

@<TRIPOS>ATOM
      1 C           4.5912   -1.0011   18.3271 C.ar    1  UNL1       -0.0065
      2 C           5.9871   -1.2609   17.8436 C.ar    1  UNL1       -0.0029
      3 C           6.9100   -2.1281   18.6474 C.ar    1  UNL1        0.0010
      4 C           6.4370   -2.7355   19.9348 C.ar    1  UNL1        0.0167
      5 C           5.0411   -2.4756   20.4183 C.ar    1  UNL1       -0.0206
      6 C           4.1182   -1.6084   19.6145 C.ar    1  UNL1       -0.0071
      7 C           4.5681   -3.0830   21.7057 C.3     1  UNL1        0.0312
      8 C           5.4910   -3.9502   22.5095 C.3     1  UNL1        0.0360
      9 C           6.8870   -4.2101   22.0260 C.ar    1  UNL1        0.0392
     10 C           7.3600   -3.6028   20.7386 C.ar    1  UNL1        0.1187
     11 N           8.7794   -4.0340   20.5166 N.ar    1  UNL1       -0.0772
     12 O           9.1836   -4.9078   21.6668 O.2     1  UNL1       -0.3505
     13 C           8.0141   -5.0167   22.5996 C.ar    1  UNL1        0.2097
     14 C           7.9779   -5.7954   23.8812 C.ar    1  UNL1        0.2173
     15 O           7.9576   -7.2902   24.0043 O.2     1  UNL1       -0.3502
     16 N           7.9228   -7.6347   25.4638 N.ar    1  UNL1       -0.0769
     17 C           7.9217   -6.3527   26.2427 C.ar    1  UNL1        0.1270
     18 C           7.9557   -5.2160   25.2646 C.ar    1  UNL1        0.1323
     19 C           7.8917   -6.2292   27.7373 C.ar    1  UNL1        0.0209
     20 C           9.0165   -6.7863   28.5585 C.ar    1  UNL1        0.0016
     21 C           8.9866   -6.6628   30.0531 C.ar    1  UNL1        0.0000
     22 C           7.8319   -5.9822   30.7265 C.ar    1  UNL1        0.0000
     23 C           6.7071   -5.4251   29.9053 C.ar    1  UNL1        0.0000
     24 C           6.7370   -5.5486   28.4107 C.ar    1  UNL1        0.0016
     25 C           7.9658   -3.7562   25.6093 C.3     1  UNL1        0.4231
     26 F           7.9760   -2.2964   25.9541 F       1  UNL1       -0.1657
     27 F           9.4659   -3.7674   25.6124 F       1  UNL1       -0.1657
     28 F           6.4659   -3.7450   25.6063 F       1  UNL1       -0.1657
     29 C           3.6683   -0.1338   17.5233 C.3     1  UNL1        0.0992
     30 C           1.1436    1.8564   19.1904 C.3     1  UNL1        0.0684
     31 C           2.6344    1.9388   19.0455 C.3     1  UNL1        0.0793
     32 N           2.6225    0.6905   18.2138 N.3     1  UNL1       -0.2682
     33 C           1.1318    0.6081   18.3587 C.3     1  UNL1        0.0793
     34 O          -0.9177    2.0177   20.7635 O.co2   1  UNL1       -0.5491
     35 C           0.0978    2.6807   19.8809 C.2     1  UNL1        0.0527
     36 O           0.0676    4.1681   19.6888 O.co2   1  UNL1       -0.5491
@<TRIPOS>UNITY_ATOM_ATTR
34 1
charge -1
@<TRIPOS>BOND
     1    34    35   ar
     2    35    36   ar
     3    35    30    1
     4    30    31    1
     5    31    32    1
     6    32    29    1
     7    29     1    1
     8     1     2   ar
     9     2     3   ar
    10     3     4   ar
    11     4     5   ar
    12     5     6   ar
    13     5     7    1
    14     7     8    1
    15     8     9    1
    16     9    10   ar
    17    10    11   ar
    18    11    12   ar
    19    12    13   ar
    20    13    14    1
    21    14    15   ar
    22    15    16   ar
    23    16    17   ar
    24    17    19    1
    25    19    20   ar
    26    20    21   ar
    27    21    22   ar
    28    22    23   ar
    29    23    24   ar
    30    17    18   ar
    31    18    25    1
    32    25    26    1
    33    25    27    1
    34    25    28    1
    35    32    33    1
    36    33    30    1
    37     6     1   ar
    38    13     9   ar
    39    18    14   ar
    40    10     4    1
    41    24    19   ar
@<TRIPOS>MOLECULE
*****
 36 41 0 0 0
SMALL
GASTEIGER

@<TRIPOS>ATOM
      1 C           7.4005   -5.7834   28.9271 C.ar    1  UNL1       -0.0065
      2 C           7.8539   -7.0192   28.2078 C.ar    1  UNL1       -0.0029
      3 C           8.0120   -7.0033   26.7163 C.ar    1  UNL1        0.0010
      4 C           7.7168   -5.7517   25.9440 C.ar    1  UNL1        0.0167
      5 C           7.2635   -4.5160   26.6633 C.ar    1  UNL1       -0.0206
      6 C           7.1053   -4.5318   28.1548 C.ar    1  UNL1       -0.0071
      7 C           6.9683   -3.2644   25.8910 C.3     1  UNL1        0.0312
      8 C           7.1264   -3.2486   24.3995 C.3     1  UNL1        0.0360
      9 C           7.5798   -4.4844   23.6801 C.ar    1  UNL1        0.0392
     10 C           7.8750   -5.7360   24.4524 C.ar    1  UNL1        0.1187
     11 N           8.3020   -6.7926   23.4771 N.ar    1  UNL1       -0.0772
     12 O           8.2707   -6.1940   22.1021 O.2     1  UNL1       -0.3505
     13 C           7.8244   -4.7675   22.2275 C.ar    1  UNL1        0.2097
     14 C           7.6527   -3.7948   21.0986 C.ar    1  UNL1        0.2173
     15 O           8.6978   -3.4224   20.0891 O.2     1  UNL1       -0.3502
     16 N           8.0968   -2.4211   19.1476 N.ar    1  UNL1       -0.0769
     17 C           6.6803   -2.1748   19.5753 C.ar    1  UNL1        0.1270
     18 C           6.4058   -3.0238   20.7811 C.ar    1  UNL1        0.1323
     19 C           5.7088   -1.2431   18.9134 C.ar    1  UNL1        0.0209
     20 C           5.7039    0.2135   19.2715 C.ar    1  UNL1        0.0016
     21 C           4.7324    1.1453   18.6096 C.ar    1  UNL1        0.0000
     22 C           3.7659    0.6204   17.5896 C.ar    1  UNL1        0.0000
     23 C           3.7709   -0.8362   17.2314 C.ar    1  UNL1        0.0000
     24 C           4.7423   -1.7679   17.8934 C.ar    1  UNL1        0.0016
     25 C           5.1118   -3.0900   21.5366 C.3     1  UNL1        0.4231
     26 F           3.8177   -3.1562   22.2922 F       1  UNL1       -0.1657
     27 F           5.4380   -1.7896   22.2094 F       1  UNL1       -0.1657
     28 F           4.7855   -4.3904   20.8639 F       1  UNL1       -0.1657
     29 C           7.2423   -5.7992   30.4187 C.3     1  UNL1        0.0992
     30 C           7.8943   -2.8000   32.3405 C.3     1  UNL1        0.0684
     31 C           6.6967   -3.6737   32.1116 C.3     1  UNL1        0.0793
     32 N           7.5124   -4.5569   31.2147 N.3     1  UNL1       -0.2682
     33 C           8.7100   -3.6832   31.4435 C.3     1  UNL1        0.0793
     34 O           7.2677   -0.3640   32.9912 O.co2   1  UNL1       -0.5491
     35 C           8.1644   -1.5576   33.1365 C.2     1  UNL1        0.0527
     36 O           9.3312   -1.5090   34.0779 O.co2   1  UNL1       -0.5491
@<TRIPOS>UNITY_ATOM_ATTR
34 1
charge -1
@<TRIPOS>BOND
     1    34    35   ar
     2    35    36   ar
     3    35    30    1
     4    30    31    1
     5    31    32    1
     6    32    29    1
     7    29     1    1
     8     1     2   ar
     9     2     3   ar
    10     3     4   ar
    11     4     5   ar
    12     5     6   ar
    13     5     7    1
    14     7     8    1
    15     8     9    1
    16     9    10   ar
    17    10    11   ar
    18    11    12   ar
    19    12    13   ar
    20    13    14    1
    21    14    15   ar
    22    15    16   ar
    23    16    17   ar
    24    17    19    1
    25    19    20   ar
    26    20    21   ar
    27    21    22   ar
    28    22    23   ar
    29    23    24   ar
    30    17    18   ar
    31    18    25    1
    32    25    26    1
    33    25    27    1
    34    25    28    1
    35    32    33    1
    36    33    30    1
    37     6     1   ar
    38    13     9   ar
    39    18    14   ar
    40    10     4    1
    41    24    19   ar
@<TRIPOS>MOLECULE
*****
 36 41 0 0 0
SMALL
GASTEIGER

@<TRIPOS>ATOM
      1 C           2.2280    0.4990   18.8528 C.ar    1  UNL1       -0.0065
      2 C           3.5203    0.9346   18.2282 C.ar    1  UNL1       -0.0029
      3 C           4.7897    0.1990   18.5404 C.ar    1  UNL1        0.0010
      4 C           4.7667   -0.9723   19.4772 C.ar    1  UNL1        0.0167
      5 C           3.4744   -1.4080   20.1018 C.ar    1  UNL1       -0.0206
      6 C           2.2051   -0.6723   19.7895 C.ar    1  UNL1       -0.0071
      7 C           3.4515   -2.5793   21.0385 C.3     1  UNL1        0.0312
      8 C           4.7209   -3.3149   21.3508 C.3     1  UNL1        0.0360
      9 C           6.0133   -2.8792   20.7262 C.ar    1  UNL1        0.0392
     10 C           6.0362   -1.7079   19.7894 C.ar    1  UNL1        0.1187
     11 N           7.4499   -1.5107   19.3285 N.ar    1  UNL1       -0.0772
     12 O           8.3006   -2.5601   19.9803 O.2     1  UNL1       -0.3505
     13 C           7.4128   -3.4059   20.8442 C.ar    1  UNL1        0.2097
     14 C           7.8480   -4.5734   21.6794 C.ar    1  UNL1        0.2173
     15 O           8.4049   -5.8673   21.1640 O.2     1  UNL1       -0.3502
     16 N           8.7038   -6.7455   22.3427 N.ar    1  UNL1       -0.0769
     17 C           8.3316   -5.9943   23.5866 C.ar    1  UNL1        0.1270
     18 C           7.8027   -4.6518   23.1766 C.ar    1  UNL1        0.1323
     19 C           8.4649   -6.4973   24.9935 C.ar    1  UNL1        0.0209
     20 C           9.4024   -5.8180   25.9471 C.ar    1  UNL1        0.0016
     21 C           9.5357   -6.3210   27.3540 C.ar    1  UNL1        0.0000
     22 C           8.7316   -7.5033   27.8071 C.ar    1  UNL1        0.0000
     23 C           7.7940   -8.1827   26.8534 C.ar    1  UNL1        0.0000
     24 C           7.6607   -7.6797   25.4466 C.ar    1  UNL1        0.0016
     25 C           7.3143   -3.5768   24.1015 C.3     1  UNL1        0.4231
     26 F           6.8259   -2.5016   25.0265 F       1  UNL1       -0.1657
     27 F           8.6208   -2.8550   23.9524 F       1  UNL1       -0.1657
     28 F           6.0078   -4.2985   24.2507 F       1  UNL1       -0.1657
     29 C           0.9586    1.2346   18.5406 C.3     1  UNL1        0.0992
     30 C          -0.8647    2.9037   21.1870 C.3     1  UNL1        0.0684
     31 C          -0.6994    3.1215   19.7121 C.3     1  UNL1        0.0793
     32 N           0.2034    1.9259   19.6367 N.3     1  UNL1       -0.2682
     33 C           0.0380    1.7081   21.1116 C.3     1  UNL1        0.0793
     34 O          -3.1180    3.5285   22.3194 O.co2   1  UNL1       -0.5491
     35 C          -1.6199    3.5950   22.2833 C.2     1  UNL1        0.0527
     36 O          -0.8770    4.3529   23.3434 O.co2   1  UNL1       -0.5491
@<TRIPOS>UNITY_ATOM_ATTR
34 1
charge -1
@<TRIPOS>BOND
     1    34    35   ar
     2    35    36   ar
     3    35    30    1
     4    30    31    1
     5    31    32    1
     6    32    29    1
     7    29     1    1
     8     1     2   ar
     9     2     3   ar
    10     3     4   ar
    11     4     5   ar
    12     5     6   ar
    13     5     7    1
    14     7     8    1
    15     8     9    1
    16     9    10   ar
    17    10    11   ar
    18    11    12   ar
    19    12    13   ar
    20    13    14    1
    21    14    15   ar
    22    15    16   ar
    23    16    17   ar
    24    17    19    1
    25    19    20   ar
    26    20    21   ar
    27    21    22   ar
    28    22    23   ar
    29    23    24   ar
    30    17    18   ar
    31    18    25    1
    32    25    26    1
    33    25    27    1
    34    25    28    1
    35    32    33    1
    36    33    30    1
    37     6     1   ar
    38    13     9   ar
    39    18    14   ar
    40    10     4    1
    41    24    19   ar
@<TRIPOS>MOLECULE
*****
 36 41 0 0 0
SMALL
GASTEIGER

@<TRIPOS>ATOM
      1 C           6.9926   -4.3823   30.3137 C.ar    1  UNL1       -0.0065
      2 C           7.2048   -5.7947   29.8555 C.ar    1  UNL1       -0.0029
      3 C           7.3318   -6.0972   28.3919 C.ar    1  UNL1        0.0010
      4 C           7.2466   -4.9874   27.3864 C.ar    1  UNL1        0.0167
      5 C           7.0343   -3.5749   27.8446 C.ar    1  UNL1       -0.0206
      6 C           6.9073   -3.2724   29.3082 C.ar    1  UNL1       -0.0071
      7 C           6.9491   -2.4651   26.8392 C.3     1  UNL1        0.0312
      8 C           7.0761   -2.7676   25.3755 C.3     1  UNL1        0.0360
      9 C           7.2884   -4.1801   24.9173 C.ar    1  UNL1        0.0392
     10 C           7.3736   -5.2900   25.9227 C.ar    1  UNL1        0.1187
     11 N           7.5863   -6.5746   25.1781 N.ar    1  UNL1       -0.0772
     12 O           7.6324   -6.2587   23.7125 O.2     1  UNL1       -0.3505
     13 C           7.4484   -4.7789   23.5513 C.ar    1  UNL1        0.2097
     14 C           7.4278   -4.0293   22.2522 C.ar    1  UNL1        0.2173
     15 O           8.5306   -3.9959   21.2360 O.2     1  UNL1       -0.3502
     16 N           8.0852   -3.1274   20.0969 N.ar    1  UNL1       -0.0769
     17 C           6.7071   -2.6241   20.4092 C.ar    1  UNL1        0.1270
     18 C           6.3008   -3.1815   21.7412 C.ar    1  UNL1        0.1323
     19 C           5.8805   -1.7218   19.5417 C.ar    1  UNL1        0.0209
     20 C           5.9578   -0.2343   19.7185 C.ar    1  UNL1        0.0016
     21 C           5.1312    0.6680   18.8510 C.ar    1  UNL1        0.0000
     22 C           4.2272    0.0828   17.8068 C.ar    1  UNL1        0.0000
     23 C           4.1499   -1.4047   17.6300 C.ar    1  UNL1        0.0000
     24 C           4.9765   -2.3070   18.4975 C.ar    1  UNL1        0.0016
     25 C           4.9966   -2.9344   22.4396 C.3     1  UNL1        0.4231
     26 F           3.6923   -2.6873   23.1379 F       1  UNL1       -0.1657
     27 F           4.5145   -4.2913   22.0193 F       1  UNL1       -0.1657
     28 F           5.4786   -1.5775   22.8599 F       1  UNL1       -0.1657
     29 C           6.8655   -4.0796   31.7774 C.3     1  UNL1        0.0992
     30 C           4.8297   -1.2954   32.8807 C.3     1  UNL1        0.0684
     31 C           6.1849   -1.4354   32.2533 C.3     1  UNL1        0.0793
     32 N           6.0223   -2.9264   32.2344 N.3     1  UNL1       -0.2682
     33 C           4.6670   -2.7865   32.8618 C.3     1  UNL1        0.0793
     34 O           2.9244    0.4140   32.4362 O.co2   1  UNL1       -0.5491
     35 C           3.9863   -0.1422   33.3378 C.2     1  UNL1        0.0527
     36 O           4.2050    0.4548   34.6964 O.co2   1  UNL1       -0.5491
@<TRIPOS>UNITY_ATOM_ATTR
34 1
charge -1
@<TRIPOS>BOND
     1    34    35   ar
     2    35    36   ar
     3    35    30    1
     4    30    31    1
     5    31    32    1
     6    32    29    1
     7    29     1    1
     8     1     2   ar
     9     2     3   ar
    10     3     4   ar
    11     4     5   ar
    12     5     6   ar
    13     5     7    1
    14     7     8    1
    15     8     9    1
    16     9    10   ar
    17    10    11   ar
    18    11    12   ar
    19    12    13   ar
    20    13    14    1
    21    14    15   ar
    22    15    16   ar
    23    16    17   ar
    24    17    19    1
    25    19    20   ar
    26    20    21   ar
    27    21    22   ar
    28    22    23   ar
    29    23    24   ar
    30    17    18   ar
    31    18    25    1
    32    25    26    1
    33    25    27    1
    34    25    28    1
    35    32    33    1
    36    33    30    1
    37     6     1   ar
    38    13     9   ar
    39    18    14   ar
    40    10     4    1
    41    24    19   ar
@<TRIPOS>MOLECULE
*****
 36 41 0 0 0
SMALL
GASTEIGER

@<TRIPOS>ATOM
      1 C           6.6272   -2.9145   30.3525 C.ar    1  UNL1       -0.0065
      2 C           5.9936   -2.6853   31.6927 C.ar    1  UNL1       -0.0029
      3 C           4.8604   -1.7123   31.8299 C.ar    1  UNL1        0.0010
      4 C           4.3607   -0.9684   30.6270 C.ar    1  UNL1        0.0167
      5 C           4.9942   -1.1977   29.2868 C.ar    1  UNL1       -0.0206
      6 C           6.1275   -2.1707   29.1496 C.ar    1  UNL1       -0.0071
      7 C           4.4945   -0.4538   28.0839 C.3     1  UNL1        0.0312
      8 C           3.3613    0.5192   28.2211 C.3     1  UNL1        0.0360
      9 C           2.7277    0.7485   29.5613 C.ar    1  UNL1        0.0392
     10 C           3.2274    0.0047   30.7642 C.ar    1  UNL1        0.1187
     11 N           2.4116    0.4350   31.9472 N.ar    1  UNL1       -0.0772
     12 O           1.4078    1.4447   31.4754 O.2     1  UNL1       -0.3505
     13 C           1.6031    1.6385   30.0009 C.ar    1  UNL1        0.2097
     14 C           0.8126    2.5604   29.1204 C.ar    1  UNL1        0.2173
     15 O           0.9781    4.0484   29.0278 O.2     1  UNL1       -0.3502
     16 N          -0.0144    4.5638   28.0281 N.ar    1  UNL1       -0.0769
     17 C          -0.7932    3.3943   27.5028 C.ar    1  UNL1        0.1270
     18 C          -0.2821    2.1562   28.1779 C.ar    1  UNL1        0.1323
     19 C          -1.8905    3.4528   26.4818 C.ar    1  UNL1        0.0209
     20 C          -1.5905    3.1625   25.0411 C.ar    1  UNL1        0.0016
     21 C          -2.6878    3.2210   24.0200 C.ar    1  UNL1        0.0000
     22 C          -4.0850    3.5698   24.4397 C.ar    1  UNL1        0.0000
     23 C          -4.3850    3.8601   25.8804 C.ar    1  UNL1        0.0000
     24 C          -3.2877    3.8016   26.9015 C.ar    1  UNL1        0.0016
     25 C          -0.7785    0.7592   27.9505 C.3     1  UNL1        0.4231
     26 F          -1.2749   -0.6379   27.7229 F       1  UNL1       -0.1657
     27 F           0.0507    0.6675   26.7038 F       1  UNL1       -0.1657
     28 F          -1.6077    0.8508   29.1971 F       1  UNL1       -0.1657
     29 C           7.7605   -3.8876   30.2152 C.3     1  UNL1        0.0992
     30 C           7.6506   -6.4455   27.6542 C.3     1  UNL1        0.0684
     31 C           8.7140   -5.8927   28.5562 C.3     1  UNL1        0.0793
     32 N           7.7150   -4.9471   29.1544 N.3     1  UNL1       -0.2682
     33 C           6.6516   -5.4999   28.2524 C.3     1  UNL1        0.0793
     34 O           7.5984   -8.9542   26.9805 O.co2   1  UNL1       -0.5491
     35 C           7.6050   -7.5051   26.5933 C.2     1  UNL1        0.0527
     36 O           7.5661   -7.1154   25.1454 O.co2   1  UNL1       -0.5491
@<TRIPOS>UNITY_ATOM_ATTR
34 1
charge -1
@<TRIPOS>BOND
     1    34    35   ar
     2    35    36   ar
     3    35    30    1
     4    30    31    1
     5    31    32    1
     6    32    29    1
     7    29     1    1
     8     1     2   ar
     9     2     3   ar
    10     3     4   ar
    11     4     5   ar
    12     5     6   ar
    13     5     7    1
    14     7     8    1
    15     8     9    1
    16     9    10   ar
    17    10    11   ar
    18    11    12   ar
    19    12    13   ar
    20    13    14    1
    21    14    15   ar
    22    15    16   ar
    23    16    17   ar
    24    17    19    1
    25    19    20   ar
    26    20    21   ar
    27    21    22   ar
    28    22    23   ar
    29    23    24   ar
    30    17    18   ar
    31    18    25    1
    32    25    26    1
    33    25    27    1
    34    25    28    1
    35    32    33    1
    36    33    30    1
    37     6     1   ar
    38    13     9   ar
    39    18    14   ar
    40    10     4    1
    41    24    19   ar
@<TRIPOS>MOLECULE
*****
 36 41 0 0 0
SMALL
GASTEIGER

@<TRIPOS>ATOM
      1 C           0.9546    1.4717   23.6782 C.ar    1  UNL1       -0.0065
      2 C          -0.1314    2.0783   24.5163 C.ar    1  UNL1       -0.0029
      3 C          -0.0982    1.9305   26.0086 C.ar    1  UNL1        0.0010
      4 C           1.0212    1.1760   26.6628 C.ar    1  UNL1        0.0167
      5 C           2.1072    0.5695   25.8247 C.ar    1  UNL1       -0.0206
      6 C           2.0740    0.7173   24.3324 C.ar    1  UNL1       -0.0071
      7 C           3.2266   -0.1850   26.4789 C.3     1  UNL1        0.0312
      8 C           3.2598   -0.3328   27.9712 C.3     1  UNL1        0.0360
      9 C           2.1737    0.2738   28.8094 C.ar    1  UNL1        0.0392
     10 C           1.0544    1.0282   28.1552 C.ar    1  UNL1        0.1187
     11 N           0.1304    1.5132   29.2327 N.ar    1  UNL1       -0.0772
     12 O           0.6787    1.0586   30.5527 O.2     1  UNL1       -0.3505
     13 C           1.9415    0.2926   30.2912 C.ar    1  UNL1        0.2097
     14 C           2.8182   -0.3431   31.3291 C.ar    1  UNL1        0.2173
     15 O           3.1114   -1.8084   31.4582 O.2     1  UNL1       -0.3502
     16 N           4.0301   -1.9960   32.6291 N.ar    1  UNL1       -0.0769
     17 C           4.3046   -0.6464   33.2236 C.ar    1  UNL1        0.1270
     18 C           3.5556    0.3751   32.4202 C.ar    1  UNL1        0.1323
     19 C           5.1752   -0.3675   34.4128 C.ar    1  UNL1        0.0209
     20 C           6.6672   -0.3417   34.2604 C.ar    1  UNL1        0.0016
     21 C           7.5379   -0.0628   35.4496 C.ar    1  UNL1        0.0000
     22 C           6.9165    0.1904   36.7912 C.ar    1  UNL1        0.0000
     23 C           5.4245    0.1646   36.9436 C.ar    1  UNL1        0.0000
     24 C           4.5539   -0.1143   35.7544 C.ar    1  UNL1        0.0016
     25 C           3.5458    1.8549   32.6650 C.3     1  UNL1        0.4231
     26 F           3.5359    3.3348   32.9098 F       1  UNL1       -0.1657
     27 F           2.3319    1.7032   33.5331 F       1  UNL1       -0.1657
     28 F           4.7596    2.0066   31.7969 F       1  UNL1       -0.1657
     29 C           0.9214    1.6195   22.1858 C.3     1  UNL1        0.0992
     30 C           2.5990   -0.8091   20.0880 C.3     1  UNL1        0.0684
     31 C           3.0411    0.3527   20.9274 C.3     1  UNL1        0.0793
     32 N           1.6163    0.6136   21.3169 N.3     1  UNL1       -0.2682
     33 C           1.1741   -0.5483   20.4775 C.3     1  UNL1        0.0793
     34 O           3.8361   -1.4042   17.8822 O.co2   1  UNL1       -0.5491
     35 C           3.2938   -1.8152   19.2189 C.2     1  UNL1        0.0527
     36 O           3.4464   -3.2322   19.6868 O.co2   1  UNL1       -0.5491
@<TRIPOS>UNITY_ATOM_ATTR
34 1
charge -1
@<TRIPOS>BOND
     1    34    35   ar
     2    35    36   ar
     3    35    30    1
     4    30    31    1
     5    31    32    1
     6    32    29    1
     7    29     1    1
     8     1     2   ar
     9     2     3   ar
    10     3     4   ar
    11     4     5   ar
    12     5     6   ar
    13     5     7    1
    14     7     8    1
    15     8     9    1
    16     9    10   ar
    17    10    11   ar
    18    11    12   ar
    19    12    13   ar
    20    13    14    1
    21    14    15   ar
    22    15    16   ar
    23    16    17   ar
    24    17    19    1
    25    19    20   ar
    26    20    21   ar
    27    21    22   ar
    28    22    23   ar
    29    23    24   ar
    30    17    18   ar
    31    18    25    1
    32    25    26    1
    33    25    27    1
    34    25    28    1
    35    32    33    1
    36    33    30    1
    37     6     1   ar
    38    13     9   ar
    39    18    14   ar
    40    10     4    1
    41    24    19   ar
@<TRIPOS>MOLECULE
*****
 36 41 0 0 0
SMALL
GASTEIGER

@<TRIPOS>ATOM
      1 C           7.5910   -4.5833   24.3076 C.ar    1  UNL1       -0.0065
      2 C           7.3082   -5.8596   25.0430 C.ar    1  UNL1       -0.0029
      3 C           7.1732   -5.8503   26.5369 C.ar    1  UNL1        0.0010
      4 C           7.3210   -4.5646   27.2953 C.ar    1  UNL1        0.0167
      5 C           7.6038   -3.2882   26.5598 C.ar    1  UNL1       -0.0206
      6 C           7.7388   -3.2976   25.0660 C.ar    1  UNL1       -0.0071
      7 C           7.7516   -2.0026   27.3182 C.3     1  UNL1        0.0312
      8 C           7.6166   -1.9932   28.8121 C.3     1  UNL1        0.0360
      9 C           7.3338   -3.2696   29.5476 C.ar    1  UNL1        0.0392
     10 C           7.1860   -4.5553   28.7892 C.ar    1  UNL1        0.1187
     11 N           6.9109   -5.6483   29.7790 N.ar    1  UNL1       -0.0772
     12 O           6.8887   -5.0381   31.1490 O.2     1  UNL1       -0.3505
     13 C           7.1500   -3.5680   31.0061 C.ar    1  UNL1        0.2097
     14 C           7.2160   -2.5713   32.1251 C.ar    1  UNL1        0.2173
     15 O           8.4471   -2.1846   32.8899 O.2     1  UNL1       -0.3502
     16 N           8.0545   -1.1605   33.9133 N.ar    1  UNL1       -0.0769
     17 C           6.5807   -0.9144   33.7809 C.ar    1  UNL1        0.1270
     18 C           6.0625   -1.7863   32.6757 C.ar    1  UNL1        0.1323
     19 C           5.7679    0.0367   34.6084 C.ar    1  UNL1        0.0209
     20 C           5.6232    1.4673   34.1815 C.ar    1  UNL1        0.0016
     21 C           4.8104    2.4184   35.0090 C.ar    1  UNL1        0.0000
     22 C           4.1422    1.9388   36.2634 C.ar    1  UNL1        0.0000
     23 C           4.2868    0.5082   36.6903 C.ar    1  UNL1        0.0000
     24 C           5.0996   -0.4429   35.8628 C.ar    1  UNL1        0.0016
     25 C           4.6406   -1.8601   32.2041 C.3     1  UNL1        0.4231
     26 F           3.2186   -1.9341   31.7325 F       1  UNL1       -0.1657
     27 F           4.3053   -2.7606   33.3561 F       1  UNL1       -0.1657
     28 F           4.9758   -0.9598   31.0522 F       1  UNL1       -0.1657
     29 C           7.7260   -4.5926   22.8136 C.3     1  UNL1        0.0992
     30 C           4.9138   -3.6510   20.7355 C.3     1  UNL1        0.0684
     31 C           6.3650   -3.9397   20.4892 C.3     1  UNL1        0.0793
     32 N           6.5612   -4.2026   21.9529 N.3     1  UNL1       -0.2682
     33 C           5.1100   -3.9139   22.1992 C.3     1  UNL1        0.0793
     34 O           3.1020   -4.2783   18.9822 O.co2   1  UNL1       -0.5491
     35 C           3.7488   -3.2610   19.8747 C.2     1  UNL1        0.0527
     36 O           3.2308   -1.8537   19.9065 O.co2   1  UNL1       -0.5491
@<TRIPOS>UNITY_ATOM_ATTR
34 1
charge -1
@<TRIPOS>BOND
     1    34    35   ar
     2    35    36   ar
     3    35    30    1
     4    30    31    1
     5    31    32    1
     6    32    29    1
     7    29     1    1
     8     1     2   ar
     9     2     3   ar
    10     3     4   ar
    11     4     5   ar
    12     5     6   ar
    13     5     7    1
    14     7     8    1
    15     8     9    1
    16     9    10   ar
    17    10    11   ar
    18    11    12   ar
    19    12    13   ar
    20    13    14    1
    21    14    15   ar
    22    15    16   ar
    23    16    17   ar
    24    17    19    1
    25    19    20   ar
    26    20    21   ar
    27    21    22   ar
    28    22    23   ar
    29    23    24   ar
    30    17    18   ar
    31    18    25    1
    32    25    26    1
    33    25    27    1
    34    25    28    1
    35    32    33    1
    36    33    30    1
    37     6     1   ar
    38    13     9   ar
    39    18    14   ar
    40    10     4    1
    41    24    19   ar
