@<TRIPOS>MOLECULE
*****
 36 41 0 0 0
SMALL
GASTEIGER

@<TRIPOS>ATOM
      1 C          -7.4968  -19.8237   20.4410 C.3     1  UNL1        0.0745
      2 C          -8.6486  -19.3829   19.5871 C.3     1  UNL1        0.0356
      3 C          -9.0681  -20.2102   18.4083 C.3     1  UNL1        0.0594
      4 C          -9.1309  -21.3019   17.3816 C.3     1  UNL1        0.0174
      5 C          -8.0430  -22.2885   17.6870 C.3     1  UNL1        0.0174
      6 C          -7.3080  -21.8066   18.9025 C.3     1  UNL1        0.0594
      7 C          -6.7645  -21.0917   20.1161 C.3     1  UNL1        0.0356
      8 N          -7.9414  -20.5221   19.3483 N.3     1  UNL1       -0.2715
      9 O          -8.9408  -17.2708   21.0717 O.2     1  UNL1       -0.2701
     10 C          -7.7993  -17.7198   21.9352 C.2     1  UNL1        0.2458
     11 N          -7.0773  -18.9963   21.6198 N.am    1  UNL1       -0.3024
     12 H          -6.3282  -19.2910   22.1865 H       1  UNL1        0.1497
     13 C          -7.3799  -16.8925   23.1139 C.ar    1  UNL1        0.0534
     14 C          -5.9798  -16.3608   23.1970 C.ar    1  UNL1        0.0045
     15 C          -5.5604  -15.5335   24.3757 C.ar    1  UNL1        0.0001
     16 C          -6.5412  -15.2377   25.4715 C.ar    1  UNL1        0.0000
     17 C          -7.9413  -15.7693   25.3884 C.ar    1  UNL1        0.0002
     18 C          -8.3607  -16.5967   24.2096 C.ar    1  UNL1        0.0074
     19 C          -9.7609  -17.1283   24.1265 C.ar    1  UNL1        0.0385
     20 C         -10.8106  -16.3625   23.3770 C.ar    1  UNL1        0.1022
     21 N         -12.2108  -16.8941   23.2940 N.ar    1  UNL1       -0.2224
     22 C         -12.5612  -18.1915   23.9604 C.ar    1  UNL1        0.1989
     23 N         -11.5115  -18.9572   24.7098 N.ar    1  UNL1       -0.2224
     24 C         -10.1113  -18.4256   24.7929 C.ar    1  UNL1        0.1022
     25 C          -7.5220  -19.6948   20.5271 C.3     1  UNL1        0.0991
     26 C          -6.0678  -19.4174   20.7693 C.ar    1  UNL1       -0.0061
     27 C          -5.4577  -19.7259   22.1044 C.ar    1  UNL1       -0.0029
     28 C          -4.0037  -19.4485   22.3466 C.ar    1  UNL1       -0.0002
     29 C          -3.1597  -18.8626   21.2537 C.ar    1  UNL1        0.0022
     30 C          -1.7056  -18.5852   21.4960 C.ar    1  UNL1        0.0296
     31 C          -0.8616  -17.9992   20.4031 C.ar    1  UNL1        0.1401
     32 F           0.5924  -17.7218   20.6453 F       1  UNL1       -0.2042
     33 C          -1.4718  -17.6907   19.0679 C.ar    1  UNL1        0.0296
     34 C          -2.9259  -17.9681   18.8257 C.ar    1  UNL1        0.0023
     35 C          -3.7698  -18.5540   19.9186 C.ar    1  UNL1       -0.0001
     36 C          -5.2239  -18.8314   19.6764 C.ar    1  UNL1       -0.0029
@<TRIPOS>BOND
     1     9    10    2
     2    10    11   am
     3     1    11    1
     4     1     2    1
     5     3     2    1
     6     3     4    1
     7     4     5    1
     8     6     5    1
     9     6     7    1
    10     6     8    1
    11     8    25    1
    12    25    26    1
    13    26    27   ar
    14    27    28   ar
    15    28    29   ar
    16    29    30   ar
    17    30    31   ar
    18    31    32    1
    19    31    33   ar
    20    33    34   ar
    21    34    35   ar
    22    35    36   ar
    23    10    13    1
    24    13    14   ar
    25    14    15   ar
    26    15    16   ar
    27    16    17   ar
    28    17    18   ar
    29    18    19    1
    30    19    20   ar
    31    20    21   ar
    32    21    22   ar
    33    22    23   ar
    34    23    24   ar
    35     7     1    1
    36    36    26   ar
    37    18    13   ar
    38    24    19   ar
    39     8     3    1
    40    35    29   ar
    41    11    12    1
@<TRIPOS>MOLECULE
*****
 36 41 0 0 0
SMALL
GASTEIGER

@<TRIPOS>ATOM
      1 C          -8.0881  -19.2561   21.3179 C.3     1  UNL1        0.0745
      2 C          -7.0648  -20.2466   20.8469 C.3     1  UNL1        0.0356
      3 C          -7.2318  -20.9233   19.5187 C.3     1  UNL1        0.0594
      4 C          -7.7855  -21.3342   18.1866 C.3     1  UNL1        0.0174
      5 C          -9.0635  -20.5812   17.9637 C.3     1  UNL1        0.0174
      6 C          -9.2996  -19.7049   19.1580 C.3     1  UNL1        0.0594
      7 C          -9.2783  -18.9423   20.4607 C.3     1  UNL1        0.0356
      8 N          -8.1675  -19.9163   20.1191 N.3     1  UNL1       -0.2715
      9 O          -7.5382  -16.3095   21.4415 O.2     1  UNL1       -0.2701
     10 C          -7.6461  -17.1061   22.7080 C.2     1  UNL1        0.2458
     11 N          -7.9211  -18.5794   22.6462 N.am    1  UNL1       -0.3024
     12 H          -7.9919  -19.1022   23.4774 H       1  UNL1        0.1497
     13 C          -7.4791  -16.4294   24.0362 C.ar    1  UNL1        0.0534
     14 C          -8.6816  -16.1263   24.8800 C.ar    1  UNL1        0.0045
     15 C          -8.5146  -15.4496   26.2082 C.ar    1  UNL1        0.0001
     16 C          -7.1450  -15.0759   26.6926 C.ar    1  UNL1        0.0000
     17 C          -5.9425  -15.3790   25.8488 C.ar    1  UNL1        0.0002
     18 C          -6.1095  -16.0558   24.5206 C.ar    1  UNL1        0.0074
     19 C          -4.9070  -16.3589   23.6767 C.ar    1  UNL1        0.0385
     20 C          -4.1912  -15.2492   22.9651 C.ar    1  UNL1        0.1022
     21 N          -2.9886  -15.5523   22.1213 N.ar    1  UNL1       -0.2224
     22 C          -2.5019  -16.9651   21.9891 C.ar    1  UNL1        0.1989
     23 N          -3.2177  -18.0746   22.7008 N.ar    1  UNL1       -0.2224
     24 C          -4.4203  -17.7715   23.5446 C.ar    1  UNL1        0.1022
     25 C          -8.0006  -19.2396   21.4473 C.3     1  UNL1        0.0991
     26 C          -9.1342  -19.2253   22.4295 C.ar    1  UNL1       -0.0061
     27 C          -9.0166  -19.9777   23.7217 C.ar    1  UNL1       -0.0029
     28 C         -10.1502  -19.9633   24.7038 C.ar    1  UNL1       -0.0002
     29 C         -11.4015  -19.1964   24.3937 C.ar    1  UNL1        0.0022
     30 C         -12.5352  -19.1820   25.3760 C.ar    1  UNL1        0.0296
     31 C         -13.7865  -18.4152   25.0659 C.ar    1  UNL1        0.1401
     32 F         -14.9201  -18.4008   26.0480 F       1  UNL1       -0.2042
     33 C         -13.9041  -17.6627   23.7735 C.ar    1  UNL1        0.0296
     34 C         -12.7705  -17.6771   22.7914 C.ar    1  UNL1        0.0023
     35 C         -11.5192  -18.4440   23.1015 C.ar    1  UNL1       -0.0001
     36 C         -10.3855  -18.4584   22.1194 C.ar    1  UNL1       -0.0029
@<TRIPOS>BOND
     1     9    10    2
     2    10    11   am
     3     1    11    1
     4     1     2    1
     5     3     2    1
     6     3     4    1
     7     4     5    1
     8     6     5    1
     9     6     7    1
    10     6     8    1
    11     8    25    1
    12    25    26    1
    13    26    27   ar
    14    27    28   ar
    15    28    29   ar
    16    29    30   ar
    17    30    31   ar
    18    31    32    1
    19    31    33   ar
    20    33    34   ar
    21    34    35   ar
    22    35    36   ar
    23    10    13    1
    24    13    14   ar
    25    14    15   ar
    26    15    16   ar
    27    16    17   ar
    28    17    18   ar
    29    18    19    1
    30    19    20   ar
    31    20    21   ar
    32    21    22   ar
    33    22    23   ar
    34    23    24   ar
    35     7     1    1
    36    36    26   ar
    37    18    13   ar
    38    24    19   ar
    39     8     3    1
    40    35    29   ar
    41    11    12    1
@<TRIPOS>MOLECULE
*****
 36 41 0 0 0
SMALL
GASTEIGER

@<TRIPOS>ATOM
      1 C          -7.2566  -16.4526   23.5048 C.3     1  UNL1        0.0745
      2 C          -5.7897  -16.1409   23.5411 C.3     1  UNL1        0.0356
      3 C          -5.1881  -15.5049   24.7591 C.3     1  UNL1        0.0594
      4 C          -5.0319  -14.8978   26.1218 C.3     1  UNL1        0.0174
      5 C          -6.3783  -14.8904   26.7830 C.3     1  UNL1        0.0174
      6 C          -7.3666  -15.4931   25.8290 C.3     1  UNL1        0.0594
      7 C          -8.1217  -16.1282   24.6864 C.3     1  UNL1        0.0356
      8 N          -6.6310  -15.8728   24.5781 N.3     1  UNL1       -0.2715
      9 O          -6.6371  -19.3129   22.8452 O.2     1  UNL1       -0.2701
     10 C          -7.5485  -18.5188   21.9570 C.2     1  UNL1        0.2458
     11 N          -7.8582  -17.0886   22.2868 N.am    1  UNL1       -0.3024
     12 H          -8.4564  -16.5675   21.7038 H       1  UNL1        0.1497
     13 C          -8.1501  -19.1548   20.7390 C.ar    1  UNL1        0.0534
     14 C          -9.6408  -19.2197   20.5855 C.ar    1  UNL1        0.0045
     15 C         -10.2424  -19.8558   19.3676 C.ar    1  UNL1        0.0001
     16 C          -9.3533  -20.4270   18.3030 C.ar    1  UNL1        0.0000
     17 C          -7.8626  -20.3621   18.4565 C.ar    1  UNL1        0.0002
     18 C          -7.2610  -19.7260   19.6745 C.ar    1  UNL1        0.0074
     19 C          -5.7702  -19.6611   19.8280 C.ar    1  UNL1        0.0385
     20 C          -5.0389  -18.3889   19.5167 C.ar    1  UNL1        0.1022
     21 N          -3.5482  -18.3240   19.6702 N.ar    1  UNL1       -0.2224
     22 C          -2.7888  -19.5313   20.1349 C.ar    1  UNL1        0.1989
     23 N          -3.5201  -20.8034   20.4461 N.ar    1  UNL1       -0.2224
     24 C          -5.0109  -20.8683   20.2926 C.ar    1  UNL1        0.1022
     25 C          -7.2326  -16.5089   23.3602 C.3     1  UNL1        0.0991
     26 C          -8.7192  -16.6847   23.2626 C.ar    1  UNL1       -0.0061
     27 C          -9.5047  -15.8879   22.2636 C.ar    1  UNL1       -0.0029
     28 C         -10.9911  -16.0638   22.1661 C.ar    1  UNL1       -0.0002
     29 C         -11.6920  -17.0365   23.0676 C.ar    1  UNL1        0.0022
     30 C         -13.1785  -17.2123   22.9701 C.ar    1  UNL1        0.0296
     31 C         -13.8794  -18.1850   23.8715 C.ar    1  UNL1        0.1401
     32 F         -15.3658  -18.3609   23.7740 F       1  UNL1       -0.2042
     33 C         -13.0938  -18.9818   24.8706 C.ar    1  UNL1        0.0296
     34 C         -11.6074  -18.8059   24.9681 C.ar    1  UNL1        0.0023
     35 C         -10.9065  -17.8333   24.0666 C.ar    1  UNL1       -0.0001
     36 C          -9.4201  -17.6574   24.1641 C.ar    1  UNL1       -0.0029
@<TRIPOS>BOND
     1     9    10    2
     2    10    11   am
     3     1    11    1
     4     1     2    1
     5     3     2    1
     6     3     4    1
     7     4     5    1
     8     6     5    1
     9     6     7    1
    10     6     8    1
    11     8    25    1
    12    25    26    1
    13    26    27   ar
    14    27    28   ar
    15    28    29   ar
    16    29    30   ar
    17    30    31   ar
    18    31    32    1
    19    31    33   ar
    20    33    34   ar
    21    34    35   ar
    22    35    36   ar
    23    10    13    1
    24    13    14   ar
    25    14    15   ar
    26    15    16   ar
    27    16    17   ar
    28    17    18   ar
    29    18    19    1
    30    19    20   ar
    31    20    21   ar
    32    21    22   ar
    33    22    23   ar
    34    23    24   ar
    35     7     1    1
    36    36    26   ar
    37    18    13   ar
    38    24    19   ar
    39     8     3    1
    40    35    29   ar
    41    11    12    1
@<TRIPOS>MOLECULE
*****
 36 41 0 0 0
SMALL
GASTEIGER

@<TRIPOS>ATOM
      1 C           0.9244    1.5623   23.2457 C.3     1  UNL1        0.0745
      2 C           0.2514    2.8790   22.9936 C.3     1  UNL1        0.0356
      3 C          -0.6624    3.4646   24.0289 C.3     1  UNL1        0.0594
      4 C          -1.4544    3.6563   25.2882 C.3     1  UNL1        0.0174
      5 C          -1.2049    2.4741   26.1772 C.3     1  UNL1        0.0174
      6 C          -0.2587    1.5518   25.4672 C.3     1  UNL1        0.0594
      7 C           0.6835    0.8314   24.5332 C.3     1  UNL1        0.0356
      8 N           0.0766    2.1640   24.1395 N.3     1  UNL1       -0.2715
      9 O          -0.2222    0.1988   20.8320 O.2     1  UNL1       -0.2701
     10 C           1.2649    0.2949   21.0034 C.2     1  UNL1        0.2458
     11 N           1.8382    0.9767   22.2103 N.am    1  UNL1       -0.3024
     12 H           2.8142    1.0398   22.3228 H       1  UNL1        0.1497
     13 C           2.1786   -0.2907   19.9680 C.ar    1  UNL1        0.0534
     14 C           2.7338   -1.6719   20.1526 C.ar    1  UNL1        0.0045
     15 C           3.6475   -2.2576   19.1173 C.ar    1  UNL1        0.0001
     16 C           4.0062   -1.4620   17.8972 C.ar    1  UNL1        0.0000
     17 C           3.4510   -0.0808   17.7126 C.ar    1  UNL1        0.0002
     18 C           2.5373    0.5049   18.7481 C.ar    1  UNL1        0.0074
     19 C           1.9821    1.8861   18.5635 C.ar    1  UNL1        0.0385
     20 C           0.5597    2.0702   18.1242 C.ar    1  UNL1        0.1022
     21 N           0.0046    3.4514   17.9396 N.ar    1  UNL1       -0.2224
     22 C           0.8719    4.6485   18.1943 C.ar    1  UNL1        0.1989
     23 N           2.2942    4.4644   18.6336 N.ar    1  UNL1       -0.2224
     24 C           2.8493    3.0832   18.8182 C.ar    1  UNL1        0.1022
     25 C           0.9904    1.5783   23.1041 C.3     1  UNL1        0.0991
     26 C           2.3957    1.2028   23.4703 C.ar    1  UNL1       -0.0061
     27 C           3.4377    2.2689   23.6368 C.ar    1  UNL1       -0.0029
     28 C           4.8430    1.8934   24.0030 C.ar    1  UNL1       -0.0002
     29 C           5.2063    0.4518   24.2026 C.ar    1  UNL1        0.0022
     30 C           6.6117    0.0763   24.5687 C.ar    1  UNL1        0.0296
     31 C           6.9750   -1.3653   24.7683 C.ar    1  UNL1        0.1401
     32 F           8.3803   -1.7408   25.1345 F       1  UNL1       -0.2042
     33 C           5.9330   -2.4314   24.6018 C.ar    1  UNL1        0.0296
     34 C           4.5277   -2.0559   24.2357 C.ar    1  UNL1        0.0023
     35 C           4.1644   -0.6143   24.0360 C.ar    1  UNL1       -0.0001
     36 C           2.7591   -0.2388   23.6699 C.ar    1  UNL1       -0.0029
@<TRIPOS>BOND
     1     9    10    2
     2    10    11   am
     3     1    11    1
     4     1     2    1
     5     3     2    1
     6     3     4    1
     7     4     5    1
     8     6     5    1
     9     6     7    1
    10     6     8    1
    11     8    25    1
    12    25    26    1
    13    26    27   ar
    14    27    28   ar
    15    28    29   ar
    16    29    30   ar
    17    30    31   ar
    18    31    32    1
    19    31    33   ar
    20    33    34   ar
    21    34    35   ar
    22    35    36   ar
    23    10    13    1
    24    13    14   ar
    25    14    15   ar
    26    15    16   ar
    27    16    17   ar
    28    17    18   ar
    29    18    19    1
    30    19    20   ar
    31    20    21   ar
    32    21    22   ar
    33    22    23   ar
    34    23    24   ar
    35     7     1    1
    36    36    26   ar
    37    18    13   ar
    38    24    19   ar
    39     8     3    1
    40    35    29   ar
    41    11    12    1
@<TRIPOS>MOLECULE
*****
 36 41 0 0 0
SMALL
GASTEIGER

@<TRIPOS>ATOM
      1 C           2.6654    1.3863   23.4088 C.3     1  UNL1        0.0745
      2 C           3.1496    1.8148   24.7623 C.3     1  UNL1        0.0356
      3 C           2.1896    1.8927   25.9122 C.3     1  UNL1        0.0594
      4 C           0.9326    1.8279   26.7281 C.3     1  UNL1        0.0174
      5 C          -0.1808    1.3780   25.8290 C.3     1  UNL1        0.0174
      6 C           0.3882    1.1649   24.4576 C.3     1  UNL1        0.0594
      7 C           1.2213    1.0357   23.2052 C.3     1  UNL1        0.0356
      8 N           1.8532    1.4830   24.5090 N.3     1  UNL1       -0.2715
      9 O           3.4073    3.8727   21.9031 O.2     1  UNL1       -0.2701
     10 C           3.9965    2.5516   21.5061 C.2     1  UNL1        0.2458
     11 N           3.6255    1.3084   22.2589 N.am    1  UNL1       -0.3024
     12 H           4.0122    0.4413   21.9983 H       1  UNL1        0.1497
     13 C           4.9565    2.4737   20.3562 C.ar    1  UNL1        0.0534
     14 C           6.4304    2.3712   20.6153 C.ar    1  UNL1        0.0045
     15 C           7.3904    2.2933   19.4654 C.ar    1  UNL1        0.0001
     16 C           6.8766    2.3180   18.0564 C.ar    1  UNL1        0.0000
     17 C           5.4027    2.4205   17.7972 C.ar    1  UNL1        0.0002
     18 C           4.4426    2.4984   18.9472 C.ar    1  UNL1        0.0074
     19 C           2.9687    2.6009   18.6881 C.ar    1  UNL1        0.0385
     20 C           2.3142    3.9479   18.6023 C.ar    1  UNL1        0.1022
     21 N           0.8403    4.0504   18.3432 N.ar    1  UNL1       -0.2224
     22 C           0.0210    2.8059   18.1698 C.ar    1  UNL1        0.1989
     23 N           0.6755    1.4590   18.2556 N.ar    1  UNL1       -0.2224
     24 C           2.1494    1.3565   18.5147 C.ar    1  UNL1        0.1022
     25 C           2.8132    1.4051   23.3591 C.3     1  UNL1        0.0991
     26 C           3.2526    0.0688   22.8382 C.ar    1  UNL1       -0.0061
     27 C           4.0507   -0.8518   23.7131 C.ar    1  UNL1       -0.0029
     28 C           4.4901   -2.1880   23.1922 C.ar    1  UNL1       -0.0002
     29 C           4.1314   -2.6036   21.7963 C.ar    1  UNL1        0.0022
     30 C           4.5709   -3.9399   21.2753 C.ar    1  UNL1        0.0296
     31 C           4.2122   -4.3555   19.8794 C.ar    1  UNL1        0.1401
     32 F           4.6516   -5.6917   19.3584 F       1  UNL1       -0.2042
     33 C           3.4141   -3.4349   19.0044 C.ar    1  UNL1        0.0296
     34 C           2.9747   -2.0987   19.5254 C.ar    1  UNL1        0.0023
     35 C           3.3334   -1.6830   20.9213 C.ar    1  UNL1       -0.0001
     36 C           2.8940   -0.3468   21.4423 C.ar    1  UNL1       -0.0029
@<TRIPOS>BOND
     1     9    10    2
     2    10    11   am
     3     1    11    1
     4     1     2    1
     5     3     2    1
     6     3     4    1
     7     4     5    1
     8     6     5    1
     9     6     7    1
    10     6     8    1
    11     8    25    1
    12    25    26    1
    13    26    27   ar
    14    27    28   ar
    15    28    29   ar
    16    29    30   ar
    17    30    31   ar
    18    31    32    1
    19    31    33   ar
    20    33    34   ar
    21    34    35   ar
    22    35    36   ar
    23    10    13    1
    24    13    14   ar
    25    14    15   ar
    26    15    16   ar
    27    16    17   ar
    28    17    18   ar
    29    18    19    1
    30    19    20   ar
    31    20    21   ar
    32    21    22   ar
    33    22    23   ar
    34    23    24   ar
    35     7     1    1
    36    36    26   ar
    37    18    13   ar
    38    24    19   ar
    39     8     3    1
    40    35    29   ar
    41    11    12    1
@<TRIPOS>MOLECULE
*****
 36 41 0 0 0
SMALL
GASTEIGER

@<TRIPOS>ATOM
      1 C           7.0096   -4.4541   24.1784 C.3     1  UNL1        0.0745
      2 C           7.8785   -4.8251   23.0134 C.3     1  UNL1        0.0356
      3 C           8.6760   -6.0951   23.0469 C.3     1  UNL1        0.0594
      4 C           9.2666   -7.3971   23.5006 C.3     1  UNL1        0.0174
      5 C           8.7236   -7.7019   24.8653 C.3     1  UNL1        0.0174
      6 C           7.7975   -6.5882   25.2550 C.3     1  UNL1        0.0594
      7 C           6.9381   -5.3530   25.3770 C.3     1  UNL1        0.0356
      8 N           7.7680   -5.5952   24.1312 N.3     1  UNL1       -0.2715
      9 O           4.4742   -4.3168   22.5806 O.2     1  UNL1       -0.2701
     10 C           4.9445   -3.1153   23.3459 C.2     1  UNL1        0.2458
     11 N           6.2122   -3.1840   24.1447 N.am    1  UNL1       -0.3024
     12 H           6.5208   -2.3955   24.6470 H       1  UNL1        0.1497
     13 C           4.1470   -1.8453   23.3122 C.ar    1  UNL1        0.0534
     14 C           3.6153   -1.2596   24.5866 C.ar    1  UNL1        0.0045
     15 C           2.8179    0.0104   24.5530 C.ar    1  UNL1        0.0001
     16 C           2.5521    0.6947   23.2448 C.ar    1  UNL1        0.0000
     17 C           3.0838    0.1089   21.9704 C.ar    1  UNL1        0.0002
     18 C           3.8813   -1.1611   22.0041 C.ar    1  UNL1        0.0074
     19 C           4.4129   -1.7469   20.7297 C.ar    1  UNL1        0.0385
     20 C           3.5123   -2.5541   19.8422 C.ar    1  UNL1        0.1022
     21 N           4.0440   -3.1398   18.5678 N.ar    1  UNL1       -0.2224
     22 C           5.4763   -2.9185   18.1808 C.ar    1  UNL1        0.1989
     23 N           6.3768   -2.1114   19.0683 N.ar    1  UNL1       -0.2224
     24 C           5.8451   -1.5256   20.3427 C.ar    1  UNL1        0.1022
     25 C           6.9706   -4.3252   24.0976 C.3     1  UNL1        0.0991
     26 C           7.2760   -3.2219   25.0670 C.ar    1  UNL1       -0.0061
     27 C           8.3755   -2.2458   24.7701 C.ar    1  UNL1       -0.0029
     28 C           8.6810   -1.1426   25.7394 C.ar    1  UNL1       -0.0002
     29 C           7.8868   -1.0155   27.0056 C.ar    1  UNL1        0.0022
     30 C           8.1923    0.0878   27.9749 C.ar    1  UNL1        0.0296
     31 C           7.3982    0.2149   29.2411 C.ar    1  UNL1        0.1401
     32 F           7.7036    1.3181   30.2104 F       1  UNL1       -0.2042
     33 C           6.2986   -0.7613   29.5380 C.ar    1  UNL1        0.0296
     34 C           5.9932   -1.8645   28.5687 C.ar    1  UNL1        0.0023
     35 C           6.7873   -1.9916   27.3025 C.ar    1  UNL1       -0.0001
     36 C           6.4819   -3.0948   26.3332 C.ar    1  UNL1       -0.0029
@<TRIPOS>BOND
     1     9    10    2
     2    10    11   am
     3     1    11    1
     4     1     2    1
     5     3     2    1
     6     3     4    1
     7     4     5    1
     8     6     5    1
     9     6     7    1
    10     6     8    1
    11     8    25    1
    12    25    26    1
    13    26    27   ar
    14    27    28   ar
    15    28    29   ar
    16    29    30   ar
    17    30    31   ar
    18    31    32    1
    19    31    33   ar
    20    33    34   ar
    21    34    35   ar
    22    35    36   ar
    23    10    13    1
    24    13    14   ar
    25    14    15   ar
    26    15    16   ar
    27    16    17   ar
    28    17    18   ar
    29    18    19    1
    30    19    20   ar
    31    20    21   ar
    32    21    22   ar
    33    22    23   ar
    34    23    24   ar
    35     7     1    1
    36    36    26   ar
    37    18    13   ar
    38    24    19   ar
    39     8     3    1
    40    35    29   ar
    41    11    12    1
@<TRIPOS>MOLECULE
*****
 36 41 0 0 0
SMALL
GASTEIGER

@<TRIPOS>ATOM
      1 C           6.2524   -2.5018   21.1308 C.3     1  UNL1        0.0745
      2 C           7.4680   -2.5274   20.2524 C.3     1  UNL1        0.0356
      3 C           8.5490   -3.5381   20.4971 C.3     1  UNL1        0.0594
      4 C           9.3362   -4.6705   21.0869 C.3     1  UNL1        0.0174
      5 C           8.5566   -5.2245   22.2425 C.3     1  UNL1        0.0174
      6 C           7.2876   -4.4345   22.3668 C.3     1  UNL1        0.0594
      7 C           6.1177   -3.4870   22.2539 C.3     1  UNL1        0.0356
      8 N           7.2829   -3.3922   21.2881 N.3     1  UNL1       -0.2715
      9 O           4.1435   -3.0318   19.0640 O.2     1  UNL1       -0.2701
     10 C           4.1169   -1.7561   19.8527 C.2     1  UNL1        0.2458
     11 N           5.1713   -1.4911   20.8861 N.am    1  UNL1       -0.3024
     12 H           5.1539   -0.6538   21.4037 H       1  UNL1        0.1497
     13 C           3.0359   -0.7454   19.6079 C.ar    1  UNL1        0.0534
     14 C           1.6659   -0.9590   20.1801 C.ar    1  UNL1        0.0045
     15 C           0.5849    0.0516   19.9354 C.ar    1  UNL1        0.0001
     16 C           0.8739    1.2760   19.1183 C.ar    1  UNL1        0.0000
     17 C           2.2439    1.4896   18.5461 C.ar    1  UNL1        0.0002
     18 C           3.3249    0.4789   18.7909 C.ar    1  UNL1        0.0074
     19 C           4.6949    0.6925   18.2187 C.ar    1  UNL1        0.0385
     20 C           5.1348   -0.0869   17.0149 C.ar    1  UNL1        0.1022
     21 N           6.5048    0.1267   16.4427 N.ar    1  UNL1       -0.2224
     22 C           7.4349    1.1198   17.0743 C.ar    1  UNL1        0.1989
     23 N           6.9950    1.8992   18.2780 N.ar    1  UNL1       -0.2224
     24 C           5.6250    1.6856   18.8502 C.ar    1  UNL1        0.1022
     25 C           6.2019   -2.3815   21.0434 C.3     1  UNL1        0.0991
     26 C           5.9094   -1.3317   22.0742 C.ar    1  UNL1       -0.0061
     27 C           6.6376   -0.0209   22.0373 C.ar    1  UNL1       -0.0029
     28 C           6.3450    1.0288   23.0680 C.ar    1  UNL1       -0.0002
     29 C           5.3243    0.7678   24.1357 C.ar    1  UNL1        0.0022
     30 C           5.0318    1.8176   25.1664 C.ar    1  UNL1        0.0296
     31 C           4.0110    1.5565   26.2341 C.ar    1  UNL1        0.1401
     32 F           3.7185    2.6062   27.2648 F       1  UNL1       -0.2042
     33 C           3.2828    0.2456   26.2710 C.ar    1  UNL1        0.0296
     34 C           3.5753   -0.8042   25.2403 C.ar    1  UNL1        0.0023
     35 C           4.5961   -0.5431   24.1726 C.ar    1  UNL1       -0.0001
     36 C           4.8886   -1.5928   23.1419 C.ar    1  UNL1       -0.0029
@<TRIPOS>BOND
     1     9    10    2
     2    10    11   am
     3     1    11    1
     4     1     2    1
     5     3     2    1
     6     3     4    1
     7     4     5    1
     8     6     5    1
     9     6     7    1
    10     6     8    1
    11     8    25    1
    12    25    26    1
    13    26    27   ar
    14    27    28   ar
    15    28    29   ar
    16    29    30   ar
    17    30    31   ar
    18    31    32    1
    19    31    33   ar
    20    33    34   ar
    21    34    35   ar
    22    35    36   ar
    23    10    13    1
    24    13    14   ar
    25    14    15   ar
    26    15    16   ar
    27    16    17   ar
    28    17    18   ar
    29    18    19    1
    30    19    20   ar
    31    20    21   ar
    32    21    22   ar
    33    22    23   ar
    34    23    24   ar
    35     7     1    1
    36    36    26   ar
    37    18    13   ar
    38    24    19   ar
    39     8     3    1
    40    35    29   ar
    41    11    12    1
@<TRIPOS>MOLECULE
*****
 36 41 0 0 0
SMALL
GASTEIGER

@<TRIPOS>ATOM
      1 C           2.2604    1.8662   18.9188 C.3     1  UNL1        0.0745
      2 C           0.8097    1.7100   18.5712 C.3     1  UNL1        0.0356
      3 C           0.0548    2.8579   17.9692 C.3     1  UNL1        0.0594
      4 C          -0.2801    4.2103   17.4134 C.3     1  UNL1        0.0174
      5 C           0.9594    5.0534   17.4672 C.3     1  UNL1        0.0174
      6 C           2.0602    4.2222   18.0563 C.3     1  UNL1        0.0594
      7 C           2.9564    3.1704   18.6644 C.3     1  UNL1        0.0356
      8 N           1.5012    2.8653   18.3666 N.3     1  UNL1       -0.2715
      9 O           3.1994   -0.3892   17.1777 O.2     1  UNL1       -0.2701
     10 C           3.4848   -0.4095   18.6502 C.2     1  UNL1        0.2458
     11 N           3.0153    0.7182   19.5207 N.am    1  UNL1       -0.3024
     12 H           3.2025    0.7048   20.4872 H       1  UNL1        0.1497
     13 C           4.2396   -1.5575   19.2521 C.ar    1  UNL1        0.0534
     14 C           3.4946   -2.7216   19.8351 C.ar    1  UNL1        0.0045
     15 C           4.2494   -3.8696   20.4370 C.ar    1  UNL1        0.0001
     16 C           5.7493   -3.8536   20.4559 C.ar    1  UNL1        0.0000
     17 C           6.4942   -2.6895   19.8729 C.ar    1  UNL1        0.0002
     18 C           5.7394   -1.5414   19.2710 C.ar    1  UNL1        0.0074
     19 C           6.4843   -0.3773   18.6880 C.ar    1  UNL1        0.0385
     20 C           7.0525    0.6775   19.5906 C.ar    1  UNL1        0.1022
     21 N           7.7975    1.8416   19.0076 N.ar    1  UNL1       -0.2224
     22 C           7.9742    1.9509   17.5220 C.ar    1  UNL1        0.1989
     23 N           7.4060    0.8962   16.6195 N.ar    1  UNL1       -0.2224
     24 C           6.6611   -0.2679   17.2025 C.ar    1  UNL1        0.1022
     25 C           2.2561    1.7174   18.9685 C.3     1  UNL1        0.0991
     26 C           2.5853    1.7212   20.4320 C.ar    1  UNL1       -0.0061
     27 C           3.9857    2.0108   20.8849 C.ar    1  UNL1       -0.0029
     28 C           4.3149    2.0146   22.3483 C.ar    1  UNL1       -0.0002
     29 C           3.2438    1.7289   23.3588 C.ar    1  UNL1        0.0022
     30 C           3.5731    1.7328   24.8222 C.ar    1  UNL1        0.0296
     31 C           2.5019    1.4471   25.8327 C.ar    1  UNL1        0.1401
     32 F           2.8312    1.4510   27.2961 F       1  UNL1       -0.2042
     33 C           1.1015    1.1576   25.3798 C.ar    1  UNL1        0.0296
     34 C           0.7723    1.1537   23.9164 C.ar    1  UNL1        0.0023
     35 C           1.8434    1.4394   22.9059 C.ar    1  UNL1       -0.0001
     36 C           1.5142    1.4355   21.4425 C.ar    1  UNL1       -0.0029
@<TRIPOS>BOND
     1     9    10    2
     2    10    11   am
     3     1    11    1
     4     1     2    1
     5     3     2    1
     6     3     4    1
     7     4     5    1
     8     6     5    1
     9     6     7    1
    10     6     8    1
    11     8    25    1
    12    25    26    1
    13    26    27   ar
    14    27    28   ar
    15    28    29   ar
    16    29    30   ar
    17    30    31   ar
    18    31    32    1
    19    31    33   ar
    20    33    34   ar
    21    34    35   ar
    22    35    36   ar
    23    10    13    1
    24    13    14   ar
    25    14    15   ar
    26    15    16   ar
    27    16    17   ar
    28    17    18   ar
    29    18    19    1
    30    19    20   ar
    31    20    21   ar
    32    21    22   ar
    33    22    23   ar
    34    23    24   ar
    35     7     1    1
    36    36    26   ar
    37    18    13   ar
    38    24    19   ar
    39     8     3    1
    40    35    29   ar
    41    11    12    1
@<TRIPOS>MOLECULE
*****
 36 41 0 0 0
SMALL
GASTEIGER

@<TRIPOS>ATOM
      1 C           2.8391    2.8702   37.0896 C.3     1  UNL1        0.0745
      2 C           3.1958    1.4549   37.4358 C.3     1  UNL1        0.0356
      3 C           2.4005    0.7121   38.4681 C.3     1  UNL1        0.0594
      4 C           1.3749    0.3780   39.5104 C.3     1  UNL1        0.0174
      5 C           0.5038    1.5834   39.7067 C.3     1  UNL1        0.0174
      6 C           0.9911    2.6623   38.7855 C.3     1  UNL1        0.0594
      7 C           1.6871    3.5426   37.7757 C.3     1  UNL1        0.0356
      8 N           2.1633    2.1238   38.0200 N.3     1  UNL1       -0.2715
      9 O           5.3790    4.2633   37.8695 O.2     1  UNL1       -0.2701
     10 C           4.9045    4.3095   36.4472 C.2     1  UNL1        0.2458
     11 N           3.6345    3.6130   36.0573 N.am    1  UNL1       -0.3024
     12 H           3.3231    3.6434   35.1238 H       1  UNL1        0.1497
     13 C           5.6999    5.0524   35.4150 C.ar    1  UNL1        0.0534
     14 C           5.4410    6.5102   35.1747 C.ar    1  UNL1        0.0045
     15 C           6.2364    7.2530   34.1425 C.ar    1  UNL1        0.0001
     16 C           7.2907    6.5380   33.3505 C.ar    1  UNL1        0.0000
     17 C           7.5496    5.0801   33.5908 C.ar    1  UNL1        0.0002
     18 C           6.7541    4.3373   34.6231 C.ar    1  UNL1        0.0074
     19 C           7.0130    2.8795   34.8633 C.ar    1  UNL1        0.0385
     20 C           8.0443    2.4564   35.8672 C.ar    1  UNL1        0.1022
     21 N           8.3031    0.9986   36.1075 N.ar    1  UNL1       -0.2224
     22 C           7.5308   -0.0361   35.3439 C.ar    1  UNL1        0.1989
     23 N           6.4996    0.3870   34.3402 N.ar    1  UNL1       -0.2224
     24 C           6.2407    1.8448   34.0999 C.ar    1  UNL1        0.1022
     25 C           2.9586    2.8667   36.9878 C.3     1  UNL1        0.0991
     26 C           2.3696    3.1301   35.6336 C.ar    1  UNL1       -0.0061
     27 C           1.6107    4.3987   35.3797 C.ar    1  UNL1       -0.0029
     28 C           1.0217    4.6621   34.0255 C.ar    1  UNL1       -0.0002
     29 C           1.1916    3.6567   32.9254 C.ar    1  UNL1        0.0022
     30 C           0.6025    3.9201   31.5712 C.ar    1  UNL1        0.0296
     31 C           0.7724    2.9148   30.4710 C.ar    1  UNL1        0.1401
     32 F           0.1834    3.1781   29.1169 F       1  UNL1       -0.2042
     33 C           1.5314    1.6460   30.7250 C.ar    1  UNL1        0.0296
     34 C           2.1204    1.3827   32.0791 C.ar    1  UNL1        0.0023
     35 C           1.9505    2.3880   33.1793 C.ar    1  UNL1       -0.0001
     36 C           2.5395    2.1247   34.5334 C.ar    1  UNL1       -0.0029
@<TRIPOS>BOND
     1     9    10    2
     2    10    11   am
     3     1    11    1
     4     1     2    1
     5     3     2    1
     6     3     4    1
     7     4     5    1
     8     6     5    1
     9     6     7    1
    10     6     8    1
    11     8    25    1
    12    25    26    1
    13    26    27   ar
    14    27    28   ar
    15    28    29   ar
    16    29    30   ar
    17    30    31   ar
    18    31    32    1
    19    31    33   ar
    20    33    34   ar
    21    34    35   ar
    22    35    36   ar
    23    10    13    1
    24    13    14   ar
    25    14    15   ar
    26    15    16   ar
    27    16    17   ar
    28    17    18   ar
    29    18    19    1
    30    19    20   ar
    31    20    21   ar
    32    21    22   ar
    33    22    23   ar
    34    23    24   ar
    35     7     1    1
    36    36    26   ar
    37    18    13   ar
    38    24    19   ar
    39     8     3    1
    40    35    29   ar
    41    11    12    1
