@<TRIPOS>MOLECULE
*****
 46 49 0 0 0
SMALL
GASTEIGER

@<TRIPOS>ATOM
      1 C          -0.3775    3.3077   18.1400 C.2     1  UNL1        0.2490
      2 O          -0.9111    3.6267   16.7749 O.2     1  UNL1       -0.2699
      3 N          -1.2696    3.4249   19.3402 N.am    1  UNL1       -0.2743
      4 C          -0.7360    3.1059   20.7053 C.3     1  UNL1        0.1152
      5 C          -1.6281    3.2231   21.9055 C.3     1  UNL1        0.1149
      6 N          -3.0538    3.6593   21.7406 N.am    1  UNL1       -0.2761
      7 C          -3.9459    3.7764   22.9408 C.2     1  UNL1        0.2257
      8 O          -5.3715    4.2126   22.7759 O.2     1  UNL1       -0.2749
      9 C          -3.5873    3.9783   20.3755 C.3     1  UNL1        0.1132
     10 C          -2.6953    3.8611   19.1752 C.3     1  UNL1        0.0955
     11 C          -3.2288    4.1801   17.8102 C.3     1  UNL1        0.0233
     12 C           3.8995    1.9991   18.6348 C.ar    1  UNL1        0.1306
     13 C           2.8035    0.9764   18.5826 C.ar    1  UNL1        0.0110
     14 C           1.3779    1.4126   18.4177 C.ar    1  UNL1        0.0032
     15 C           1.0482    2.8715   18.3049 C.ar    1  UNL1        0.0532
     16 C           2.1442    3.8943   18.3571 C.ar    1  UNL1        0.0032
     17 C           3.5698    3.4581   18.5220 C.ar    1  UNL1        0.0110
     18 C           3.1332   -0.4826   18.6954 C.3     1  UNL1        0.0218
     19 C           2.7332   -0.4613   20.1409 C.3     1  UNL1        0.0045
     20 C           3.5332   -0.5039   17.2499 C.3     1  UNL1        0.0045
     21 C           3.4628   -1.9416   18.8082 C.3     1  UNL1        0.0045
     22 C           4.6658    4.4809   18.5741 C.3     1  UNL1        0.0218
     23 C           4.9525    4.2478   17.1204 C.3     1  UNL1        0.0045
     24 C           4.3792    4.7141   20.0279 C.3     1  UNL1        0.0045
     25 C           5.7618    5.5037   18.6262 C.3     1  UNL1        0.0045
     26 C           5.9107    1.4167   20.1729 C.3     1  UNL1        0.2524
     27 O           5.3252    1.5629   18.7997 O.3     1  UNL1       -0.4721
     28 C          -3.4123    3.4574   24.3059 C.3     1  UNL1        0.0853
     29 C          -2.8659    4.5531   25.1724 C.3     1  UNL1        0.0096
     30 C          -2.2676    4.2250   26.5083 C.3     1  UNL1        0.0012
     31 C          -1.8819    2.8118   26.8306 C.3     1  UNL1        0.0087
     32 C          -0.4373    2.4079   26.8214 C.3     1  UNL1        0.0446
     33 C           0.3343    2.4119   25.5350 C.ar    1  UNL1       -0.0183
     34 C           0.3827    1.1766   24.6856 C.ar    1  UNL1       -0.0017
     35 C           1.1543    1.1806   23.3993 C.ar    1  UNL1        0.0293
     36 C           1.8776    2.4200   22.9624 C.ar    1  UNL1        0.1401
     37 F           2.6493    2.4240   21.6762 F       1  UNL1       -0.2042
     38 C           1.8293    3.6553   23.8120 C.ar    1  UNL1        0.0293
     39 C           1.0576    3.6513   25.0982 C.ar    1  UNL1       -0.0017
     40 C           0.2356    2.0001   28.0984 C.ar    1  UNL1       -0.0183
     41 C           0.5150    0.5515   28.3695 C.ar    1  UNL1       -0.0017
     42 C           1.1880    0.1436   29.6465 C.ar    1  UNL1        0.0293
     43 C           1.5816    1.1844   30.6524 C.ar    1  UNL1        0.1401
     44 F           2.2545    0.7765   31.9294 F       1  UNL1       -0.2042
     45 C           1.3022    2.6330   30.3814 C.ar    1  UNL1        0.0293
     46 C           0.6292    3.0409   29.1044 C.ar    1  UNL1       -0.0017
@<TRIPOS>BOND
     1    26    27    1
     2    27    12    1
     3    12    13   ar
     4    13    18    1
     5    18    19    1
     6    18    20    1
     7    18    21    1
     8    13    14   ar
     9    14    15   ar
    10    15     1    1
    11     1     2    2
    12     1     3   am
    13     3     4    1
    14     4     5    1
    15     5     6    1
    16     6     7   am
    17     7     8    2
    18     7    28    1
    19    28    29    1
    20    29    30    1
    21    30    31    1
    22    31    32    1
    23    32    33    1
    24    33    34   ar
    25    34    35   ar
    26    35    36   ar
    27    36    37    1
    28    36    38   ar
    29    38    39   ar
    30    32    40    1
    31    40    41   ar
    32    41    42   ar
    33    42    43   ar
    34    43    44    1
    35    43    45   ar
    36    45    46   ar
    37     6     9    1
    38     9    10    1
    39    10    11    1
    40    15    16   ar
    41    16    17   ar
    42    17    22    1
    43    22    23    1
    44    22    24    1
    45    22    25    1
    46    17    12   ar
    47    10     3    1
    48    39    33   ar
    49    46    40   ar
@<TRIPOS>MOLECULE
*****
 46 49 0 0 0
SMALL
GASTEIGER

@<TRIPOS>ATOM
      1 C          -0.4150    3.3257   18.1384 C.2     1  UNL1        0.2490
      2 O          -0.9496    3.6324   16.7708 O.2     1  UNL1       -0.2699
      3 N          -1.3093    3.4434   19.3369 N.am    1  UNL1       -0.2743
      4 C          -0.7747    3.1367   20.7045 C.3     1  UNL1        0.1152
      5 C          -1.6690    3.2544   21.9030 C.3     1  UNL1        0.1149
      6 N          -3.0977    3.6788   21.7340 N.am    1  UNL1       -0.2761
      7 C          -3.9919    3.7965   22.9326 C.2     1  UNL1        0.2257
      8 O          -5.4207    4.2209   22.7636 O.2     1  UNL1       -0.2749
      9 C          -3.6322    3.9855   20.3665 C.3     1  UNL1        0.1132
     10 C          -2.7380    3.8678   19.1679 C.3     1  UNL1        0.0955
     11 C          -3.2725    4.1745   17.8003 C.3     1  UNL1        0.0233
     12 C           3.8712    2.0525   18.6454 C.ar    1  UNL1        0.1306
     13 C           3.5305    3.5083   18.5252 C.ar    1  UNL1        0.0110
     14 C           2.1017    3.9327   18.3562 C.ar    1  UNL1        0.0032
     15 C           1.0137    2.9013   18.3074 C.ar    1  UNL1        0.0532
     16 C           1.3544    1.4455   18.4276 C.ar    1  UNL1        0.0032
     17 C           2.7832    1.0211   18.5966 C.ar    1  UNL1        0.0110
     18 C           4.6185    4.5398   18.5740 C.3     1  UNL1        0.0218
     19 C           4.8870    4.3257   17.1139 C.3     1  UNL1        0.0045
     20 C           4.3500    4.7538   20.0341 C.3     1  UNL1        0.0045
     21 C           5.7064    5.5712   18.6229 C.3     1  UNL1        0.0045
     22 C           3.1239   -0.4348   18.7168 C.3     1  UNL1        0.0218
     23 C           2.6990   -0.4154   20.1552 C.3     1  UNL1        0.0045
     24 C           3.5488   -0.4542   17.2784 C.3     1  UNL1        0.0045
     25 C           3.4646   -1.8906   18.8370 C.3     1  UNL1        0.0045
     26 C           5.8714    1.4487   20.1896 C.3     1  UNL1        0.2524
     27 O           5.2999    1.6281   18.8144 O.3     1  UNL1       -0.4721
     28 C          -3.4574    3.4898   24.3001 C.3     1  UNL1        0.0853
     29 C          -2.9434    4.5981   25.1704 C.3     1  UNL1        0.0096
     30 C          -2.3013    4.2806   26.4883 C.3     1  UNL1        0.0012
     31 C          -1.9173    2.8677   26.8145 C.3     1  UNL1        0.0087
     32 C          -0.4732    2.4624   26.8073 C.3     1  UNL1        0.0446
     33 C           0.1989    2.0587   28.0862 C.ar    1  UNL1       -0.0183
     34 C           0.4396    0.6079   28.3814 C.ar    1  UNL1       -0.0017
     35 C           1.1117    0.2042   29.6602 C.ar    1  UNL1        0.0293
     36 C           1.5430    1.2513   30.6438 C.ar    1  UNL1        0.1401
     37 F           2.2150    0.8477   31.9226 F       1  UNL1       -0.2042
     38 C           1.3022    2.7022   30.3486 C.ar    1  UNL1        0.0293
     39 C           0.6302    3.1058   29.0697 C.ar    1  UNL1       -0.0017
     40 C           0.2990    2.4607   25.5213 C.ar    1  UNL1       -0.0183
     41 C           1.0140    3.7012   25.0742 C.ar    1  UNL1       -0.0017
     42 C           1.7861    3.6995   23.7882 C.ar    1  UNL1        0.0293
     43 C           1.8433    2.4574   22.9493 C.ar    1  UNL1        0.1401
     44 F           2.6154    2.4557   21.6633 F       1  UNL1       -0.2042
     45 C           1.1282    1.2168   23.3964 C.ar    1  UNL1        0.0293
     46 C           0.3561    1.2185   24.6824 C.ar    1  UNL1       -0.0017
@<TRIPOS>BOND
     1    26    27    1
     2    27    12    1
     3    12    13   ar
     4    13    18    1
     5    18    19    1
     6    18    20    1
     7    18    21    1
     8    13    14   ar
     9    14    15   ar
    10    15     1    1
    11     1     2    2
    12     1     3   am
    13     3     4    1
    14     4     5    1
    15     5     6    1
    16     6     7   am
    17     7     8    2
    18     7    28    1
    19    28    29    1
    20    29    30    1
    21    30    31    1
    22    31    32    1
    23    32    33    1
    24    33    34   ar
    25    34    35   ar
    26    35    36   ar
    27    36    37    1
    28    36    38   ar
    29    38    39   ar
    30    32    40    1
    31    40    41   ar
    32    41    42   ar
    33    42    43   ar
    34    43    44    1
    35    43    45   ar
    36    45    46   ar
    37     6     9    1
    38     9    10    1
    39    10    11    1
    40    15    16   ar
    41    16    17   ar
    42    17    22    1
    43    22    23    1
    44    22    24    1
    45    22    25    1
    46    17    12   ar
    47    10     3    1
    48    39    33   ar
    49    46    40   ar
@<TRIPOS>MOLECULE
*****
 46 49 0 0 0
SMALL
GASTEIGER

@<TRIPOS>ATOM
      1 C          -0.2315    3.3195   18.1620 C.2     1  UNL1        0.2490
      2 O          -0.7682    3.6518   16.8013 O.2     1  UNL1       -0.2699
      3 N          -1.1204    3.4261   19.3654 N.am    1  UNL1       -0.2743
      4 C          -0.5837    3.0938   20.7262 C.3     1  UNL1        0.1152
      5 C          -1.4726    3.2005   21.9296 C.3     1  UNL1        0.1149
      6 N          -2.8983    3.6393   21.7724 N.am    1  UNL1       -0.2761
      7 C          -3.7873    3.7459   22.9760 C.2     1  UNL1        0.2257
      8 O          -5.2130    4.1848   22.8188 O.2     1  UNL1       -0.2749
      9 C          -3.4351    3.9716   20.4118 C.3     1  UNL1        0.1132
     10 C          -2.5461    3.8650   19.2082 C.3     1  UNL1        0.0955
     11 C          -3.0829    4.1973   17.8476 C.3     1  UNL1        0.0233
     12 C           4.0457    2.0029   18.6336 C.ar    1  UNL1        0.1306
     13 C           3.7199    3.4612   18.5035 C.ar    1  UNL1        0.0110
     14 C           2.2942    3.9001   18.3463 C.ar    1  UNL1        0.0032
     15 C           1.1942    2.8806   18.3192 C.ar    1  UNL1        0.0532
     16 C           1.5201    1.4223   18.4492 C.ar    1  UNL1        0.0032
     17 C           2.9458    0.9834   18.6064 C.ar    1  UNL1        0.0110
     18 C           4.8198    4.4808   18.5307 C.3     1  UNL1        0.0218
     19 C           4.8161    4.4450   20.0302 C.3     1  UNL1        0.0045
     20 C           4.8236    4.5166   17.0311 C.3     1  UNL1        0.0045
     21 C           5.9197    5.5003   18.5578 C.3     1  UNL1        0.0045
     22 C           3.2715   -0.4751   18.7365 C.3     1  UNL1        0.0218
     23 C           3.4438   -0.5692   17.2494 C.3     1  UNL1        0.0045
     24 C           3.0993   -0.3810   20.2236 C.3     1  UNL1        0.0045
     25 C           3.5973   -1.9335   18.8665 C.3     1  UNL1        0.0045
     26 C           6.3256    1.3413   17.5781 C.3     1  UNL1        0.2524
     27 O           5.4714    1.5640   18.7908 O.3     1  UNL1       -0.4721
     28 C          -3.2505    3.4137   24.3366 C.3     1  UNL1        0.0853
     29 C          -2.6550    4.4925   25.1919 C.3     1  UNL1        0.0096
     30 C          -2.1074    4.1581   26.5478 C.3     1  UNL1        0.0012
     31 C          -1.7262    2.7448   26.8750 C.3     1  UNL1        0.0087
     32 C          -0.2841    2.3327   26.8526 C.3     1  UNL1        0.0446
     33 C           0.4840    2.3608   25.5645 C.ar    1  UNL1       -0.0183
     34 C           0.5122    1.1487   24.6814 C.ar    1  UNL1       -0.0017
     35 C           1.2804    1.1768   23.3933 C.ar    1  UNL1        0.0293
     36 C           2.0203    2.4172   22.9882 C.ar    1  UNL1        0.1401
     37 F           2.7884    2.4454   21.7002 F       1  UNL1       -0.2042
     38 C           1.9921    3.6294   23.8714 C.ar    1  UNL1        0.0293
     39 C           1.2240    3.6012   25.1594 C.ar    1  UNL1       -0.0017
     40 C           0.3899    1.8924   28.1183 C.ar    1  UNL1       -0.0183
     41 C           0.6927    0.4403   28.3407 C.ar    1  UNL1       -0.0017
     42 C           1.3668    0.0001   29.6064 C.ar    1  UNL1        0.0293
     43 C           1.7380    1.0119   30.6496 C.ar    1  UNL1        0.1401
     44 F           2.4120    0.5717   31.9152 F       1  UNL1       -0.2042
     45 C           1.4351    2.4642   30.4271 C.ar    1  UNL1        0.0293
     46 C           0.7611    2.9044   29.1615 C.ar    1  UNL1       -0.0017
@<TRIPOS>BOND
     1    26    27    1
     2    27    12    1
     3    12    13   ar
     4    13    18    1
     5    18    19    1
     6    18    20    1
     7    18    21    1
     8    13    14   ar
     9    14    15   ar
    10    15     1    1
    11     1     2    2
    12     1     3   am
    13     3     4    1
    14     4     5    1
    15     5     6    1
    16     6     7   am
    17     7     8    2
    18     7    28    1
    19    28    29    1
    20    29    30    1
    21    30    31    1
    22    31    32    1
    23    32    33    1
    24    33    34   ar
    25    34    35   ar
    26    35    36   ar
    27    36    37    1
    28    36    38   ar
    29    38    39   ar
    30    32    40    1
    31    40    41   ar
    32    41    42   ar
    33    42    43   ar
    34    43    44    1
    35    43    45   ar
    36    45    46   ar
    37     6     9    1
    38     9    10    1
    39    10    11    1
    40    15    16   ar
    41    16    17   ar
    42    17    22    1
    43    22    23    1
    44    22    24    1
    45    22    25    1
    46    17    12   ar
    47    10     3    1
    48    39    33   ar
    49    46    40   ar
@<TRIPOS>MOLECULE
*****
 46 49 0 0 0
SMALL
GASTEIGER

@<TRIPOS>ATOM
      1 C           3.5897   -0.7386   31.6793 C.2     1  UNL1        0.2490
      2 O           3.5096   -2.1793   32.0890 O.2     1  UNL1       -0.2699
      3 N           4.1101    0.2871   32.6420 N.am    1  UNL1       -0.2743
      4 C           4.1902    1.7279   32.2323 C.3     1  UNL1        0.1152
      5 C           4.7107    2.7536   33.1950 C.3     1  UNL1        0.1149
      6 N           5.1510    2.3387   34.5676 N.am    1  UNL1       -0.2761
      7 C           5.6715    3.3645   35.5304 C.2     1  UNL1        0.2257
      8 O           6.1118    2.9495   36.9029 O.2     1  UNL1       -0.2749
      9 C           5.0709    0.8980   34.9774 C.3     1  UNL1        0.1132
     10 C           4.5504   -0.1278   34.0146 C.3     1  UNL1        0.0955
     11 C           4.4703   -1.5685   34.4244 C.3     1  UNL1        0.0233
     12 C           2.2687    0.5063   27.5616 C.ar    1  UNL1        0.1306
     13 C           1.3120    0.5910   28.7137 C.ar    1  UNL1        0.0110
     14 C           1.7523    0.1760   30.0863 C.ar    1  UNL1        0.0032
     15 C           3.1493   -0.3236   30.3067 C.ar    1  UNL1        0.0532
     16 C           4.1060   -0.4083   29.1545 C.ar    1  UNL1        0.0032
     17 C           3.6657    0.0066   27.7820 C.ar    1  UNL1        0.0110
     18 C          -0.0851    1.0906   28.4934 C.3     1  UNL1        0.0218
     19 C          -0.5538   -0.3170   28.2725 C.3     1  UNL1        0.0045
     20 C           0.3835    2.4983   28.7142 C.3     1  UNL1        0.0045
     21 C          -1.4822    1.5903   28.2730 C.3     1  UNL1        0.0045
     22 C           4.6225   -0.0781   26.6298 C.3     1  UNL1        0.0218
     23 C           5.2328    1.2291   27.0406 C.3     1  UNL1        0.0045
     24 C           4.0122   -1.3852   26.2190 C.3     1  UNL1        0.0045
     25 C           5.5792   -0.1627   25.4777 C.3     1  UNL1        0.0045
     26 C           2.0980    2.3148   25.7042 C.3     1  UNL1        0.2524
     27 O           1.8283    0.9212   26.1890 O.3     1  UNL1       -0.4721
     28 C           5.7516    4.8052   35.1206 C.3     1  UNL1        0.0853
     29 C           4.7711    5.7974   35.6721 C.3     1  UNL1        0.0096
     30 C           4.4073    5.7631   37.1269 C.3     1  UNL1        0.0012
     31 C           2.9663    5.7000   37.5384 C.3     1  UNL1        0.0087
     32 C           2.0727    4.6330   36.9790 C.3     1  UNL1        0.0446
     33 C           1.3832    4.8455   35.6638 C.ar    1  UNL1       -0.0183
     34 C           1.6325    3.9014   34.5252 C.ar    1  UNL1       -0.0017
     35 C           0.9430    4.1139   33.2100 C.ar    1  UNL1        0.0293
     36 C           0.0044    5.2706   33.0336 C.ar    1  UNL1        0.1401
     37 F          -0.6851    5.4831   31.7185 F       1  UNL1       -0.2042
     38 C          -0.2448    6.2147   34.1723 C.ar    1  UNL1        0.0293
     39 C           0.4446    6.0021   35.4874 C.ar    1  UNL1       -0.0017
     40 C           1.8685    3.3534   37.7347 C.ar    1  UNL1       -0.0183
     41 C           0.6660    3.1863   38.6155 C.ar    1  UNL1       -0.0017
     42 C           0.4618    1.9068   39.3712 C.ar    1  UNL1        0.0293
     43 C           1.4601    0.7943   39.2460 C.ar    1  UNL1        0.1401
     44 F           1.2559   -0.4852   40.0017 F       1  UNL1       -0.2042
     45 C           2.6627    0.9614   38.3651 C.ar    1  UNL1        0.0293
     46 C           2.8669    2.2409   37.6094 C.ar    1  UNL1       -0.0017
@<TRIPOS>BOND
     1    26    27    1
     2    27    12    1
     3    12    13   ar
     4    13    18    1
     5    18    19    1
     6    18    20    1
     7    18    21    1
     8    13    14   ar
     9    14    15   ar
    10    15     1    1
    11     1     2    2
    12     1     3   am
    13     3     4    1
    14     4     5    1
    15     5     6    1
    16     6     7   am
    17     7     8    2
    18     7    28    1
    19    28    29    1
    20    29    30    1
    21    30    31    1
    22    31    32    1
    23    32    33    1
    24    33    34   ar
    25    34    35   ar
    26    35    36   ar
    27    36    37    1
    28    36    38   ar
    29    38    39   ar
    30    32    40    1
    31    40    41   ar
    32    41    42   ar
    33    42    43   ar
    34    43    44    1
    35    43    45   ar
    36    45    46   ar
    37     6     9    1
    38     9    10    1
    39    10    11    1
    40    15    16   ar
    41    16    17   ar
    42    17    22    1
    43    22    23    1
    44    22    24    1
    45    22    25    1
    46    17    12   ar
    47    10     3    1
    48    39    33   ar
    49    46    40   ar
@<TRIPOS>MOLECULE
*****
 46 49 0 0 0
SMALL
GASTEIGER

@<TRIPOS>ATOM
      1 C           3.5828   -0.7320   31.6814 C.2     1  UNL1        0.2490
      2 O           3.4978   -2.1736   32.0869 O.2     1  UNL1       -0.2699
      3 N           4.1117    0.2883   32.6453 N.am    1  UNL1       -0.2743
      4 C           4.1968    1.7300   32.2398 C.3     1  UNL1        0.1152
      5 C           4.7257    2.7502   33.2038 C.3     1  UNL1        0.1149
      6 N           5.1696    2.3289   34.5732 N.am    1  UNL1       -0.2761
      7 C           5.6985    3.3493   35.5372 C.2     1  UNL1        0.2257
      8 O           6.1425    2.9279   36.9067 O.2     1  UNL1       -0.2749
      9 C           5.0846    0.8873   34.9788 C.3     1  UNL1        0.1132
     10 C           4.5556   -0.1331   34.0148 C.3     1  UNL1        0.0955
     11 C           4.4706   -1.5747   34.4203 C.3     1  UNL1        0.0233
     12 C           2.2511    0.5320   27.5730 C.ar    1  UNL1        0.1306
     13 C           3.6493    0.0331   27.7878 C.ar    1  UNL1        0.0110
     14 C           4.0932   -0.3882   29.1573 C.ar    1  UNL1        0.0032
     15 C           3.1389   -0.3107   30.3119 C.ar    1  UNL1        0.0532
     16 C           1.7407    0.1882   30.0971 C.ar    1  UNL1        0.0032
     17 C           1.2968    0.6095   28.7277 C.ar    1  UNL1        0.0110
     18 C           4.6036   -0.0444   26.6331 C.3     1  UNL1        0.0218
     19 C           5.2058    1.2669   27.0427 C.3     1  UNL1        0.0045
     20 C           4.0014   -1.3557   26.2235 C.3     1  UNL1        0.0045
     21 C           5.5579   -0.1220   25.4784 C.3     1  UNL1        0.0045
     22 C          -0.1015    1.1084   28.5129 C.3     1  UNL1        0.0218
     23 C           0.3579    2.5110   28.7808 C.3     1  UNL1        0.0045
     24 C          -0.5608   -0.2941   28.2450 C.3     1  UNL1        0.0045
     25 C          -1.4996    1.6073   28.2982 C.3     1  UNL1        0.0045
     26 C           2.0505    2.3574   25.7352 C.3     1  UNL1        0.2524
     27 O           1.8072    0.9533   26.2036 O.3     1  UNL1       -0.4721
     28 C           5.7836    4.7909   35.1317 C.3     1  UNL1        0.0853
     29 C           4.7907    5.7801   35.6661 C.3     1  UNL1        0.0096
     30 C           4.4062    5.7483   37.1157 C.3     1  UNL1        0.0012
     31 C           2.9587    5.7093   37.5071 C.3     1  UNL1        0.0087
     32 C           2.0604    4.6439   36.9523 C.3     1  UNL1        0.0446
     33 C           1.8543    3.3665   37.7112 C.ar    1  UNL1       -0.0183
     34 C           0.6620    3.2108   38.6079 C.ar    1  UNL1       -0.0017
     35 C           0.4560    1.9335   39.3668 C.ar    1  UNL1        0.0293
     36 C           1.4423    0.8117   39.2290 C.ar    1  UNL1        0.1401
     37 F           1.2362   -0.4656   39.9878 F       1  UNL1       -0.2042
     38 C           2.6346    0.9674   38.3322 C.ar    1  UNL1        0.0293
     39 C           2.8406    2.2448   37.5733 C.ar    1  UNL1       -0.0017
     40 C           1.3680    4.8558   35.6386 C.ar    1  UNL1       -0.0183
     41 C           0.4407    6.0210   35.4589 C.ar    1  UNL1       -0.0017
     42 C          -0.2516    6.2329   34.1452 C.ar    1  UNL1        0.0293
     43 C          -0.0167    5.2796   33.0113 C.ar    1  UNL1        0.1401
     44 F          -0.7090    5.4915   31.6976 F       1  UNL1       -0.2042
     45 C           0.9107    4.1143   33.1909 C.ar    1  UNL1        0.0293
     46 C           1.6030    3.9024   34.5046 C.ar    1  UNL1       -0.0017
@<TRIPOS>BOND
     1    26    27    1
     2    27    12    1
     3    12    13   ar
     4    13    18    1
     5    18    19    1
     6    18    20    1
     7    18    21    1
     8    13    14   ar
     9    14    15   ar
    10    15     1    1
    11     1     2    2
    12     1     3   am
    13     3     4    1
    14     4     5    1
    15     5     6    1
    16     6     7   am
    17     7     8    2
    18     7    28    1
    19    28    29    1
    20    29    30    1
    21    30    31    1
    22    31    32    1
    23    32    33    1
    24    33    34   ar
    25    34    35   ar
    26    35    36   ar
    27    36    37    1
    28    36    38   ar
    29    38    39   ar
    30    32    40    1
    31    40    41   ar
    32    41    42   ar
    33    42    43   ar
    34    43    44    1
    35    43    45   ar
    36    45    46   ar
    37     6     9    1
    38     9    10    1
    39    10    11    1
    40    15    16   ar
    41    16    17   ar
    42    17    22    1
    43    22    23    1
    44    22    24    1
    45    22    25    1
    46    17    12   ar
    47    10     3    1
    48    39    33   ar
    49    46    40   ar
@<TRIPOS>MOLECULE
*****
 46 49 0 0 0
SMALL
GASTEIGER

@<TRIPOS>ATOM
      1 C           4.9127   -0.9819   28.4031 C.2     1  UNL1        0.2490
      2 O           5.4526   -1.4559   29.7199 O.2     1  UNL1       -0.2699
      3 N           5.2605   -1.7159   27.1420 N.am    1  UNL1       -0.2743
      4 C           4.7207   -1.2420   25.8252 C.3     1  UNL1        0.1152
      5 C           5.0685   -1.9759   24.5641 C.3     1  UNL1        0.1149
      6 N           5.9561   -3.1838   24.6198 N.am    1  UNL1       -0.2761
      7 C           6.3039   -3.9177   23.3587 C.2     1  UNL1        0.2257
      8 O           7.1916   -5.1256   23.4144 O.2     1  UNL1       -0.2749
      9 C           6.4960   -3.6577   25.9366 C.3     1  UNL1        0.1132
     10 C           6.1482   -2.9237   27.1977 C.3     1  UNL1        0.0955
     11 C           6.6881   -3.3977   28.5145 C.3     1  UNL1        0.0233
     12 C           2.2497    2.6417   28.2360 C.ar    1  UNL1        0.1306
     13 C           3.7406    2.8060   28.2365 C.ar    1  UNL1        0.0110
     14 C           4.6283    1.5981   28.2922 C.ar    1  UNL1        0.0032
     15 C           4.0250    0.2259   28.3474 C.ar    1  UNL1        0.0532
     16 C           2.5341    0.0616   28.3469 C.ar    1  UNL1        0.0032
     17 C           1.6464    1.2695   28.2912 C.ar    1  UNL1        0.0110
     18 C           4.3440    4.1782   28.1814 C.3     1  UNL1        0.0218
     19 C           4.5158    4.0431   26.6974 C.3     1  UNL1        0.0045
     20 C           4.1722    4.3134   29.6653 C.3     1  UNL1        0.0045
     21 C           4.9473    5.5504   28.1262 C.3     1  UNL1        0.0045
     22 C           0.1554    1.1051   28.2906 C.3     1  UNL1        0.0218
     23 C           0.1395    1.2454   29.7839 C.3     1  UNL1        0.0045
     24 C           0.1714    0.9647   26.7973 C.3     1  UNL1        0.0045
     25 C          -1.3355    0.9407   28.2902 C.3     1  UNL1        0.0045
     26 C           0.9393    4.4091   26.8544 C.3     1  UNL1        0.2524
     27 O           1.3620    3.8495   28.1803 O.3     1  UNL1       -0.4721
     28 C           5.7641   -3.4438   22.0419 C.3     1  UNL1        0.0853
     29 C           4.4621   -3.9824   21.5276 C.3     1  UNL1        0.0096
     30 C           4.2417   -4.1285   20.0510 C.3     1  UNL1        0.0012
     31 C           3.3504   -3.1638   19.3266 C.3     1  UNL1        0.0087
     32 C           3.5680   -1.6869   19.4727 C.3     1  UNL1        0.0446
     33 C           2.6897   -0.8863   20.3880 C.ar    1  UNL1       -0.0183
     34 C           3.1775   -0.5090   21.7553 C.ar    1  UNL1       -0.0017
     35 C           2.2992    0.2917   22.6705 C.ar    1  UNL1        0.0293
     36 C           0.9331    0.7150   22.2183 C.ar    1  UNL1        0.1401
     37 F           0.0548    1.5156   23.1335 F       1  UNL1       -0.2042
     38 C           0.4453    0.3377   20.8509 C.ar    1  UNL1        0.0293
     39 C           1.3236   -0.4629   19.9358 C.ar    1  UNL1       -0.0017
     40 C           4.6640   -1.0106   18.7036 C.ar    1  UNL1       -0.0183
     41 C           6.0906   -1.1606   19.1419 C.ar    1  UNL1       -0.0017
     42 C           7.1866   -0.4843   18.3728 C.ar    1  UNL1        0.0293
     43 C           6.8559    0.3420   17.1654 C.ar    1  UNL1        0.1401
     44 F           7.9518    1.0183   16.3963 F       1  UNL1       -0.2042
     45 C           5.4291    0.4920   16.7271 C.ar    1  UNL1        0.0293
     46 C           4.3332   -0.1843   17.4962 C.ar    1  UNL1       -0.0017
@<TRIPOS>BOND
     1    26    27    1
     2    27    12    1
     3    12    13   ar
     4    13    18    1
     5    18    19    1
     6    18    20    1
     7    18    21    1
     8    13    14   ar
     9    14    15   ar
    10    15     1    1
    11     1     2    2
    12     1     3   am
    13     3     4    1
    14     4     5    1
    15     5     6    1
    16     6     7   am
    17     7     8    2
    18     7    28    1
    19    28    29    1
    20    29    30    1
    21    30    31    1
    22    31    32    1
    23    32    33    1
    24    33    34   ar
    25    34    35   ar
    26    35    36   ar
    27    36    37    1
    28    36    38   ar
    29    38    39   ar
    30    32    40    1
    31    40    41   ar
    32    41    42   ar
    33    42    43   ar
    34    43    44    1
    35    43    45   ar
    36    45    46   ar
    37     6     9    1
    38     9    10    1
    39    10    11    1
    40    15    16   ar
    41    16    17   ar
    42    17    22    1
    43    22    23    1
    44    22    24    1
    45    22    25    1
    46    17    12   ar
    47    10     3    1
    48    39    33   ar
    49    46    40   ar
@<TRIPOS>MOLECULE
*****
 46 49 0 0 0
SMALL
GASTEIGER

@<TRIPOS>ATOM
      1 C           1.5959   -0.0308   28.9649 C.2     1  UNL1        0.2490
      2 O           0.4239   -0.2286   29.8799 O.2     1  UNL1       -0.2699
      3 N           1.3962    0.5887   27.6136 N.am    1  UNL1       -0.2743
      4 C           2.5682    0.7866   26.6985 C.3     1  UNL1        0.1152
      5 C           2.3685    1.4061   25.3471 C.3     1  UNL1        0.1149
      6 N           0.9967    1.8278   24.9107 N.am    1  UNL1       -0.2761
      7 C           0.7970    2.4473   23.5593 C.2     1  UNL1        0.2257
      8 O          -0.5748    2.8690   23.1228 O.2     1  UNL1       -0.2749
      9 C          -0.1753    1.6299   25.8257 C.3     1  UNL1        0.1132
     10 C           0.0244    1.0104   27.1771 C.3     1  UNL1        0.0955
     11 C          -1.1476    0.8126   28.0921 C.3     1  UNL1        0.0233
     12 C           5.7112   -1.2958   30.2742 C.ar    1  UNL1        0.1306
     13 C           4.6777   -0.9304   31.2980 C.ar    1  UNL1        0.0110
     14 C           3.3059   -0.5088   30.8616 C.ar    1  UNL1        0.0032
     15 C           2.9677   -0.4524   29.4014 C.ar    1  UNL1        0.0532
     16 C           4.0012   -0.8178   28.3775 C.ar    1  UNL1        0.0032
     17 C           5.3730   -1.2395   28.8139 C.ar    1  UNL1        0.0110
     18 C           5.0159   -0.9867   32.7584 C.3     1  UNL1        0.0218
     19 C           4.4121   -2.3571   32.8454 C.3     1  UNL1        0.0045
     20 C           5.6196    0.3836   32.6713 C.3     1  UNL1        0.0045
     21 C           5.3541   -1.0430   34.2186 C.3     1  UNL1        0.0045
     22 C           6.4065   -1.6048   27.7900 C.3     1  UNL1        0.0218
     23 C           6.8369   -0.1700   27.7126 C.3     1  UNL1        0.0045
     24 C           5.9761   -3.0396   27.8675 C.3     1  UNL1        0.0045
     25 C           7.4400   -1.9701   26.7662 C.3     1  UNL1        0.0045
     26 C           7.3570   -3.1555   31.0375 C.3     1  UNL1        0.2524
     27 O           7.0830   -1.7175   30.7106 O.3     1  UNL1       -0.4721
     28 C           1.9690    2.6451   22.6443 C.3     1  UNL1        0.0853
     29 C           2.3170    1.5933   21.6332 C.3     1  UNL1        0.0096
     30 C           1.4032    0.4221   21.4244 C.3     1  UNL1        0.0012
     31 C           1.9008   -0.7994   20.7099 C.3     1  UNL1        0.0087
     32 C           3.3737   -1.0688   20.6218 C.3     1  UNL1        0.0446
     33 C           4.1647   -0.5406   19.4618 C.ar    1  UNL1       -0.0183
     34 C           3.7112   -0.8136   18.0584 C.ar    1  UNL1       -0.0017
     35 C           4.5022   -0.2854   16.8984 C.ar    1  UNL1        0.0293
     36 C           5.7467    0.5158   17.1420 C.ar    1  UNL1        0.1401
     37 F           6.5377    1.0439   15.9821 F       1  UNL1       -0.2042
     38 C           6.2002    0.7888   18.5456 C.ar    1  UNL1        0.0293
     39 C           5.4092    0.2606   19.7054 C.ar    1  UNL1       -0.0017
     40 C           4.0557   -1.8664   21.6935 C.ar    1  UNL1       -0.0183
     41 C           4.8570   -3.0810   21.3294 C.ar    1  UNL1       -0.0017
     42 C           5.5390   -3.8786   22.4012 C.ar    1  UNL1        0.0293
     43 C           5.4198   -3.4616   23.8371 C.ar    1  UNL1        0.1401
     44 F           6.1018   -4.2592   24.9088 F       1  UNL1       -0.2042
     45 C           4.6185   -2.2469   24.2013 C.ar    1  UNL1        0.0293
     46 C           3.9365   -1.4493   23.1295 C.ar    1  UNL1       -0.0017
@<TRIPOS>BOND
     1    26    27    1
     2    27    12    1
     3    12    13   ar
     4    13    18    1
     5    18    19    1
     6    18    20    1
     7    18    21    1
     8    13    14   ar
     9    14    15   ar
    10    15     1    1
    11     1     2    2
    12     1     3   am
    13     3     4    1
    14     4     5    1
    15     5     6    1
    16     6     7   am
    17     7     8    2
    18     7    28    1
    19    28    29    1
    20    29    30    1
    21    30    31    1
    22    31    32    1
    23    32    33    1
    24    33    34   ar
    25    34    35   ar
    26    35    36   ar
    27    36    37    1
    28    36    38   ar
    29    38    39   ar
    30    32    40    1
    31    40    41   ar
    32    41    42   ar
    33    42    43   ar
    34    43    44    1
    35    43    45   ar
    36    45    46   ar
    37     6     9    1
    38     9    10    1
    39    10    11    1
    40    15    16   ar
    41    16    17   ar
    42    17    22    1
    43    22    23    1
    44    22    24    1
    45    22    25    1
    46    17    12   ar
    47    10     3    1
    48    39    33   ar
    49    46    40   ar
@<TRIPOS>MOLECULE
*****
 46 49 0 0 0
SMALL
GASTEIGER

@<TRIPOS>ATOM
      1 C           4.8440   -0.3733   27.5115 C.2     1  UNL1        0.2490
      2 O           5.7281   -0.4694   28.7194 O.2     1  UNL1       -0.2699
      3 N           5.0831   -1.2708   26.3337 N.am    1  UNL1       -0.2743
      4 C           4.1990   -1.1747   25.1257 C.3     1  UNL1        0.1152
      5 C           4.4381   -2.0723   23.9480 C.3     1  UNL1        0.1149
      6 N           5.5613   -3.0660   23.9782 N.am    1  UNL1       -0.2761
      7 C           5.8003   -3.9636   22.8003 C.2     1  UNL1        0.2257
      8 O           6.9235   -4.9574   22.8305 O.2     1  UNL1       -0.2749
      9 C           6.4454   -3.1622   25.1861 C.3     1  UNL1        0.1132
     10 C           6.2063   -2.2646   26.3639 C.3     1  UNL1        0.0955
     11 C           7.0904   -2.3608   27.5718 C.3     1  UNL1        0.0233
     12 C           1.4744    2.6080   27.4210 C.ar    1  UNL1        0.1306
     13 C           2.7982    2.9534   26.8060 C.ar    1  UNL1        0.0110
     14 C           3.9214    1.9597   26.8362 C.ar    1  UNL1        0.0032
     15 C           3.7208    0.6205   27.4813 C.ar    1  UNL1        0.0532
     16 C           2.3970    0.2750   28.0964 C.ar    1  UNL1        0.0032
     17 C           1.2738    1.2688   28.0662 C.ar    1  UNL1        0.0110
     18 C           2.9988    4.2927   26.1608 C.3     1  UNL1        0.0218
     19 C           3.6049    4.8135   27.4301 C.3     1  UNL1        0.0045
     20 C           2.3927    3.7719   24.8914 C.3     1  UNL1        0.0045
     21 C           3.1994    5.6318   25.5156 C.3     1  UNL1        0.0045
     22 C          -0.0500    0.9233   28.6813 C.3     1  UNL1        0.0218
     23 C          -0.5903    0.5794   27.3249 C.3     1  UNL1        0.0045
     24 C           0.4904    1.2672   30.0376 C.3     1  UNL1        0.0045
     25 C          -1.3737    0.5778   29.2963 C.3     1  UNL1        0.0045
     26 C           0.1702    4.5636   28.5275 C.3     1  UNL1        0.2524
     27 O           0.3512    3.6017   27.3909 O.3     1  UNL1       -0.4721
     28 C           4.9163   -3.8674   21.5924 C.3     1  UNL1        0.0853
     29 C           5.5012   -4.0264   20.2204 C.3     1  UNL1        0.0096
     30 C           4.6540   -3.7694   19.0094 C.3     1  UNL1        0.0012
     31 C           3.4710   -2.8519   19.1028 C.3     1  UNL1        0.0087
     32 C           3.6778   -1.3788   19.2953 C.3     1  UNL1        0.0446
     33 C           4.8288   -0.6890   18.6248 C.ar    1  UNL1       -0.0183
     34 C           4.7066   -0.2401   17.1988 C.ar    1  UNL1       -0.0017
     35 C           5.8576    0.4496   16.5283 C.ar    1  UNL1        0.0293
     36 C           7.1308    0.6905   17.2839 C.ar    1  UNL1        0.1401
     37 F           8.2818    1.3802   16.6135 F       1  UNL1       -0.2042
     38 C           7.2530    0.2416   18.7100 C.ar    1  UNL1        0.0293
     39 C           6.1021   -0.4481   19.3804 C.ar    1  UNL1       -0.0017
     40 C           2.7337   -0.5953   20.1584 C.ar    1  UNL1       -0.0183
     41 C           3.2289    0.0478   21.4198 C.ar    1  UNL1       -0.0017
     42 C           2.2847    0.8312   22.2829 C.ar    1  UNL1        0.0293
     43 C           0.8454    0.9715   21.8845 C.ar    1  UNL1        0.1401
     44 F          -0.0987    1.7549   22.7476 F       1  UNL1       -0.2042
     45 C           0.3502    0.3284   20.6230 C.ar    1  UNL1        0.0293
     46 C           1.2943   -0.4550   19.7600 C.ar    1  UNL1       -0.0017
@<TRIPOS>BOND
     1    26    27    1
     2    27    12    1
     3    12    13   ar
     4    13    18    1
     5    18    19    1
     6    18    20    1
     7    18    21    1
     8    13    14   ar
     9    14    15   ar
    10    15     1    1
    11     1     2    2
    12     1     3   am
    13     3     4    1
    14     4     5    1
    15     5     6    1
    16     6     7   am
    17     7     8    2
    18     7    28    1
    19    28    29    1
    20    29    30    1
    21    30    31    1
    22    31    32    1
    23    32    33    1
    24    33    34   ar
    25    34    35   ar
    26    35    36   ar
    27    36    37    1
    28    36    38   ar
    29    38    39   ar
    30    32    40    1
    31    40    41   ar
    32    41    42   ar
    33    42    43   ar
    34    43    44    1
    35    43    45   ar
    36    45    46   ar
    37     6     9    1
    38     9    10    1
    39    10    11    1
    40    15    16   ar
    41    16    17   ar
    42    17    22    1
    43    22    23    1
    44    22    24    1
    45    22    25    1
    46    17    12   ar
    47    10     3    1
    48    39    33   ar
    49    46    40   ar
@<TRIPOS>MOLECULE
*****
 46 49 0 0 0
SMALL
GASTEIGER

@<TRIPOS>ATOM
      1 C           4.5057   -0.6931   27.6621 C.2     1  UNL1        0.2490
      2 O           5.2965   -0.8991   28.9199 O.2     1  UNL1       -0.2699
      3 N           4.8355   -1.4838   26.4309 N.am    1  UNL1       -0.2743
      4 C           4.0447   -1.2778   25.1730 C.3     1  UNL1        0.1152
      5 C           4.3745   -2.0685   23.9418 C.3     1  UNL1        0.1149
      6 N           5.4951   -3.0652   23.9684 N.am    1  UNL1       -0.2761
      7 C           5.8250   -3.8560   22.7371 C.2     1  UNL1        0.2257
      8 O           6.9456   -4.8527   22.7637 O.2     1  UNL1       -0.2749
      9 C           6.2859   -3.2713   25.2262 C.3     1  UNL1        0.1132
     10 C           5.9561   -2.4805   26.4575 C.3     1  UNL1        0.0955
     11 C           6.7469   -2.6865   27.7153 C.3     1  UNL1        0.0233
     12 C           1.1437    2.2971   27.5823 C.ar    1  UNL1        0.1306
     13 C           0.9683    0.9902   28.2972 C.ar    1  UNL1        0.0110
     14 C           2.0889   -0.0066   28.3238 C.ar    1  UNL1        0.0032
     15 C           3.3850    0.3036   27.6355 C.ar    1  UNL1        0.0532
     16 C           3.5605    1.6106   26.9206 C.ar    1  UNL1        0.0032
     17 C           2.4399    2.6073   26.8940 C.ar    1  UNL1        0.0110
     18 C          -0.3279    0.6799   28.9855 C.3     1  UNL1        0.0218
     19 C          -0.7743   -0.1081   27.7898 C.3     1  UNL1        0.0045
     20 C           0.1185    1.4679   30.1812 C.3     1  UNL1        0.0045
     21 C          -1.6240    0.3697   29.6739 C.3     1  UNL1        0.0045
     22 C           2.6154    3.9143   26.1791 C.3     1  UNL1        0.0218
     23 C           2.9741    4.5758   27.4767 C.3     1  UNL1        0.0045
     24 C           2.2567    3.2528   24.8816 C.3     1  UNL1        0.0045
     25 C           2.7910    5.2212   25.4643 C.3     1  UNL1        0.0045
     26 C          -0.9918    3.2520   26.4520 C.3     1  UNL1        0.2524
     27 O           0.0231    3.2938   27.5557 O.3     1  UNL1       -0.4721
     28 C           5.0342   -3.6500   21.4793 C.3     1  UNL1        0.0853
     29 C           5.6705   -3.8993   20.1440 C.3     1  UNL1        0.0096
     30 C           4.9147   -3.5951   18.8845 C.3     1  UNL1        0.0012
     31 C           3.6709   -2.7587   18.9396 C.3     1  UNL1        0.0087
     32 C           3.7737   -1.2624   18.9621 C.3     1  UNL1        0.0446
     33 C           2.5801   -0.4340   19.3353 C.ar    1  UNL1       -0.0183
     34 C           1.9397   -0.6049   20.6808 C.ar    1  UNL1       -0.0017
     35 C           0.7461    0.2235   21.0541 C.ar    1  UNL1        0.0293
     36 C           0.1930    1.2227   20.0816 C.ar    1  UNL1        0.1401
     37 F          -1.0006    2.0510   20.4548 F       1  UNL1       -0.2042
     38 C           0.8334    1.3935   18.7360 C.ar    1  UNL1        0.0293
     39 C           2.0270    0.5652   18.3628 C.ar    1  UNL1       -0.0017
     40 C           5.0701   -0.5944   18.6113 C.ar    1  UNL1       -0.0183
     41 C           5.3794   -0.2611   17.1819 C.ar    1  UNL1       -0.0017
     42 C           6.6759    0.4069   16.8311 C.ar    1  UNL1        0.0293
     43 C           7.6630    0.7416   17.9097 C.ar    1  UNL1        0.1401
     44 F           8.9594    1.4096   17.5589 F       1  UNL1       -0.2042
     45 C           7.3537    0.4084   19.3392 C.ar    1  UNL1        0.0293
     46 C           6.0573   -0.2596   19.6900 C.ar    1  UNL1       -0.0017
@<TRIPOS>BOND
     1    26    27    1
     2    27    12    1
     3    12    13   ar
     4    13    18    1
     5    18    19    1
     6    18    20    1
     7    18    21    1
     8    13    14   ar
     9    14    15   ar
    10    15     1    1
    11     1     2    2
    12     1     3   am
    13     3     4    1
    14     4     5    1
    15     5     6    1
    16     6     7   am
    17     7     8    2
    18     7    28    1
    19    28    29    1
    20    29    30    1
    21    30    31    1
    22    31    32    1
    23    32    33    1
    24    33    34   ar
    25    34    35   ar
    26    35    36   ar
    27    36    37    1
    28    36    38   ar
    29    38    39   ar
    30    32    40    1
    31    40    41   ar
    32    41    42   ar
    33    42    43   ar
    34    43    44    1
    35    43    45   ar
    36    45    46   ar
    37     6     9    1
    38     9    10    1
    39    10    11    1
    40    15    16   ar
    41    16    17   ar
    42    17    22    1
    43    22    23    1
    44    22    24    1
    45    22    25    1
    46    17    12   ar
    47    10     3    1
    48    39    33   ar
    49    46    40   ar
