@<TRIPOS>MOLECULE
*****
 34 37 0 0 0
SMALL
GASTEIGER

@<TRIPOS>ATOM
      1 N           6.9217    3.4681   36.7380 N.pl3   1  UNL1       -0.3426
      2 C           6.9989    2.2629   35.8482 C.ar    1  UNL1        0.1254
      3 N           8.2366    2.0046   35.0411 N.ar    1  UNL1       -0.2296
      4 C           8.3137    0.7995   34.1514 C.ar    1  UNL1        0.1002
      5 C           7.1533   -0.1473   34.0687 C.ar    1  UNL1        0.0193
      6 C           5.9156    0.1110   34.8758 C.ar    1  UNL1        0.0044
      7 C           5.8385    1.3161   35.7655 C.ar    1  UNL1        0.0327
      8 H           7.6834    4.0895   36.7923 H       1  UNL1        0.1437
      9 H           6.1094    3.6376   37.2678 H       1  UNL1        0.1437
     10 C           7.2305   -1.3524   33.1789 C.ar    1  UNL1        0.0015
     11 C           5.9819   -2.1042   32.8244 C.ar    1  UNL1        0.0002
     12 C           6.0590   -3.3094   31.9347 C.ar    1  UNL1        0.0045
     13 C           7.3849   -3.7627   31.3993 C.ar    1  UNL1        0.0536
     14 C           8.6335   -3.0109   31.7538 C.ar    1  UNL1        0.0045
     15 C           8.5563   -1.8058   32.6435 C.ar    1  UNL1        0.0002
     16 C           7.4621   -4.9678   30.5095 C.2     1  UNL1        0.2491
     17 O           7.8726   -6.2941   31.0772 O.2     1  UNL1       -0.2699
     18 N           7.1287   -4.8466   29.0521 N.am    1  UNL1       -0.2732
     19 C           6.7182   -3.5202   28.4844 C.3     1  UNL1        0.1108
     20 C           6.3848   -3.3990   27.0270 C.3     1  UNL1        0.0904
     21 N           6.4620   -4.6041   26.1372 N.3     1  UNL1       -0.2946
     22 C           6.8725   -5.9305   26.7048 C.3     1  UNL1        0.0904
     23 C           7.2059   -6.0517   28.1623 C.3     1  UNL1        0.1108
     24 H           7.1279   -4.3817   25.3973 H       1  UNL1        0.1233
     25 C           4.6007    1.5744   36.5727 C.ar    1  UNL1        0.0218
     26 C           4.4869    1.0306   37.9660 C.ar    1  UNL1        0.0031
     27 C           3.2492    1.2889   38.7731 C.ar    1  UNL1        0.0231
     28 C           2.1253    2.0910   38.1869 C.ar    1  UNL1        0.1526
     29 N           2.2392    2.6348   36.7936 N.ar    1  UNL1       -0.2399
     30 C           3.4769    2.3765   35.9865 C.ar    1  UNL1        0.0988
     31 C           0.8877    2.3493   38.9940 C.3     1  UNL1        0.4348
     32 F          -0.3500    2.6075   39.8011 F       1  UNL1       -0.1644
     33 F           0.5814    3.5450   38.1418 F       1  UNL1       -0.1644
     34 F           1.1939    1.1535   39.8462 F       1  UNL1       -0.1644
@<TRIPOS>BOND
     1     1     2    1
     2     2     3   ar
     3     3     4   ar
     4     4     5   ar
     5     5    10    1
     6    10    11   ar
     7    11    12   ar
     8    12    13   ar
     9    13    16    1
    10    16    17    2
    11    16    18   am
    12    18    19    1
    13    19    20    1
    14    20    21    1
    15    21    22    1
    16    22    23    1
    17    13    14   ar
    18    14    15   ar
    19     5     6   ar
    20     6     7   ar
    21     7    25    1
    22    25    26   ar
    23    26    27   ar
    24    27    28   ar
    25    28    31    1
    26    31    32    1
    27    31    33    1
    28    31    34    1
    29    28    29   ar
    30    29    30   ar
    31     7     2   ar
    32    30    25   ar
    33    15    10   ar
    34    23    18    1
    35     1     8    1
    36     1     9    1
    37    21    24    1
@<TRIPOS>MOLECULE
*****
 34 37 0 0 0
SMALL
GASTEIGER

@<TRIPOS>ATOM
      1 N           0.2604    3.0466   32.3634 N.pl3   1  UNL1       -0.3426
      2 C           1.3965    2.0747   32.2420 C.ar    1  UNL1        0.1254
      3 N           2.2329    1.7449   33.4426 N.ar    1  UNL1       -0.2296
      4 C           3.3690    0.7730   33.3212 C.ar    1  UNL1        0.1002
      5 C           3.6687    0.1310   31.9991 C.ar    1  UNL1        0.0193
      6 C           2.8323    0.4608   30.7985 C.ar    1  UNL1        0.0044
      7 C           1.6962    1.4327   30.9199 C.ar    1  UNL1        0.0327
      8 H           0.0637    3.4680   33.2311 H       1  UNL1        0.1437
      9 H          -0.2885    3.2631   31.5753 H       1  UNL1        0.1437
     10 C           4.8048   -0.8409   31.8777 C.ar    1  UNL1        0.0015
     11 C           4.8138   -2.0914   32.7061 C.ar    1  UNL1        0.0002
     12 C           5.9499   -3.0633   32.5846 C.ar    1  UNL1        0.0045
     13 C           7.0770   -2.7847   31.6349 C.ar    1  UNL1        0.0536
     14 C           7.0680   -1.5342   30.8066 C.ar    1  UNL1        0.0045
     15 C           5.9319   -0.5623   30.9280 C.ar    1  UNL1        0.0002
     16 C           8.2131   -3.7566   31.5135 C.2     1  UNL1        0.2491
     17 O           9.4112   -3.6251   32.4063 O.2     1  UNL1       -0.2699
     18 N           8.1511   -4.8599   30.4992 N.am    1  UNL1       -0.2732
     19 C           6.9529   -4.9914   29.6063 C.3     1  UNL1        0.1108
     20 C           6.8909   -6.0947   28.5921 C.3     1  UNL1        0.0904
     21 N           8.0270   -7.0666   28.4707 N.3     1  UNL1       -0.2946
     22 C           9.2251   -6.9352   29.3635 C.3     1  UNL1        0.0904
     23 C           9.2871   -5.8318   30.3778 C.3     1  UNL1        0.1108
     24 H           8.3667   -7.0041   27.5109 H       1  UNL1        0.1233
     25 C           0.8598    1.7625   29.7191 C.ar    1  UNL1        0.0218
     26 C          -0.1888    0.7990   29.2480 C.ar    1  UNL1        0.0031
     27 C          -1.0251    1.1287   28.0473 C.ar    1  UNL1        0.0231
     28 C          -0.8130    2.4221   27.3177 C.ar    1  UNL1        0.1526
     29 N           0.2356    3.3857   27.7889 N.ar    1  UNL1       -0.2399
     30 C           1.0720    3.0559   28.9896 C.ar    1  UNL1        0.0988
     31 C          -1.6493    2.7519   26.1170 C.3     1  UNL1        0.4348
     32 F          -2.4857    3.0817   24.9164 F       1  UNL1       -0.1644
     33 F          -0.9333    1.6960   25.3282 F       1  UNL1       -0.1644
     34 F          -2.3654    3.8078   26.9058 F       1  UNL1       -0.1644
@<TRIPOS>BOND
     1     1     2    1
     2     2     3   ar
     3     3     4   ar
     4     4     5   ar
     5     5    10    1
     6    10    11   ar
     7    11    12   ar
     8    12    13   ar
     9    13    16    1
    10    16    17    2
    11    16    18   am
    12    18    19    1
    13    19    20    1
    14    20    21    1
    15    21    22    1
    16    22    23    1
    17    13    14   ar
    18    14    15   ar
    19     5     6   ar
    20     6     7   ar
    21     7    25    1
    22    25    26   ar
    23    26    27   ar
    24    27    28   ar
    25    28    31    1
    26    31    32    1
    27    31    33    1
    28    31    34    1
    29    28    29   ar
    30    29    30   ar
    31     7     2   ar
    32    30    25   ar
    33    15    10   ar
    34    23    18    1
    35     1     8    1
    36     1     9    1
    37    21    24    1
@<TRIPOS>MOLECULE
*****
 34 37 0 0 0
SMALL
GASTEIGER

@<TRIPOS>ATOM
      1 N           8.9634   -5.9080   23.8024 N.pl3   1  UNL1       -0.3426
      2 C           7.8500   -5.0330   23.3076 C.ar    1  UNL1        0.1254
      3 N           7.6253   -4.8666   21.8340 N.ar    1  UNL1       -0.2296
      4 C           6.5119   -3.9916   21.3392 C.ar    1  UNL1        0.1002
      5 C           5.6233   -3.2831   22.3180 C.ar    1  UNL1        0.0193
      6 C           5.8480   -3.4494   23.7917 C.ar    1  UNL1        0.0044
      7 C           6.9614   -4.3244   24.2865 C.ar    1  UNL1        0.0327
      8 H           9.5466   -6.3730   23.1600 H       1  UNL1        0.1437
      9 H           9.1109   -6.0171   24.7697 H       1  UNL1        0.1437
     10 C           4.5099   -2.4081   21.8232 C.ar    1  UNL1        0.0015
     11 C           4.0207   -2.5430   20.4117 C.ar    1  UNL1        0.0002
     12 C           2.9074   -1.6681   19.9169 C.ar    1  UNL1        0.0045
     13 C           2.2832   -0.6582   20.8336 C.ar    1  UNL1        0.0536
     14 C           2.7723   -0.5232   22.2451 C.ar    1  UNL1        0.0045
     15 C           3.8857   -1.3982   22.7399 C.ar    1  UNL1        0.0002
     16 C           1.1698    0.2168   20.3388 C.2     1  UNL1        0.2491
     17 O          -0.2569   -0.1629   20.6039 O.2     1  UNL1       -0.2699
     18 N           1.4831    1.4715   19.5789 N.am    1  UNL1       -0.2732
     19 C           2.9098    1.8513   19.3138 C.3     1  UNL1        0.1108
     20 C           3.2231    3.1060   18.5538 C.3     1  UNL1        0.0904
     21 N           2.1098    3.9810   18.0590 N.3     1  UNL1       -0.2946
     22 C           0.6831    3.6012   18.3241 C.3     1  UNL1        0.0904
     23 C           0.3697    2.3465   19.0841 C.3     1  UNL1        0.1108
     24 H           2.2139    4.0457   17.0464 H       1  UNL1        0.1233
     25 C           7.1862   -4.4908   25.7603 C.ar    1  UNL1        0.0218
     26 C           6.5897   -5.6625   26.4823 C.ar    1  UNL1        0.0031
     27 C           6.8144   -5.8289   27.9560 C.ar    1  UNL1        0.0231
     28 C           7.6356   -4.8235   28.7077 C.ar    1  UNL1        0.1526
     29 N           8.2320   -3.6518   27.9857 N.ar    1  UNL1       -0.2399
     30 C           8.0073   -3.4854   26.5119 C.ar    1  UNL1        0.0988
     31 C           7.8603   -4.9899   30.1814 C.3     1  UNL1        0.4348
     32 F           8.0850   -5.1563   31.6551 F       1  UNL1       -0.1644
     33 F           6.6067   -5.8076   30.2802 F       1  UNL1       -0.1644
     34 F           9.1139   -4.1722   30.0826 F       1  UNL1       -0.1644
@<TRIPOS>BOND
     1     1     2    1
     2     2     3   ar
     3     3     4   ar
     4     4     5   ar
     5     5    10    1
     6    10    11   ar
     7    11    12   ar
     8    12    13   ar
     9    13    16    1
    10    16    17    2
    11    16    18   am
    12    18    19    1
    13    19    20    1
    14    20    21    1
    15    21    22    1
    16    22    23    1
    17    13    14   ar
    18    14    15   ar
    19     5     6   ar
    20     6     7   ar
    21     7    25    1
    22    25    26   ar
    23    26    27   ar
    24    27    28   ar
    25    28    31    1
    26    31    32    1
    27    31    33    1
    28    31    34    1
    29    28    29   ar
    30    29    30   ar
    31     7     2   ar
    32    30    25   ar
    33    15    10   ar
    34    23    18    1
    35     1     8    1
    36     1     9    1
    37    21    24    1
@<TRIPOS>MOLECULE
*****
 34 37 0 0 0
SMALL
GASTEIGER

@<TRIPOS>ATOM
      1 N         -17.0096   -3.6412   17.9938 N.pl3   1  UNL1       -0.3426
      2 C         -16.9725   -2.3298   18.7209 C.ar    1  UNL1        0.1254
      3 N         -18.2033   -1.4751   18.7894 N.ar    1  UNL1       -0.2296
      4 C         -18.1662   -0.1637   19.5166 C.ar    1  UNL1        0.1002
      5 C         -16.8984    0.2931   20.1752 C.ar    1  UNL1        0.0193
      6 C         -15.6676   -0.5616   20.1067 C.ar    1  UNL1        0.0044
      7 C         -15.7047   -1.8730   19.3796 C.ar    1  UNL1        0.0327
      8 H         -17.8418   -3.9410   17.5615 H       1  UNL1        0.1437
      9 H         -16.2018   -4.2022   17.9488 H       1  UNL1        0.1437
     10 C         -16.8613    1.6046   20.9023 C.ar    1  UNL1        0.0015
     11 C         -16.1323    2.7722   20.3064 C.ar    1  UNL1        0.0002
     12 C         -16.0952    4.0837   21.0335 C.ar    1  UNL1        0.0045
     13 C         -16.7871    4.2275   22.3566 C.ar    1  UNL1        0.0536
     14 C         -17.5160    3.0598   22.9526 C.ar    1  UNL1        0.0045
     15 C         -17.5531    1.7484   22.2254 C.ar    1  UNL1        0.0002
     16 C         -16.7500    5.5389   23.0838 C.2     1  UNL1        0.2491
     17 O         -17.7918    6.5812   22.8042 O.2     1  UNL1       -0.2699
     18 N         -15.6710    5.8081   24.0904 N.am    1  UNL1       -0.2732
     19 C         -14.6291    4.7657   24.3700 C.3     1  UNL1        0.1108
     20 C         -13.5502    5.0349   25.3767 C.3     1  UNL1        0.0904
     21 N         -13.5131    6.3463   26.1038 N.3     1  UNL1       -0.2946
     22 C         -14.5550    7.3886   25.8243 C.3     1  UNL1        0.0904
     23 C         -15.6340    7.1195   24.8176 C.3     1  UNL1        0.1108
     24 H         -12.6089    6.7714   25.8985 H       1  UNL1        0.1233
     25 C         -14.4739   -2.7277   19.3111 C.ar    1  UNL1        0.0218
     26 C         -14.3737   -3.9670   20.1502 C.ar    1  UNL1        0.0031
     27 C         -13.1430   -4.8216   20.0818 C.ar    1  UNL1        0.0231
     28 C         -12.0122   -4.4370   19.1742 C.ar    1  UNL1        0.1526
     29 N         -12.1124   -3.1977   18.3351 N.ar    1  UNL1       -0.2399
     30 C         -13.3432   -2.3431   18.4036 C.ar    1  UNL1        0.0988
     31 C         -10.7815   -5.2917   19.1058 C.3     1  UNL1        0.4348
     32 F          -9.5507   -6.1464   19.0373 F       1  UNL1       -0.1644
     33 F         -11.6340   -6.5243   19.1672 F       1  UNL1       -0.1644
     34 F          -9.9290   -4.0591   19.0444 F       1  UNL1       -0.1644
@<TRIPOS>BOND
     1     1     2    1
     2     2     3   ar
     3     3     4   ar
     4     4     5   ar
     5     5    10    1
     6    10    11   ar
     7    11    12   ar
     8    12    13   ar
     9    13    16    1
    10    16    17    2
    11    16    18   am
    12    18    19    1
    13    19    20    1
    14    20    21    1
    15    21    22    1
    16    22    23    1
    17    13    14   ar
    18    14    15   ar
    19     5     6   ar
    20     6     7   ar
    21     7    25    1
    22    25    26   ar
    23    26    27   ar
    24    27    28   ar
    25    28    31    1
    26    31    32    1
    27    31    33    1
    28    31    34    1
    29    28    29   ar
    30    29    30   ar
    31     7     2   ar
    32    30    25   ar
    33    15    10   ar
    34    23    18    1
    35     1     8    1
    36     1     9    1
    37    21    24    1
@<TRIPOS>MOLECULE
*****
 34 37 0 0 0
SMALL
GASTEIGER

@<TRIPOS>ATOM
      1 N          -1.8133    6.0374   18.8113 N.pl3   1  UNL1       -0.3426
      2 C          -0.9879    4.7892   18.9143 C.ar    1  UNL1        0.1254
      3 N           0.2980    4.6752   18.1504 N.ar    1  UNL1       -0.2296
      4 C           1.1234    3.4270   18.2534 C.ar    1  UNL1        0.1002
      5 C           0.6630    2.2927   19.1202 C.ar    1  UNL1        0.0193
      6 C          -0.6229    2.4067   19.8840 C.ar    1  UNL1        0.0044
      7 C          -1.4483    3.6549   19.7811 C.ar    1  UNL1        0.0327
      8 H          -1.5111    6.7819   18.2424 H       1  UNL1        0.1437
      9 H          -2.6573    6.1122   19.3126 H       1  UNL1        0.1437
     10 C           1.4884    1.0445   19.2232 C.ar    1  UNL1        0.0015
     11 C           2.5590    0.7676   18.2097 C.ar    1  UNL1        0.0002
     12 C           3.3844   -0.4806   18.3127 C.ar    1  UNL1        0.0045
     13 C           3.1393   -1.4519   19.4291 C.ar    1  UNL1        0.0536
     14 C           2.0686   -1.1750   20.4425 C.ar    1  UNL1        0.0045
     15 C           1.2432    0.0732   20.3395 C.ar    1  UNL1        0.0002
     16 C           3.9647   -2.7002   19.5321 C.2     1  UNL1        0.2491
     17 O           3.4338   -3.9967   18.9963 O.2     1  UNL1       -0.2699
     18 N           5.3210   -2.6518   20.1707 N.am    1  UNL1       -0.2732
     19 C           5.8520   -1.3552   20.7065 C.3     1  UNL1        0.1108
     20 C           7.2083   -1.3069   21.3452 C.3     1  UNL1        0.0904
     21 N           8.0338   -2.5551   21.4482 N.3     1  UNL1       -0.2946
     22 C           7.5029   -3.8517   20.9124 C.3     1  UNL1        0.0904
     23 C           6.1465   -3.9001   20.2737 C.3     1  UNL1        0.1108
     24 H           8.2234   -2.7018   22.4396 H       1  UNL1        0.1233
     25 C          -2.7343    3.7688   20.5450 C.ar    1  UNL1        0.0218
     26 C          -4.0440    3.5622   19.8436 C.ar    1  UNL1        0.0031
     27 C          -5.3299    3.6761   20.6075 C.ar    1  UNL1        0.0231
     28 C          -5.3061    3.9967   22.0727 C.ar    1  UNL1        0.1526
     29 N          -3.9964    4.2033   22.7740 N.ar    1  UNL1       -0.2399
     30 C          -2.7104    4.0894   22.0101 C.ar    1  UNL1        0.0988
     31 C          -6.5920    4.1106   22.8365 C.3     1  UNL1        0.4348
     32 F          -7.8779    4.2245   23.6003 F       1  UNL1       -0.1644
     33 F          -7.2994    4.5318   21.5827 F       1  UNL1       -0.1644
     34 F          -5.8846    3.6893   24.0903 F       1  UNL1       -0.1644
@<TRIPOS>BOND
     1     1     2    1
     2     2     3   ar
     3     3     4   ar
     4     4     5   ar
     5     5    10    1
     6    10    11   ar
     7    11    12   ar
     8    12    13   ar
     9    13    16    1
    10    16    17    2
    11    16    18   am
    12    18    19    1
    13    19    20    1
    14    20    21    1
    15    21    22    1
    16    22    23    1
    17    13    14   ar
    18    14    15   ar
    19     5     6   ar
    20     6     7   ar
    21     7    25    1
    22    25    26   ar
    23    26    27   ar
    24    27    28   ar
    25    28    31    1
    26    31    32    1
    27    31    33    1
    28    31    34    1
    29    28    29   ar
    30    29    30   ar
    31     7     2   ar
    32    30    25   ar
    33    15    10   ar
    34    23    18    1
    35     1     8    1
    36     1     9    1
    37    21    24    1
@<TRIPOS>MOLECULE
*****
 34 37 0 0 0
SMALL
GASTEIGER

@<TRIPOS>ATOM
      1 N           6.0916   -0.8689   24.6452 N.pl3   1  UNL1       -0.3426
      2 C           4.7834   -0.1646   24.8520 C.ar    1  UNL1        0.1254
      3 N           4.6229    0.8011   25.9885 N.ar    1  UNL1       -0.2296
      4 C           3.3148    1.5054   26.1952 C.ar    1  UNL1        0.1002
      5 C           2.1671    1.2440   25.2655 C.ar    1  UNL1        0.0193
      6 C           2.3276    0.2783   24.1290 C.ar    1  UNL1        0.0044
      7 C           3.6357   -0.4260   23.9222 C.ar    1  UNL1        0.0327
      8 H           6.8448   -0.6973   25.2555 H       1  UNL1        0.1437
      9 H           6.1969   -1.5027   23.8993 H       1  UNL1        0.1437
     10 C           0.8590    1.9482   25.4722 C.ar    1  UNL1        0.0015
     11 C           0.4706    3.0872   24.5767 C.ar    1  UNL1        0.0002
     12 C          -0.8375    3.7915   24.7834 C.ar    1  UNL1        0.0045
     13 C          -1.7573    3.3568   25.8857 C.ar    1  UNL1        0.0536
     14 C          -1.3690    2.2179   26.7811 C.ar    1  UNL1        0.0045
     15 C          -0.0609    1.5136   26.5744 C.ar    1  UNL1        0.0002
     16 C          -3.0655    4.0611   26.0924 C.2     1  UNL1        0.2491
     17 O          -3.2885    4.8815   27.3281 O.2     1  UNL1       -0.2699
     18 N          -4.1506    3.9449   25.0634 N.am    1  UNL1       -0.2732
     19 C          -3.9277    3.1245   23.8275 C.3     1  UNL1        0.1108
     20 C          -5.0128    3.0083   22.7985 C.3     1  UNL1        0.0904
     21 N          -6.3209    3.7126   23.0053 N.3     1  UNL1       -0.2946
     22 C          -6.5439    4.5331   24.2410 C.3     1  UNL1        0.0904
     23 C          -5.4588    4.6492   25.2701 C.3     1  UNL1        0.1108
     24 H          -7.0465    2.9958   22.9929 H       1  UNL1        0.1233
     25 C           3.7962   -1.3917   22.7857 C.ar    1  UNL1        0.0218
     26 C           3.4329   -0.9757   21.3910 C.ar    1  UNL1        0.0031
     27 C           3.5933   -1.9413   20.2545 C.ar    1  UNL1        0.0231
     28 C           4.1171   -3.3231   20.5125 C.ar    1  UNL1        0.1526
     29 N           4.4803   -3.7391   21.9072 N.ar    1  UNL1       -0.2399
     30 C           4.3199   -2.7734   23.0437 C.ar    1  UNL1        0.0988
     31 C           4.2775   -4.2887   19.3760 C.3     1  UNL1        0.4348
     32 F           4.4379   -5.2543   18.2395 F       1  UNL1       -0.1644
     33 F           5.7660   -4.2560   19.5583 F       1  UNL1       -0.1644
     34 F           2.7890   -4.3214   19.1937 F       1  UNL1       -0.1644
@<TRIPOS>BOND
     1     1     2    1
     2     2     3   ar
     3     3     4   ar
     4     4     5   ar
     5     5    10    1
     6    10    11   ar
     7    11    12   ar
     8    12    13   ar
     9    13    16    1
    10    16    17    2
    11    16    18   am
    12    18    19    1
    13    19    20    1
    14    20    21    1
    15    21    22    1
    16    22    23    1
    17    13    14   ar
    18    14    15   ar
    19     5     6   ar
    20     6     7   ar
    21     7    25    1
    22    25    26   ar
    23    26    27   ar
    24    27    28   ar
    25    28    31    1
    26    31    32    1
    27    31    33    1
    28    31    34    1
    29    28    29   ar
    30    29    30   ar
    31     7     2   ar
    32    30    25   ar
    33    15    10   ar
    34    23    18    1
    35     1     8    1
    36     1     9    1
    37    21    24    1
@<TRIPOS>MOLECULE
*****
 34 37 0 0 0
SMALL
GASTEIGER

@<TRIPOS>ATOM
      1 N           5.6466    2.0488   17.8588 N.pl3   1  UNL1       -0.3426
      2 C           4.2629    2.5588   18.1330 C.ar    1  UNL1        0.1254
      3 N           3.9722    4.0272   18.0376 N.ar    1  UNL1       -0.2296
      4 C           2.5884    4.5372   18.3119 C.ar    1  UNL1        0.1002
      5 C           1.4954    3.5787   18.6815 C.ar    1  UNL1        0.0193
      6 C           1.7862    2.1103   18.7769 C.ar    1  UNL1        0.0044
      7 C           3.1699    1.6003   18.5027 C.ar    1  UNL1        0.0327
      8 H           6.3640    2.6779   17.6162 H       1  UNL1        0.1437
      9 H           5.8374    1.0850   17.9214 H       1  UNL1        0.1437
     10 C           0.1117    4.0887   18.9558 C.ar    1  UNL1        0.0015
     11 C          -1.0354    3.6438   18.0977 C.ar    1  UNL1        0.0002
     12 C          -2.4191    4.1538   18.3720 C.ar    1  UNL1        0.0045
     13 C          -2.6558    5.1087   19.5043 C.ar    1  UNL1        0.0536
     14 C          -1.5087    5.5536   20.3623 C.ar    1  UNL1        0.0045
     15 C          -0.1250    5.0436   20.0881 C.ar    1  UNL1        0.0002
     16 C          -4.0395    5.6186   19.7785 C.2     1  UNL1        0.2491
     17 O          -4.5931    6.7560   18.9724 O.2     1  UNL1       -0.2699
     18 N          -4.8696    4.9912   20.8589 N.am    1  UNL1       -0.2732
     19 C          -4.3161    3.8538   21.6650 C.3     1  UNL1        0.1108
     20 C          -5.1462    3.2263   22.7454 C.3     1  UNL1        0.0904
     21 N          -6.5299    3.7363   23.0196 N.3     1  UNL1       -0.2946
     22 C          -7.0835    4.8737   22.2135 C.3     1  UNL1        0.0904
     23 C          -6.2534    5.5012   21.1331 C.3     1  UNL1        0.1108
     24 H          -6.5468    4.0316   23.9958 H       1  UNL1        0.1233
     25 C           3.4606    0.1318   18.5981 C.ar    1  UNL1        0.0218
     26 C           3.2402   -0.5938   19.8922 C.ar    1  UNL1        0.0031
     27 C           3.5309   -2.0623   19.9877 C.ar    1  UNL1        0.0231
     28 C           4.0420   -2.8051   18.7889 C.ar    1  UNL1        0.1526
     29 N           4.2624   -2.0795   17.4947 N.ar    1  UNL1       -0.2399
     30 C           3.9717   -0.6110   17.3993 C.ar    1  UNL1        0.0988
     31 C           4.3326   -4.2736   18.8843 C.3     1  UNL1        0.4348
     32 F           4.6233   -5.7420   18.9798 F       1  UNL1       -0.1644
     33 F           2.8795   -4.5753   18.6671 F       1  UNL1       -0.1644
     34 F           5.7858   -3.9718   19.1016 F       1  UNL1       -0.1644
@<TRIPOS>BOND
     1     1     2    1
     2     2     3   ar
     3     3     4   ar
     4     4     5   ar
     5     5    10    1
     6    10    11   ar
     7    11    12   ar
     8    12    13   ar
     9    13    16    1
    10    16    17    2
    11    16    18   am
    12    18    19    1
    13    19    20    1
    14    20    21    1
    15    21    22    1
    16    22    23    1
    17    13    14   ar
    18    14    15   ar
    19     5     6   ar
    20     6     7   ar
    21     7    25    1
    22    25    26   ar
    23    26    27   ar
    24    27    28   ar
    25    28    31    1
    26    31    32    1
    27    31    33    1
    28    31    34    1
    29    28    29   ar
    30    29    30   ar
    31     7     2   ar
    32    30    25   ar
    33    15    10   ar
    34    23    18    1
    35     1     8    1
    36     1     9    1
    37    21    24    1
@<TRIPOS>MOLECULE
*****
 34 37 0 0 0
SMALL
GASTEIGER

@<TRIPOS>ATOM
      1 N           3.8610   -1.6473   17.1923 N.pl3   1  UNL1       -0.3426
      2 C           4.5059   -2.0410   18.4881 C.ar    1  UNL1        0.1254
      3 N           5.6182   -3.0472   18.4970 N.ar    1  UNL1       -0.2296
      4 C           6.2631   -3.4409   19.7928 C.ar    1  UNL1        0.1002
      5 C           5.7956   -2.8284   21.0797 C.ar    1  UNL1        0.0193
      6 C           4.6833   -1.8222   21.0709 C.ar    1  UNL1        0.0044
      7 C           4.0384   -1.4284   19.7751 C.ar    1  UNL1        0.0327
      8 H           4.1678   -2.0493   16.3477 H       1  UNL1        0.1437
      9 H           3.1309   -0.9868   17.1865 H       1  UNL1        0.1437
     10 C           6.4405   -3.2221   22.3756 C.ar    1  UNL1        0.0015
     11 C           5.6964   -3.0495   23.6665 C.ar    1  UNL1        0.0002
     12 C           6.3413   -3.4432   24.9623 C.ar    1  UNL1        0.0045
     13 C           7.7303   -4.0095   24.9672 C.ar    1  UNL1        0.0536
     14 C           8.4744   -4.1821   23.6762 C.ar    1  UNL1        0.0045
     15 C           7.8295   -3.7884   22.3804 C.ar    1  UNL1        0.0002
     16 C           8.3752   -4.4032   26.2630 C.2     1  UNL1        0.2491
     17 O           9.1387   -3.3874   27.0598 O.2     1  UNL1       -0.2699
     18 N           8.2565   -5.8128   26.7619 N.am    1  UNL1       -0.2732
     19 C           7.4930   -6.8288   25.9650 C.3     1  UNL1        0.1108
     20 C           7.3744   -8.2383   26.4640 C.3     1  UNL1        0.0904
     21 N           8.0192   -8.6320   27.7598 N.3     1  UNL1       -0.2946
     22 C           8.7828   -7.6162   28.5567 C.3     1  UNL1        0.0904
     23 C           8.9014   -6.2065   28.0577 C.3     1  UNL1        0.1108
     24 H           8.6694   -9.3887   27.5472 H       1  UNL1        0.1233
     25 C           2.9260   -0.4221   19.7662 C.ar    1  UNL1        0.0218
     26 C           1.5395   -0.8334   20.1642 C.ar    1  UNL1        0.0031
     27 C           0.4271    0.1728   20.1553 C.ar    1  UNL1        0.0231
     28 C           0.7012    1.5904   19.7486 C.ar    1  UNL1        0.1526
     29 N           2.0878    2.0017   19.3507 N.ar    1  UNL1       -0.2399
     30 C           3.2002    0.9954   19.3595 C.ar    1  UNL1        0.0988
     31 C          -0.4111    2.5966   19.7398 C.3     1  UNL1        0.4348
     32 F          -1.5235    3.6028   19.7310 F       1  UNL1       -0.1644
     33 F          -0.6490    2.3464   21.1995 F       1  UNL1       -0.1644
     34 F          -0.1733    2.8467   18.2801 F       1  UNL1       -0.1644
@<TRIPOS>BOND
     1     1     2    1
     2     2     3   ar
     3     3     4   ar
     4     4     5   ar
     5     5    10    1
     6    10    11   ar
     7    11    12   ar
     8    12    13   ar
     9    13    16    1
    10    16    17    2
    11    16    18   am
    12    18    19    1
    13    19    20    1
    14    20    21    1
    15    21    22    1
    16    22    23    1
    17    13    14   ar
    18    14    15   ar
    19     5     6   ar
    20     6     7   ar
    21     7    25    1
    22    25    26   ar
    23    26    27   ar
    24    27    28   ar
    25    28    31    1
    26    31    32    1
    27    31    33    1
    28    31    34    1
    29    28    29   ar
    30    29    30   ar
    31     7     2   ar
    32    30    25   ar
    33    15    10   ar
    34    23    18    1
    35     1     8    1
    36     1     9    1
    37    21    24    1
@<TRIPOS>MOLECULE
*****
 34 37 0 0 0
SMALL
GASTEIGER

@<TRIPOS>ATOM
      1 N           4.8165    2.4384   18.1437 N.pl3   1  UNL1       -0.3426
      2 C           3.3543    2.6953   18.3578 C.ar    1  UNL1        0.1254
      3 N           2.8302    4.1007   18.3466 N.ar    1  UNL1       -0.2296
      4 C           1.3679    4.3577   18.5607 C.ar    1  UNL1        0.1002
      5 C           0.4298    3.2092   18.7860 C.ar    1  UNL1        0.0193
      6 C           0.9538    1.8038   18.7972 C.ar    1  UNL1        0.0044
      7 C           2.4161    1.5469   18.5831 C.ar    1  UNL1        0.0327
      8 H           5.4323    3.1922   17.9958 H       1  UNL1        0.1437
      9 H           5.1605    1.5160   18.1510 H       1  UNL1        0.1437
     10 C          -1.0325    3.4661   19.0001 C.ar    1  UNL1        0.0015
     11 C          -1.8177    4.2299   17.9755 C.ar    1  UNL1        0.0002
     12 C          -3.2799    4.4869   18.1896 C.ar    1  UNL1        0.0045
     13 C          -3.9569    3.9799   19.4284 C.ar    1  UNL1        0.0536
     14 C          -3.1718    3.2161   20.4530 C.ar    1  UNL1        0.0045
     15 C          -1.7095    2.9591   20.2389 C.ar    1  UNL1        0.0002
     16 C          -5.4192    4.2368   19.6425 C.2     1  UNL1        0.2491
     17 O          -6.4392    3.3372   19.0099 O.2     1  UNL1       -0.2699
     18 N          -5.8614    5.3933   20.4891 N.am    1  UNL1       -0.2732
     19 C          -4.8413    6.2930   21.1218 C.3     1  UNL1        0.1108
     20 C          -5.2835    7.4495   21.9684 C.3     1  UNL1        0.0904
     21 N          -6.7457    7.7065   22.1825 N.3     1  UNL1       -0.2946
     22 C          -7.7658    6.8069   21.5500 C.3     1  UNL1        0.0904
     23 C          -7.3236    5.6503   20.7033 C.3     1  UNL1        0.1108
     24 H          -6.9322    8.6492   21.8407 H       1  UNL1        0.1233
     25 C           2.9401    0.1414   18.5942 C.ar    1  UNL1        0.0218
     26 C           2.6304   -0.7654   19.7483 C.ar    1  UNL1        0.0031
     27 C           3.1544   -2.1708   19.7595 C.ar    1  UNL1        0.0231
     28 C           3.9882   -2.6695   18.6166 C.ar    1  UNL1        0.1526
     29 N           4.2979   -1.7628   17.4625 N.ar    1  UNL1       -0.2399
     30 C           3.7739   -0.3573   17.4513 C.ar    1  UNL1        0.0988
     31 C           4.5122   -4.0749   18.6278 C.3     1  UNL1        0.4348
     32 F           5.0362   -5.4804   18.6390 F       1  UNL1       -0.1644
     33 F           3.1590   -4.5762   19.0371 F       1  UNL1       -0.1644
     34 F           5.8654   -3.5737   18.2185 F       1  UNL1       -0.1644
@<TRIPOS>BOND
     1     1     2    1
     2     2     3   ar
     3     3     4   ar
     4     4     5   ar
     5     5    10    1
     6    10    11   ar
     7    11    12   ar
     8    12    13   ar
     9    13    16    1
    10    16    17    2
    11    16    18   am
    12    18    19    1
    13    19    20    1
    14    20    21    1
    15    21    22    1
    16    22    23    1
    17    13    14   ar
    18    14    15   ar
    19     5     6   ar
    20     6     7   ar
    21     7    25    1
    22    25    26   ar
    23    26    27   ar
    24    27    28   ar
    25    28    31    1
    26    31    32    1
    27    31    33    1
    28    31    34    1
    29    28    29   ar
    30    29    30   ar
    31     7     2   ar
    32    30    25   ar
    33    15    10   ar
    34    23    18    1
    35     1     8    1
    36     1     9    1
    37    21    24    1
