@<TRIPOS>MOLECULE
*****
 25 27 0 0 0
SMALL
GASTEIGER

@<TRIPOS>ATOM
      1 C          -7.4826  -19.2903   20.1662 C.2     1  UNL1        0.2252
      2 O          -7.4863  -17.9048   20.7409 O.2     1  UNL1       -0.2750
      3 N          -8.6927  -19.8066   19.4456 N.am    1  UNL1       -0.3003
      4 H          -8.6903  -20.7160   19.0684 H       1  UNL1        0.1497
      5 C          -6.2689  -20.1596   20.3120 C.3     1  UNL1        0.1154
      6 C          -6.3307  -20.4758   22.2934 C.3     1  UNL1        0.0335
      7 C          -5.2772  -19.8859   21.4035 C.3     1  UNL1        0.1377
      8 C          -4.4309  -19.3531   20.2855 C.3     1  UNL1        0.0613
      9 C          -3.1363  -18.8734   20.8721 C.3     1  UNL1        0.1290
     10 C          -1.8979  -18.4386   21.5982 C.3     1  UNL1        0.0305
     11 C          -0.7575  -17.8295   20.8377 C.3     1  UNL1        0.0025
     12 C          -0.8554  -17.6553   19.3511 C.3     1  UNL1        0.0002
     13 C          -2.0937  -18.0901   18.6250 C.3     1  UNL1        0.0025
     14 C          -3.2342  -18.6991   19.3854 C.3     1  UNL1        0.0305
     15 O          -3.1825  -19.1096   22.3526 O.3     1  UNL1       -0.2256
     16 O          -4.5056  -19.7354   22.6811 O.3     1  UNL1       -0.2251
     17 C          -9.9064  -18.9373   19.2998 C.3     1  UNL1        0.1186
     18 C         -10.7921  -18.6814   20.4830 C.ar    1  UNL1        0.0250
     19 C         -10.7425  -19.5980   21.6693 C.ar    1  UNL1        0.0001
     20 C         -11.6282  -19.3421   22.8525 C.ar    1  UNL1        0.0066
     21 C         -12.5635  -18.1694   22.8494 C.ar    1  UNL1        0.0368
     22 BR        -13.4492  -17.9135   24.0327 Br      1  UNL1       -0.0489
     23 C         -12.6132  -17.2527   21.6633 C.ar    1  UNL1        0.0361
     24 C         -11.7274  -17.5087   20.4799 C.ar    1  UNL1        0.1382
     25 F         -11.7771  -16.5920   19.2938 F       1  UNL1       -0.2044
@<TRIPOS>BOND
     1     6     7    1
     2     7     5    1
     3     5     1    1
     4     1     2    2
     5     1     3   am
     6     3    17    1
     7    17    18    1
     8    18    19   ar
     9    19    20   ar
    10    20    21   ar
    11    21    22    1
    12    21    23   ar
    13    23    24   ar
    14    24    25    1
    15     7     8    1
    16     8     9    1
    17     9    10    1
    18    10    11    1
    19    11    12    1
    20    12    13    1
    21    13    14    1
    22     9    15    1
    23    15    16    1
    24    16     7    1
    25    24    18   ar
    26    14     9    1
    27     3     4    1
@<TRIPOS>MOLECULE
*****
 25 27 0 0 0
SMALL
GASTEIGER

@<TRIPOS>ATOM
      1 C          -7.7041  -18.6265   21.4760 C.2     1  UNL1        0.2252
      2 O          -7.6645  -19.8777   22.3022 O.2     1  UNL1       -0.2750
      3 N          -6.6620  -18.3893   20.4235 N.am    1  UNL1       -0.3003
      4 H          -6.6880  -17.5680   19.8812 H       1  UNL1        0.1497
      5 C          -8.7860  -17.6123   21.7023 C.3     1  UNL1        0.1154
      6 C         -10.5548  -17.9420   22.5923 C.3     1  UNL1        0.0335
      7 C          -9.2768  -17.3369   23.0926 C.3     1  UNL1        0.1377
      8 C          -7.8961  -16.7893   23.3024 C.3     1  UNL1        0.0613
      9 C          -7.8008  -16.3020   24.7179 C.3     1  UNL1        0.1290
     10 C          -7.8546  -15.8610   26.1506 C.3     1  UNL1        0.0305
     11 C          -6.6492  -15.2369   26.7888 C.3     1  UNL1        0.0025
     12 C          -5.3900  -15.0538   25.9945 C.3     1  UNL1        0.0002
     13 C          -5.3363  -15.4948   24.5618 C.3     1  UNL1        0.0025
     14 C          -6.5417  -16.1189   23.9235 C.3     1  UNL1        0.0305
     15 O          -9.1226  -16.5484   25.3829 O.3     1  UNL1       -0.2256
     16 O         -10.0348  -17.1880   24.3785 O.3     1  UNL1       -0.2251
     17 C          -5.5803  -19.4035   20.1972 C.3     1  UNL1        0.1186
     18 C          -4.1428  -18.9754   20.1788 C.ar    1  UNL1        0.0250
     19 C          -3.5411  -18.4218   18.9213 C.ar    1  UNL1        0.0001
     20 C          -2.1036  -17.9937   18.9029 C.ar    1  UNL1        0.0066
     21 C          -1.2678  -18.1192   20.1421 C.ar    1  UNL1        0.0368
     22 BR          0.1697  -17.6910   20.1237 Br      1  UNL1       -0.0489
     23 C          -1.8694  -18.6728   21.3996 C.ar    1  UNL1        0.0361
     24 C          -3.3070  -19.1009   21.4181 C.ar    1  UNL1        0.1382
     25 F          -3.9086  -19.6545   22.6756 F       1  UNL1       -0.2044
@<TRIPOS>BOND
     1     6     7    1
     2     7     5    1
     3     5     1    1
     4     1     2    2
     5     1     3   am
     6     3    17    1
     7    17    18    1
     8    18    19   ar
     9    19    20   ar
    10    20    21   ar
    11    21    22    1
    12    21    23   ar
    13    23    24   ar
    14    24    25    1
    15     7     8    1
    16     8     9    1
    17     9    10    1
    18    10    11    1
    19    11    12    1
    20    12    13    1
    21    13    14    1
    22     9    15    1
    23    15    16    1
    24    16     7    1
    25    24    18   ar
    26    14     9    1
    27     3     4    1
@<TRIPOS>MOLECULE
*****
 25 27 0 0 0
SMALL
GASTEIGER

@<TRIPOS>ATOM
      1 C          -7.0947  -18.9604   21.5488 C.2     1  UNL1        0.2252
      2 O          -7.7767  -18.8247   20.2199 O.2     1  UNL1       -0.2750
      3 N          -7.4872  -18.0669   22.6881 N.am    1  UNL1       -0.3003
      4 H          -7.0395  -18.1560   23.5604 H       1  UNL1        0.1497
      5 C          -6.0201  -19.9897   21.7388 C.3     1  UNL1        0.1154
      6 C          -5.8098  -21.3365   20.2652 C.3     1  UNL1        0.0335
      7 C          -4.9636  -20.1731   20.6900 C.3     1  UNL1        0.1377
      8 C          -4.3382  -18.9714   21.3341 C.3     1  UNL1        0.0613
      9 C          -3.0720  -18.6553   20.5945 C.3     1  UNL1        0.1290
     10 C          -1.8386  -18.4623   19.7631 C.3     1  UNL1        0.0305
     11 C          -0.8952  -17.3374   20.0707 C.3     1  UNL1        0.0025
     12 C          -1.1854  -16.4055   21.2097 C.3     1  UNL1        0.0002
     13 C          -2.4188  -16.5985   22.0411 C.3     1  UNL1        0.0025
     14 C          -3.3621  -17.7234   21.7335 C.3     1  UNL1        0.0305
     15 O          -2.9148  -19.6617   19.4933 O.3     1  UNL1       -0.2256
     16 O          -4.0839  -20.5998   19.5523 O.3     1  UNL1       -0.2251
     17 C          -8.5617  -17.0377   22.4981 C.3     1  UNL1        0.1186
     18 C          -9.9668  -17.3314   22.9333 C.ar    1  UNL1        0.0250
     19 C         -10.2228  -18.3489   24.0053 C.ar    1  UNL1        0.0001
     20 C         -11.6279  -18.6426   24.4405 C.ar    1  UNL1        0.0066
     21 C         -12.7770  -17.9187   23.8037 C.ar    1  UNL1        0.0368
     22 BR        -14.1822  -18.2124   24.2390 Br      1  UNL1       -0.0489
     23 C         -12.5211  -16.9013   22.7318 C.ar    1  UNL1        0.0361
     24 C         -11.1159  -16.6075   22.2965 C.ar    1  UNL1        0.1382
     25 F         -10.8600  -15.5901   21.2246 F       1  UNL1       -0.2044
@<TRIPOS>BOND
     1     6     7    1
     2     7     5    1
     3     5     1    1
     4     1     2    2
     5     1     3   am
     6     3    17    1
     7    17    18    1
     8    18    19   ar
     9    19    20   ar
    10    20    21   ar
    11    21    22    1
    12    21    23   ar
    13    23    24   ar
    14    24    25    1
    15     7     8    1
    16     8     9    1
    17     9    10    1
    18    10    11    1
    19    11    12    1
    20    12    13    1
    21    13    14    1
    22     9    15    1
    23    15    16    1
    24    16     7    1
    25    24    18   ar
    26    14     9    1
    27     3     4    1
@<TRIPOS>MOLECULE
*****
 25 27 0 0 0
SMALL
GASTEIGER

@<TRIPOS>ATOM
      1 C          -7.1243  -19.0792   21.3661 C.2     1  UNL1        0.2252
      2 O          -7.2114  -17.5846   21.2745 O.2     1  UNL1       -0.2750
      3 N          -5.9984  -19.7199   22.1225 N.am    1  UNL1       -0.3003
      4 H          -5.9412  -20.7009   22.1827 H       1  UNL1        0.1497
      5 C          -8.1631  -19.9333   20.7015 C.3     1  UNL1        0.1154
      6 C          -8.8356  -19.4567   18.8711 C.3     1  UNL1        0.0335
      7 C          -9.4496  -19.3209   20.2329 C.3     1  UNL1        0.1377
      8 C          -9.7948  -19.3132   21.6926 C.3     1  UNL1        0.0613
      9 C         -11.1664  -18.7244   21.8416 C.3     1  UNL1        0.1290
     10 C         -12.5390  -18.1197   21.8344 C.3     1  UNL1        0.0305
     11 C         -13.2782  -17.9218   23.1245 C.3     1  UNL1        0.0025
     12 C         -12.6447  -18.3286   24.4218 C.3     1  UNL1        0.0002
     13 C         -11.2721  -18.9333   24.4291 C.3     1  UNL1        0.0025
     14 C         -10.5329  -19.1312   23.1390 C.3     1  UNL1        0.0305
     15 O         -11.6689  -18.3682   20.4739 O.3     1  UNL1       -0.2256
     16 O         -10.6079  -18.7369   19.4796 O.3     1  UNL1       -0.2251
     17 C          -4.9597  -18.8659   22.7871 C.3     1  UNL1        0.1186
     18 C          -3.7001  -18.5105   22.0544 C.ar    1  UNL1        0.0250
     19 C          -3.0539  -19.5123   21.1439 C.ar    1  UNL1        0.0001
     20 C          -1.7943  -19.1569   20.4112 C.ar    1  UNL1        0.0066
     21 C          -1.1807  -17.7997   20.5889 C.ar    1  UNL1        0.0368
     22 BR          0.0790  -17.4444   19.8561 Br      1  UNL1       -0.0489
     23 C          -1.8268  -16.7980   21.4994 C.ar    1  UNL1        0.0361
     24 C          -3.0865  -17.1533   22.2321 C.ar    1  UNL1        0.1382
     25 F          -3.7325  -16.1516   23.1426 F       1  UNL1       -0.2044
@<TRIPOS>BOND
     1     6     7    1
     2     7     5    1
     3     5     1    1
     4     1     2    2
     5     1     3   am
     6     3    17    1
     7    17    18    1
     8    18    19   ar
     9    19    20   ar
    10    20    21   ar
    11    21    22    1
    12    21    23   ar
    13    23    24   ar
    14    24    25    1
    15     7     8    1
    16     8     9    1
    17     9    10    1
    18    10    11    1
    19    11    12    1
    20    12    13    1
    21    13    14    1
    22     9    15    1
    23    15    16    1
    24    16     7    1
    25    24    18   ar
    26    14     9    1
    27     3     4    1
@<TRIPOS>MOLECULE
*****
 25 27 0 0 0
SMALL
GASTEIGER

@<TRIPOS>ATOM
      1 C          -7.8330  -18.7350   20.5726 C.2     1  UNL1        0.2252
      2 O          -9.0635  -18.7798   19.7161 O.2     1  UNL1       -0.2750
      3 N          -7.6751  -17.6563   21.6030 N.am    1  UNL1       -0.3003
      4 H          -6.8675  -17.6269   22.1652 H       1  UNL1        0.1497
      5 C          -6.7601  -19.7690   20.3989 C.3     1  UNL1        0.1154
      6 C          -6.6628  -20.5007   22.2656 C.3     1  UNL1        0.0335
      7 C          -5.6340  -19.8543   21.3860 C.3     1  UNL1        0.1377
      8 C          -4.8407  -19.1901   20.3000 C.3     1  UNL1        0.0613
      9 C          -3.4391  -19.0000   20.7997 C.3     1  UNL1        0.1290
     10 C          -2.0850  -18.8775   21.4331 C.3     1  UNL1        0.0305
     11 C          -0.9548  -18.2508   20.6717 C.3     1  UNL1        0.0025
     12 C          -1.1788  -17.7465   19.2769 C.3     1  UNL1        0.0002
     13 C          -2.5329  -17.8689   18.6435 C.3     1  UNL1        0.0025
     14 C          -3.6631  -18.4957   19.4049 C.3     1  UNL1        0.0305
     15 O          -3.3663  -19.5468   22.1946 O.3     1  UNL1       -0.2256
     16 O          -4.7228  -20.0748   22.5570 O.3     1  UNL1       -0.2251
     17 C          -8.7479  -16.6224   21.7767 C.3     1  UNL1        0.1186
     18 C         -10.0664  -17.0040   22.3815 C.ar    1  UNL1        0.0250
     19 C         -11.3256  -16.3314   21.9211 C.ar    1  UNL1        0.0001
     20 C         -12.6441  -16.7131   22.5259 C.ar    1  UNL1        0.0066
     21 C         -12.7034  -17.7674   23.5912 C.ar    1  UNL1        0.0368
     22 BR        -14.0220  -18.1490   24.1961 Br      1  UNL1       -0.0489
     23 C         -11.4443  -18.4400   24.0517 C.ar    1  UNL1        0.0361
     24 C         -10.1257  -18.0583   23.4469 C.ar    1  UNL1        0.1382
     25 F          -8.8667  -18.7309   23.9073 F       1  UNL1       -0.2044
@<TRIPOS>BOND
     1     6     7    1
     2     7     5    1
     3     5     1    1
     4     1     2    2
     5     1     3   am
     6     3    17    1
     7    17    18    1
     8    18    19   ar
     9    19    20   ar
    10    20    21   ar
    11    21    22    1
    12    21    23   ar
    13    23    24   ar
    14    24    25    1
    15     7     8    1
    16     8     9    1
    17     9    10    1
    18    10    11    1
    19    11    12    1
    20    12    13    1
    21    13    14    1
    22     9    15    1
    23    15    16    1
    24    16     7    1
    25    24    18   ar
    26    14     9    1
    27     3     4    1
@<TRIPOS>MOLECULE
*****
 25 27 0 0 0
SMALL
GASTEIGER

@<TRIPOS>ATOM
      1 C          -6.7730  -15.3561   24.2414 C.2     1  UNL1        0.2252
      2 O          -6.7773  -14.8589   22.8263 O.2     1  UNL1       -0.2750
      3 N          -5.5404  -15.9968   24.8075 N.am    1  UNL1       -0.3003
      4 H          -5.5375  -16.3231   25.7364 H       1  UNL1        0.1497
      5 C          -8.0012  -15.2127   25.0906 C.3     1  UNL1        0.1154
      6 C          -8.1360  -15.7178   27.0287 C.3     1  UNL1        0.0335
      7 C          -8.5827  -16.4130   25.7769 C.3     1  UNL1        0.1377
      8 C          -8.9079  -16.8572   24.3816 C.3     1  UNL1        0.0613
      9 C          -9.5971  -18.1869   24.4672 C.3     1  UNL1        0.1290
     10 C         -10.2701  -19.5054   24.7086 C.3     1  UNL1        0.0305
     11 C         -10.7706  -20.3153   23.5495 C.3     1  UNL1        0.0025
     12 C         -10.5981  -19.8066   22.1490 C.3     1  UNL1        0.0002
     13 C          -9.9251  -18.4880   21.9076 C.3     1  UNL1        0.0025
     14 C          -9.4246  -17.6781   23.0667 C.3     1  UNL1        0.0305
     15 O          -9.6978  -18.5643   25.9154 O.3     1  UNL1       -0.2256
     16 O          -9.0709  -17.4680   26.7249 O.3     1  UNL1       -0.2251
     17 C          -4.3122  -16.1402   23.9584 C.3     1  UNL1        0.1186
     18 C          -4.2140  -17.2595   22.9647 C.ar    1  UNL1        0.0250
     19 C          -5.3472  -18.2308   22.8145 C.ar    1  UNL1        0.0001
     20 C          -5.2489  -19.3501   21.8209 C.ar    1  UNL1        0.0066
     21 C          -4.0175  -19.4982   20.9774 C.ar    1  UNL1        0.0368
     22 BR         -3.9193  -20.6176   19.9837 Br      1  UNL1       -0.0489
     23 C          -2.8843  -18.5271   21.1275 C.ar    1  UNL1        0.0361
     24 C          -2.9825  -17.4076   22.1212 C.ar    1  UNL1        0.1382
     25 F          -1.8494  -16.4365   22.2713 F       1  UNL1       -0.2044
@<TRIPOS>BOND
     1     6     7    1
     2     7     5    1
     3     5     1    1
     4     1     2    2
     5     1     3   am
     6     3    17    1
     7    17    18    1
     8    18    19   ar
     9    19    20   ar
    10    20    21   ar
    11    21    22    1
    12    21    23   ar
    13    23    24   ar
    14    24    25    1
    15     7     8    1
    16     8     9    1
    17     9    10    1
    18    10    11    1
    19    11    12    1
    20    12    13    1
    21    13    14    1
    22     9    15    1
    23    15    16    1
    24    16     7    1
    25    24    18   ar
    26    14     9    1
    27     3     4    1
@<TRIPOS>MOLECULE
*****
 25 27 0 0 0
SMALL
GASTEIGER

@<TRIPOS>ATOM
      1 C          -8.3540  -18.8606   21.6386 C.2     1  UNL1        0.2252
      2 O          -7.9122  -18.5373   20.2422 O.2     1  UNL1       -0.2750
      3 N          -7.5524  -19.8110   22.4779 N.am    1  UNL1       -0.3003
      4 H          -7.8424  -20.0233   23.3944 H       1  UNL1        0.1497
      5 C          -9.5976  -18.2336   22.1960 C.3     1  UNL1        0.1154
      6 C         -10.9346  -19.2319   23.3119 C.3     1  UNL1        0.0335
      7 C          -9.8523  -18.2585   23.6739 C.3     1  UNL1        0.1377
      8 C          -8.7168  -17.2799   23.7270 C.3     1  UNL1        0.0613
      9 C          -8.4959  -16.9035   25.1622 C.3     1  UNL1        0.1290
     10 C          -8.3936  -16.6240   26.6323 C.3     1  UNL1        0.0305
     11 C          -7.3559  -15.6692   27.1437 C.3     1  UNL1        0.0025
     12 C          -6.4205  -14.9940   26.1850 C.3     1  UNL1        0.0002
     13 C          -6.5228  -15.2736   24.7149 C.3     1  UNL1        0.0025
     14 C          -7.5605  -16.2283   24.2035 C.3     1  UNL1        0.0305
     15 O          -9.4950  -17.6495   25.9961 O.3     1  UNL1       -0.2256
     16 O         -10.3333  -18.4870   25.0763 O.3     1  UNL1       -0.2251
     17 C          -6.3089  -20.4380   21.9205 C.3     1  UNL1        0.1186
     18 C          -5.0874  -19.6000   21.6847 C.ar    1  UNL1        0.0250
     19 C          -4.7129  -18.5277   22.6644 C.ar    1  UNL1        0.0001
     20 C          -3.4914  -17.6897   22.4286 C.ar    1  UNL1        0.0066
     21 C          -2.6443  -17.9240   21.2131 C.ar    1  UNL1        0.0368
     22 BR         -1.4228  -17.0860   20.9773 Br      1  UNL1       -0.0489
     23 C          -3.0188  -18.9963   20.2334 C.ar    1  UNL1        0.0361
     24 C          -4.2404  -19.8344   20.4691 C.ar    1  UNL1        0.1382
     25 F          -4.6148  -20.9066   19.4895 F       1  UNL1       -0.2044
@<TRIPOS>BOND
     1     6     7    1
     2     7     5    1
     3     5     1    1
     4     1     2    2
     5     1     3   am
     6     3    17    1
     7    17    18    1
     8    18    19   ar
     9    19    20   ar
    10    20    21   ar
    11    21    22    1
    12    21    23   ar
    13    23    24   ar
    14    24    25    1
    15     7     8    1
    16     8     9    1
    17     9    10    1
    18    10    11    1
    19    11    12    1
    20    12    13    1
    21    13    14    1
    22     9    15    1
    23    15    16    1
    24    16     7    1
    25    24    18   ar
    26    14     9    1
    27     3     4    1
@<TRIPOS>MOLECULE
*****
 25 27 0 0 0
SMALL
GASTEIGER

@<TRIPOS>ATOM
      1 C          -6.2519  -15.8311   23.7264 C.2     1  UNL1        0.2252
      2 O          -5.4235  -14.8169   24.4577 O.2     1  UNL1       -0.2750
      3 N          -5.6554  -17.1542   23.3471 N.am    1  UNL1       -0.3003
      4 H          -6.1992  -17.8199   22.8671 H       1  UNL1        0.1497
      5 C          -7.6770  -15.5224   23.3744 C.3     1  UNL1        0.1154
      6 C          -8.5785  -15.5311   25.1679 C.3     1  UNL1        0.0335
      7 C          -8.7867  -16.3609   23.9358 C.3     1  UNL1        0.1377
      8 C          -8.7630  -17.0154   22.5864 C.3     1  UNL1        0.0613
      9 C          -9.8146  -18.0851   22.5714 C.3     1  UNL1        0.1290
     10 C         -10.8987  -19.1132   22.7043 C.3     1  UNL1        0.0305
     11 C         -11.2201  -20.0174   21.5515 C.3     1  UNL1        0.0025
     12 C         -10.4574  -19.8936   20.2658 C.3     1  UNL1        0.0002
     13 C          -9.3733  -18.8655   20.1329 C.3     1  UNL1        0.0025
     14 C          -9.0519  -17.9612   21.2857 C.3     1  UNL1        0.0305
     15 O         -10.4882  -18.0916   23.9116 O.3     1  UNL1       -0.2256
     16 O          -9.8530  -17.0260   24.7549 O.3     1  UNL1       -0.2251
     17 C          -4.2304  -17.4629   23.6992 C.3     1  UNL1        0.1186
     18 C          -3.2115  -17.6424   22.6131 C.ar    1  UNL1        0.0250
     19 C          -2.8358  -19.0213   22.1577 C.ar    1  UNL1        0.0001
     20 C          -1.8169  -19.2009   21.0716 C.ar    1  UNL1        0.0066
     21 C          -1.1737  -18.0015   20.4409 C.ar    1  UNL1        0.0368
     22 BR         -0.1548  -18.1811   19.3547 Br      1  UNL1       -0.0489
     23 C          -1.5494  -16.6226   20.8963 C.ar    1  UNL1        0.0361
     24 C          -2.5683  -16.4430   21.9825 C.ar    1  UNL1        0.1382
     25 F          -2.9440  -15.0642   22.4378 F       1  UNL1       -0.2044
@<TRIPOS>BOND
     1     6     7    1
     2     7     5    1
     3     5     1    1
     4     1     2    2
     5     1     3   am
     6     3    17    1
     7    17    18    1
     8    18    19   ar
     9    19    20   ar
    10    20    21   ar
    11    21    22    1
    12    21    23   ar
    13    23    24   ar
    14    24    25    1
    15     7     8    1
    16     8     9    1
    17     9    10    1
    18    10    11    1
    19    11    12    1
    20    12    13    1
    21    13    14    1
    22     9    15    1
    23    15    16    1
    24    16     7    1
    25    24    18   ar
    26    14     9    1
    27     3     4    1
@<TRIPOS>MOLECULE
*****
 25 27 0 0 0
SMALL
GASTEIGER

@<TRIPOS>ATOM
      1 C          -6.5535  -15.6204   24.9779 C.2     1  UNL1        0.2252
      2 O          -5.7745  -14.9741   26.0848 O.2     1  UNL1       -0.2750
      3 N          -5.8514  -16.4815   23.9702 N.am    1  UNL1       -0.3003
      4 H          -6.3627  -16.9057   23.2436 H       1  UNL1        0.1497
      5 C          -8.0348  -15.4055   24.8787 C.3     1  UNL1        0.1154
      6 C          -8.3938  -16.6276   26.4302 C.3     1  UNL1        0.0335
      7 C          -8.9735  -16.5631   25.0483 C.3     1  UNL1        0.1377
      8 C          -9.3569  -16.2566   23.6309 C.3     1  UNL1        0.0613
      9 C         -10.4115  -17.2383   23.2133 C.3     1  UNL1        0.1290
     10 C         -11.4539  -18.2816   22.9397 C.3     1  UNL1        0.0305
     11 C         -12.1226  -18.3398   21.5983 C.3     1  UNL1        0.0025
     12 C         -11.7490  -17.3547   20.5306 C.3     1  UNL1        0.0002
     13 C         -10.7066  -16.3114   20.8042 C.3     1  UNL1        0.0025
     14 C         -10.0379  -16.2532   22.1455 C.3     1  UNL1        0.0305
     15 O         -10.6798  -18.1515   24.3727 O.3     1  UNL1       -0.2256
     16 O          -9.7910  -17.7342   25.5068 O.3     1  UNL1       -0.2251
     17 C          -4.3702  -16.6964   24.0694 C.3     1  UNL1        0.1186
     18 C          -3.5842  -17.0776   22.8500 C.ar    1  UNL1        0.0250
     19 C          -2.6141  -16.1046   22.2485 C.ar    1  UNL1        0.0001
     20 C          -1.8281  -16.4858   21.0291 C.ar    1  UNL1        0.0066
     21 C          -2.0124  -17.8402   20.4113 C.ar    1  UNL1        0.0368
     22 BR         -1.2264  -18.2214   19.1918 Br      1  UNL1       -0.0489
     23 C          -2.9825  -18.8132   21.0128 C.ar    1  UNL1        0.0361
     24 C          -3.7685  -18.4320   22.2322 C.ar    1  UNL1        0.1382
     25 F          -4.7386  -19.4050   22.8337 F       1  UNL1       -0.2044
@<TRIPOS>BOND
     1     6     7    1
     2     7     5    1
     3     5     1    1
     4     1     2    2
     5     1     3   am
     6     3    17    1
     7    17    18    1
     8    18    19   ar
     9    19    20   ar
    10    20    21   ar
    11    21    22    1
    12    21    23   ar
    13    23    24   ar
    14    24    25    1
    15     7     8    1
    16     8     9    1
    17     9    10    1
    18    10    11    1
    19    11    12    1
    20    12    13    1
    21    13    14    1
    22     9    15    1
    23    15    16    1
    24    16     7    1
    25    24    18   ar
    26    14     9    1
    27     3     4    1
