@<TRIPOS>MOLECULE
*****
 35 38 0 0 0
SMALL
GASTEIGER

@<TRIPOS>ATOM
      1 C           4.2093   -0.1561   24.7181 C.3     1  UNL1        0.0531
      2 C           2.9007    0.4361   24.2858 C.ar    1  UNL1        0.0713
      3 C           1.7240    0.7164   25.1728 C.ar    1  UNL1        0.0851
      4 C           0.6351    1.3056   24.3257 C.ar    1  UNL1        0.1359
      5 N           1.1390    1.3894   22.9154 N.ar    1  UNL1       -0.1663
      6 N           2.5392    0.8520   22.8907 N.ar    1  UNL1       -0.2491
      7 N           1.6492    0.4537   26.6477 N.am    1  UNL1       -0.2769
      8 C           2.2418    1.4348   27.6153 C.2     1  UNL1        0.2706
      9 O           2.9093    2.6787   27.1079 O.2     1  UNL1       -0.2680
     10 H           1.2111   -0.3627   26.9806 H       1  UNL1        0.1553
     11 C           2.1670    1.1721   29.0902 C.ar    1  UNL1        0.1765
     12 C           3.1816    0.4266   29.9055 C.ar    1  UNL1        0.0704
     13 C           2.7061    0.4025   31.3279 C.ar    1  UNL1        0.2113
     14 O           1.3976    1.1330   31.3916 O.2     1  UNL1       -0.3501
     15 N           1.0644    1.6087   30.0086 N.ar    1  UNL1       -0.0722
     16 C           3.4147   -0.2395   32.4837 C.ar    1  UNL1        0.1824
     17 C           3.9628    0.4702   33.6861 C.ar    1  UNL1        0.0440
     18 C           4.5865   -0.5555   34.5855 C.ar    1  UNL1        0.0439
     19 C           4.4239   -1.8993   33.9388 C.ar    1  UNL1        0.1798
     20 O           3.6997   -1.7039   32.6399 O.2     1  UNL1       -0.4472
     21 C           3.4227    0.7488   21.6830 C.3     1  UNL1        0.1534
     22 C           3.6965   -0.5910   21.0664 C.ar    1  UNL1        0.0060
     23 C           4.8539   -1.4154   21.5470 C.ar    1  UNL1       -0.0024
     24 C           5.1277   -2.7551   20.9304 C.ar    1  UNL1        0.0036
     25 C           4.2442   -3.2704   19.8332 C.ar    1  UNL1        0.0714
     26 C           3.0869   -2.4460   19.3526 C.ar    1  UNL1        0.0074
     27 C           2.8131   -1.1063   19.9692 C.ar    1  UNL1        0.0693
     28 C           4.5180   -4.6101   19.2166 C.3     1  UNL1        0.4186
     29 F           4.7918   -5.9498   18.6000 F       1  UNL1       -0.1659
     30 F           3.1032   -4.6717   18.7223 F       1  UNL1       -0.1659
     31 F           5.9329   -4.5486   19.7110 F       1  UNL1       -0.1659
     32 C           1.6557   -0.2819   19.4886 C.3     1  UNL1        0.4183
     33 F           0.4984    0.5424   19.0079 F       1  UNL1       -0.1659
     34 F           2.5365    0.3501   18.4518 F       1  UNL1       -0.1659
     35 F           0.7750   -0.9140   20.5253 F       1  UNL1       -0.1659
@<TRIPOS>BOND
     1     1     2    1
     2     2     3   ar
     3     3     7    1
     4     7     8   am
     5     8     9    2
     6     8    11    1
     7    11    12   ar
     8    12    13   ar
     9    13    16    1
    10    16    17   ar
    11    17    18   ar
    12    18    19   ar
    13    19    20   ar
    14    13    14   ar
    15    14    15   ar
    16     3     4   ar
    17     4     5   ar
    18     5     6   ar
    19     6    21    1
    20    21    22    1
    21    22    23   ar
    22    23    24   ar
    23    24    25   ar
    24    25    28    1
    25    28    29    1
    26    28    30    1
    27    28    31    1
    28    25    26   ar
    29    26    27   ar
    30    27    32    1
    31    32    33    1
    32    32    34    1
    33    32    35    1
    34     6     2   ar
    35    27    22   ar
    36    15    11   ar
    37    20    16   ar
    38     7    10    1
@<TRIPOS>MOLECULE
*****
 35 38 0 0 0
SMALL
GASTEIGER

@<TRIPOS>ATOM
      1 C           4.4000   -3.4870   22.2175 C.3     1  UNL1        0.0531
      2 C           5.5778   -2.8610   21.5312 C.ar    1  UNL1        0.0713
      3 C           6.9300   -2.6282   22.1373 C.ar    1  UNL1        0.0851
      4 C           7.7981   -1.9812   21.0990 C.ar    1  UNL1        0.1359
      5 N           6.9823   -1.8141   19.8514 N.ar    1  UNL1       -0.1663
      6 N           5.6101   -2.3578   20.1185 N.ar    1  UNL1       -0.2491
      7 N           7.3419   -2.9805   23.5359 N.am    1  UNL1       -0.2769
      8 C           7.6587   -4.4037   23.8884 C.2     1  UNL1        0.2706
      9 O           7.5637   -5.4745   22.8423 O.2     1  UNL1       -0.2680
     10 H           7.4043   -2.2777   24.2225 H       1  UNL1        0.1553
     11 C           8.0706   -4.7560   25.2871 C.ar    1  UNL1        0.1765
     12 C           7.2535   -4.5433   26.5268 C.ar    1  UNL1        0.0704
     13 C           8.0498   -5.0387   27.6975 C.ar    1  UNL1        0.2113
     14 O           9.3590   -5.5577   27.1812 O.2     1  UNL1       -0.3501
     15 N           9.3719   -5.3829   25.6915 N.ar    1  UNL1       -0.0722
     16 C           7.6134   -5.0188   29.1325 C.ar    1  UNL1        0.1824
     17 C           7.2122   -3.8037   29.9152 C.ar    1  UNL1        0.0440
     18 C           6.8525   -4.2444   31.3032 C.ar    1  UNL1        0.0439
     19 C           7.0312   -5.7319   31.3782 C.ar    1  UNL1        0.1798
     20 O           7.5015   -6.2104   30.0367 O.2     1  UNL1       -0.4472
     21 C           4.4704   -2.3924   19.1440 C.3     1  UNL1        0.1534
     22 C           3.4303   -1.3117   19.1676 C.ar    1  UNL1        0.0060
     23 C           2.2643   -1.4133   20.1057 C.ar    1  UNL1       -0.0024
     24 C           1.2243   -0.3327   20.1294 C.ar    1  UNL1        0.0036
     25 C           1.3503    0.8496   19.2149 C.ar    1  UNL1        0.0714
     26 C           2.5163    0.9512   18.2768 C.ar    1  UNL1        0.0074
     27 C           3.5563   -0.1294   18.2531 C.ar    1  UNL1        0.0693
     28 C           0.3103    1.9303   19.2385 C.3     1  UNL1        0.4186
     29 F          -0.7297    3.0109   19.2621 F       1  UNL1       -0.1659
     30 F           1.0188    2.6365   18.1208 F       1  UNL1       -0.1659
     31 F          -0.3982    1.2241   20.3562 F       1  UNL1       -0.1659
     32 C           4.7223   -0.0277   17.3150 C.3     1  UNL1        0.4183
     33 F           5.8883    0.0739   16.3768 F       1  UNL1       -0.1659
     34 F           5.5029    0.7063   18.3647 F       1  UNL1       -0.1659
     35 F           3.9418   -0.7618   16.2653 F       1  UNL1       -0.1659
@<TRIPOS>BOND
     1     1     2    1
     2     2     3   ar
     3     3     7    1
     4     7     8   am
     5     8     9    2
     6     8    11    1
     7    11    12   ar
     8    12    13   ar
     9    13    16    1
    10    16    17   ar
    11    17    18   ar
    12    18    19   ar
    13    19    20   ar
    14    13    14   ar
    15    14    15   ar
    16     3     4   ar
    17     4     5   ar
    18     5     6   ar
    19     6    21    1
    20    21    22    1
    21    22    23   ar
    22    23    24   ar
    23    24    25   ar
    24    25    28    1
    25    28    29    1
    26    28    30    1
    27    28    31    1
    28    25    26   ar
    29    26    27   ar
    30    27    32    1
    31    32    33    1
    32    32    34    1
    33    32    35    1
    34     6     2   ar
    35    27    22   ar
    36    15    11   ar
    37    20    16   ar
    38     7    10    1
@<TRIPOS>MOLECULE
*****
 35 38 0 0 0
SMALL
GASTEIGER

@<TRIPOS>ATOM
      1 C           3.6838    0.5115   25.0037 C.3     1  UNL1        0.0531
      2 C           2.3459    0.8334   24.4068 C.ar    1  UNL1        0.0713
      3 C           1.0691    1.0425   25.1658 C.ar    1  UNL1        0.0851
      4 C          -0.0160    1.3411   24.1741 C.ar    1  UNL1        0.1359
      5 N           0.5902    1.3166   22.8022 N.ar    1  UNL1       -0.1663
      6 N           2.0499    1.0028   22.9460 N.ar    1  UNL1       -0.2491
      7 N           0.9061    0.9664   26.6549 N.am    1  UNL1       -0.2769
      8 C           0.7745    2.2250   27.4603 C.2     1  UNL1        0.2706
      9 O           0.8060    3.5598   26.7765 O.2     1  UNL1       -0.2680
     10 H           0.8854    0.0904   27.1037 H       1  UNL1        0.1553
     11 C           0.6114    2.1489   28.9495 C.ar    1  UNL1        0.1765
     12 C           1.0518    3.1868   29.9388 C.ar    1  UNL1        0.0704
     13 C           0.6919    2.7008   31.3115 C.ar    1  UNL1        0.2113
     14 O           0.0291    1.3626   31.1705 O.2     1  UNL1       -0.3501
     15 N          -0.0206    1.0215   29.7107 N.ar    1  UNL1       -0.0722
     16 C           0.9496    3.4259   32.5992 C.ar    1  UNL1        0.1824
     17 C           0.3839    4.7594   32.9886 C.ar    1  UNL1        0.0440
     18 C           0.9029    5.1023   34.3535 C.ar    1  UNL1        0.0439
     19 C           1.7894    3.9807   34.8077 C.ar    1  UNL1        0.1798
     20 O           1.8182    2.9446   33.7234 O.2     1  UNL1       -0.4472
     21 C           3.0398    0.8800   21.8258 C.3     1  UNL1        0.1534
     22 C           3.3489   -0.4670   21.2423 C.ar    1  UNL1        0.0060
     23 C           4.3777   -1.3463   21.8892 C.ar    1  UNL1       -0.0024
     24 C           4.6868   -2.6932   21.3058 C.ar    1  UNL1        0.0036
     25 C           3.9671   -3.1607   20.0756 C.ar    1  UNL1        0.0714
     26 C           2.9384   -2.2813   19.4287 C.ar    1  UNL1        0.0074
     27 C           2.6293   -0.9345   20.0121 C.ar    1  UNL1        0.0693
     28 C           4.2762   -4.5076   19.4921 C.3     1  UNL1        0.4186
     29 F           4.5854   -5.8544   18.9087 F       1  UNL1       -0.1659
     30 F           5.7027   -4.3723   19.9356 F       1  UNL1       -0.1659
     31 F           2.8497   -4.6429   19.0486 F       1  UNL1       -0.1659
     32 C           1.6005   -0.0551   19.3653 C.3     1  UNL1        0.4183
     33 F           0.5717    0.8242   18.7184 F       1  UNL1       -0.1659
     34 F           0.5417   -0.6424   20.2508 F       1  UNL1       -0.1659
     35 F           2.6592    0.5321   18.4797 F       1  UNL1       -0.1659
@<TRIPOS>BOND
     1     1     2    1
     2     2     3   ar
     3     3     7    1
     4     7     8   am
     5     8     9    2
     6     8    11    1
     7    11    12   ar
     8    12    13   ar
     9    13    16    1
    10    16    17   ar
    11    17    18   ar
    12    18    19   ar
    13    19    20   ar
    14    13    14   ar
    15    14    15   ar
    16     3     4   ar
    17     4     5   ar
    18     5     6   ar
    19     6    21    1
    20    21    22    1
    21    22    23   ar
    22    23    24   ar
    23    24    25   ar
    24    25    28    1
    25    28    29    1
    26    28    30    1
    27    28    31    1
    28    25    26   ar
    29    26    27   ar
    30    27    32    1
    31    32    33    1
    32    32    34    1
    33    32    35    1
    34     6     2   ar
    35    27    22   ar
    36    15    11   ar
    37    20    16   ar
    38     7    10    1
@<TRIPOS>MOLECULE
*****
 35 38 0 0 0
SMALL
GASTEIGER

@<TRIPOS>ATOM
      1 C           6.5356   -1.4866   26.7238 C.3     1  UNL1        0.0531
      2 C           6.8668   -2.9448   26.6058 C.ar    1  UNL1        0.0713
      3 C           6.4135   -3.8662   25.5124 C.ar    1  UNL1        0.0851
      4 C           6.9760   -5.2285   25.7914 C.ar    1  UNL1        0.1359
      5 N           7.7768   -5.1490   27.0572 N.ar    1  UNL1       -0.1663
      6 N           7.7093   -3.7377   27.5606 N.ar    1  UNL1       -0.2491
      7 N           5.5496   -3.4912   24.3449 N.am    1  UNL1       -0.2769
      8 C           5.9372   -3.9135   22.9588 C.2     1  UNL1        0.2706
      9 O           7.1888   -4.7109   22.7401 O.2     1  UNL1       -0.2680
     10 H           4.7281   -2.9678   24.4885 H       1  UNL1        0.1553
     11 C           5.0732   -3.5384   21.7913 C.ar    1  UNL1        0.1765
     12 C           4.3139   -2.2546   21.6330 C.ar    1  UNL1        0.0704
     13 C           3.5883   -2.3041   20.3211 C.ar    1  UNL1        0.2113
     14 O           3.8992   -3.6186   19.6687 O.2     1  UNL1       -0.3501
     15 N           4.8169   -4.3814   20.5774 N.ar    1  UNL1       -0.0722
     16 C           2.7065   -1.2280   19.7600 C.ar    1  UNL1        0.1824
     17 C           1.4072   -0.7589   20.3445 C.ar    1  UNL1        0.0440
     18 C           0.8671    0.3269   19.4617 C.ar    1  UNL1        0.0439
     19 C           1.8325    0.5288   18.3316 C.ar    1  UNL1        0.1798
     20 O           2.9694   -0.4322   18.5160 O.2     1  UNL1       -0.4472
     21 C           8.3686   -3.2115   28.8009 C.3     1  UNL1        0.1534
     22 C           7.5394   -2.8669   30.0025 C.ar    1  UNL1        0.0060
     23 C           7.0315   -1.4676   30.1869 C.ar    1  UNL1       -0.0024
     24 C           6.2024   -1.1229   31.3884 C.ar    1  UNL1        0.0036
     25 C           5.8811   -2.1775   32.4055 C.ar    1  UNL1        0.0714
     26 C           6.3890   -3.5768   32.2211 C.ar    1  UNL1        0.0074
     27 C           7.2181   -3.9215   31.0195 C.ar    1  UNL1        0.0693
     28 C           5.0519   -1.8329   33.6071 C.3     1  UNL1        0.4186
     29 F           4.2227   -1.4883   34.8086 F       1  UNL1       -0.1659
     30 F           4.3967   -3.1806   33.5414 F       1  UNL1       -0.1659
     31 F           5.7072   -0.4852   33.6728 F       1  UNL1       -0.1659
     32 C           7.7260   -5.3208   30.8351 C.3     1  UNL1        0.4183
     33 F           8.2339   -6.7201   30.6506 F       1  UNL1       -0.1659
     34 F           8.9718   -4.9685   31.5926 F       1  UNL1       -0.1659
     35 F           6.4802   -5.6731   30.0776 F       1  UNL1       -0.1659
@<TRIPOS>BOND
     1     1     2    1
     2     2     3   ar
     3     3     7    1
     4     7     8   am
     5     8     9    2
     6     8    11    1
     7    11    12   ar
     8    12    13   ar
     9    13    16    1
    10    16    17   ar
    11    17    18   ar
    12    18    19   ar
    13    19    20   ar
    14    13    14   ar
    15    14    15   ar
    16     3     4   ar
    17     4     5   ar
    18     5     6   ar
    19     6    21    1
    20    21    22    1
    21    22    23   ar
    22    23    24   ar
    23    24    25   ar
    24    25    28    1
    25    28    29    1
    26    28    30    1
    27    28    31    1
    28    25    26   ar
    29    26    27   ar
    30    27    32    1
    31    32    33    1
    32    32    34    1
    33    32    35    1
    34     6     2   ar
    35    27    22   ar
    36    15    11   ar
    37    20    16   ar
    38     7    10    1
@<TRIPOS>MOLECULE
*****
 35 38 0 0 0
SMALL
GASTEIGER

@<TRIPOS>ATOM
      1 C           7.3532   -0.0583   33.2035 C.3     1  UNL1        0.0531
      2 C           5.9113    0.0139   32.7967 C.ar    1  UNL1        0.0713
      3 C           5.2507   -0.8200   31.7392 C.ar    1  UNL1        0.0851
      4 C           3.8079   -0.4166   31.6649 C.ar    1  UNL1        0.1359
      5 N           3.5768    0.6667   32.6764 N.ar    1  UNL1       -0.1663
      6 N           4.8767    0.9328   33.3759 N.ar    1  UNL1       -0.2491
      7 N           5.9161   -1.8726   30.9030 N.am    1  UNL1       -0.2769
      8 C           6.1294   -3.2490   31.4598 C.2     1  UNL1        0.2706
      9 O           5.6772   -3.5728   32.8529 O.2     1  UNL1       -0.2680
     10 H           6.2129   -1.6600   29.9886 H       1  UNL1        0.1553
     11 C           6.7948   -4.3016   30.6235 C.ar    1  UNL1        0.1765
     12 C           6.6486   -4.4720   29.1405 C.ar    1  UNL1        0.0704
     13 C           7.4867   -5.6443   28.7239 C.ar    1  UNL1        0.2113
     14 O           8.1507   -6.1982   29.9495 O.2     1  UNL1       -0.3501
     15 N           7.7231   -5.3684   31.1236 N.ar    1  UNL1       -0.0722
     16 C           7.6347   -6.1702   27.3268 C.ar    1  UNL1        0.1824
     17 C           7.8774   -7.6001   26.9441 C.ar    1  UNL1        0.0440
     18 C           7.9587   -7.6721   25.4481 C.ar    1  UNL1        0.0439
     19 C           7.7662   -6.2867   24.9061 C.ar    1  UNL1        0.1798
     20 O           7.5660   -5.3585   26.0673 O.2     1  UNL1       -0.4472
     21 C           5.1025    1.9407   34.4635 C.3     1  UNL1        0.1534
     22 C           4.2122    1.9535   35.6708 C.ar    1  UNL1        0.0060
     23 C           3.0343    2.8807   35.7241 C.ar    1  UNL1       -0.0024
     24 C           2.1440    2.8936   36.9313 C.ar    1  UNL1        0.0036
     25 C           2.4317    1.9793   38.0850 C.ar    1  UNL1        0.0714
     26 C           3.6096    1.0521   38.0317 C.ar    1  UNL1        0.0074
     27 C           4.4999    1.0392   36.8245 C.ar    1  UNL1        0.0693
     28 C           1.5414    1.9921   39.2923 C.3     1  UNL1        0.4186
     29 F           0.6512    2.0049   40.4994 F       1  UNL1       -0.1659
     30 F           0.8473    0.7596   38.7934 F       1  UNL1       -0.1659
     31 F           2.2356    3.2247   39.7911 F       1  UNL1       -0.1659
     32 C           5.6778    0.1121   36.7712 C.3     1  UNL1        0.4183
     33 F           6.8557   -0.8151   36.7178 F       1  UNL1       -0.1659
     34 F           4.8511   -0.8955   36.0287 F       1  UNL1       -0.1659
     35 F           6.5045    1.1197   37.5136 F       1  UNL1       -0.1659
@<TRIPOS>BOND
     1     1     2    1
     2     2     3   ar
     3     3     7    1
     4     7     8   am
     5     8     9    2
     6     8    11    1
     7    11    12   ar
     8    12    13   ar
     9    13    16    1
    10    16    17   ar
    11    17    18   ar
    12    18    19   ar
    13    19    20   ar
    14    13    14   ar
    15    14    15   ar
    16     3     4   ar
    17     4     5   ar
    18     5     6   ar
    19     6    21    1
    20    21    22    1
    21    22    23   ar
    22    23    24   ar
    23    24    25   ar
    24    25    28    1
    25    28    29    1
    26    28    30    1
    27    28    31    1
    28    25    26   ar
    29    26    27   ar
    30    27    32    1
    31    32    33    1
    32    32    34    1
    33    32    35    1
    34     6     2   ar
    35    27    22   ar
    36    15    11   ar
    37    20    16   ar
    38     7    10    1
@<TRIPOS>MOLECULE
*****
 35 38 0 0 0
SMALL
GASTEIGER

@<TRIPOS>ATOM
      1 C           6.4890   -0.8737   20.9288 C.3     1  UNL1        0.0531
      2 C           5.9760   -2.2057   20.4679 C.ar    1  UNL1        0.0713
      3 C           4.7189   -2.4434   19.6848 C.ar    1  UNL1        0.0851
      4 C           4.5960   -3.9186   19.4421 C.ar    1  UNL1        0.1359
      5 N           5.7771   -4.5925   20.0752 N.ar    1  UNL1       -0.1663
      6 N           6.6300   -3.5339   20.7092 N.ar    1  UNL1       -0.2491
      7 N           3.7542   -1.3909   19.2251 N.am    1  UNL1       -0.2769
      8 C           2.7791   -0.7921   20.1951 C.2     1  UNL1        0.2706
      9 O           2.7689   -1.2460   21.6248 O.2     1  UNL1       -0.2680
     10 H           3.7609   -1.0930   18.2868 H       1  UNL1        0.1553
     11 C           1.8144    0.2604   19.7354 C.ar    1  UNL1        0.1765
     12 C           0.8671    1.0296   20.6078 C.ar    1  UNL1        0.0704
     13 C           0.0948    1.9732   19.7342 C.ar    1  UNL1        0.2113
     14 O           0.5647    1.7871   18.3219 O.2     1  UNL1       -0.3501
     15 N           1.6275    0.7286   18.3227 N.ar    1  UNL1       -0.0722
     16 C          -0.9620    2.9341   20.1924 C.ar    1  UNL1        0.1824
     17 C          -0.8746    4.4307   20.1419 C.ar    1  UNL1        0.0440
     18 C          -2.1502    4.9886   20.6999 C.ar    1  UNL1        0.0439
     19 C          -3.0261    3.8368   21.0953 C.ar    1  UNL1        0.1798
     20 O          -2.2917    2.5671   20.7816 O.2     1  UNL1       -0.4472
     21 C           7.9118   -3.7632   21.4537 C.3     1  UNL1        0.1534
     22 C           7.9769   -4.8039   22.5321 C.ar    1  UNL1        0.0060
     23 C           8.7102   -6.0898   22.2902 C.ar    1  UNL1       -0.0024
     24 C           8.7754   -7.1304   23.3686 C.ar    1  UNL1        0.0036
     25 C           8.1071   -6.8850   24.6889 C.ar    1  UNL1        0.0714
     26 C           7.3738   -5.5991   24.9308 C.ar    1  UNL1        0.0074
     27 C           7.3086   -4.5585   23.8524 C.ar    1  UNL1        0.0693
     28 C           8.1722   -7.9256   25.7673 C.3     1  UNL1        0.4186
     29 F           8.2373   -8.9662   26.8457 F       1  UNL1       -0.1659
     30 F           6.8141   -7.5103   26.2500 F       1  UNL1       -0.1659
     31 F           9.5303   -8.3410   25.2846 F       1  UNL1       -0.1659
     32 C           6.5753   -3.2726   24.0944 C.3     1  UNL1        0.4183
     33 F           5.8419   -1.9866   24.3363 F       1  UNL1       -0.1659
     34 F           7.8480   -2.6360   24.5688 F       1  UNL1       -0.1659
     35 F           5.3026   -3.9091   23.6199 F       1  UNL1       -0.1659
@<TRIPOS>BOND
     1     1     2    1
     2     2     3   ar
     3     3     7    1
     4     7     8   am
     5     8     9    2
     6     8    11    1
     7    11    12   ar
     8    12    13   ar
     9    13    16    1
    10    16    17   ar
    11    17    18   ar
    12    18    19   ar
    13    19    20   ar
    14    13    14   ar
    15    14    15   ar
    16     3     4   ar
    17     4     5   ar
    18     5     6   ar
    19     6    21    1
    20    21    22    1
    21    22    23   ar
    22    23    24   ar
    23    24    25   ar
    24    25    28    1
    25    28    29    1
    26    28    30    1
    27    28    31    1
    28    25    26   ar
    29    26    27   ar
    30    27    32    1
    31    32    33    1
    32    32    34    1
    33    32    35    1
    34     6     2   ar
    35    27    22   ar
    36    15    11   ar
    37    20    16   ar
    38     7    10    1
@<TRIPOS>MOLECULE
*****
 35 38 0 0 0
SMALL
GASTEIGER

@<TRIPOS>ATOM
      1 C         -16.6830   -3.3963   19.7587 C.3     1  UNL1        0.0531
      2 C         -15.7128   -2.3642   19.2652 C.ar    1  UNL1        0.0713
      3 C         -15.6148   -0.9461   19.7439 C.ar    1  UNL1        0.0851
      4 C         -14.5116   -0.2745   18.9809 C.ar    1  UNL1        0.1359
      5 N         -13.9280   -1.2776   18.0306 N.ar    1  UNL1       -0.1663
      6 N         -14.6703   -2.5691   18.2062 N.ar    1  UNL1       -0.2491
      7 N         -16.4697   -0.3111   20.8002 N.am    1  UNL1       -0.2769
      8 C         -17.3560    0.8477   20.4513 C.2     1  UNL1        0.2706
      9 O         -17.3874    1.3714   19.0459 O.2     1  UNL1       -0.2680
     10 H         -16.4491   -0.6548   21.7226 H       1  UNL1        0.1553
     11 C         -18.2109    1.4828   21.5076 C.ar    1  UNL1        0.1765
     12 C         -17.7679    2.5244   22.4917 C.ar    1  UNL1        0.0704
     13 C         -18.9422    2.8731   23.3576 C.ar    1  UNL1        0.2113
     14 O         -20.1108    2.0469   22.9085 O.2     1  UNL1       -0.3501
     15 N         -19.6588    1.1876   21.7651 N.ar    1  UNL1       -0.0722
     16 C         -18.9469    3.8726   24.4762 C.ar    1  UNL1        0.1824
     17 C         -17.9612    4.9870   24.6669 C.ar    1  UNL1        0.0440
     18 C         -18.3433    5.7362   25.9090 C.ar    1  UNL1        0.0439
     19 C         -19.5651    5.0848   26.4859 C.ar    1  UNL1        0.1798
     20 O         -19.9382    3.9330   25.6003 O.2     1  UNL1       -0.4472
     21 C         -14.4150   -3.8420   17.4549 C.3     1  UNL1        0.1534
     22 C         -13.2170   -4.6815   17.7869 C.ar    1  UNL1        0.0060
     23 C         -11.8665   -4.3052   17.2534 C.ar    1  UNL1       -0.0024
     24 C         -10.6685   -5.1446   17.5854 C.ar    1  UNL1        0.0036
     25 C         -10.8210   -6.3603   18.4507 C.ar    1  UNL1        0.0714
     26 C         -12.1715   -6.7365   18.9842 C.ar    1  UNL1        0.0074
     27 C         -13.3695   -5.8971   18.6522 C.ar    1  UNL1        0.0693
     28 C          -9.6230   -7.1998   18.7827 C.3     1  UNL1        0.4186
     29 F          -8.4250   -8.0392   19.1146 F       1  UNL1       -0.1659
     30 F          -9.1457   -6.1425   19.7336 F       1  UNL1       -0.1659
     31 F         -10.1003   -8.2570   17.8317 F       1  UNL1       -0.1659
     32 C         -14.7200   -6.2734   19.1857 C.3     1  UNL1        0.4183
     33 F         -16.0705   -6.6496   19.7191 F       1  UNL1       -0.1659
     34 F         -14.4360   -5.5084   20.4443 F       1  UNL1       -0.1659
     35 F         -15.0040   -7.0384   17.9271 F       1  UNL1       -0.1659
@<TRIPOS>BOND
     1     1     2    1
     2     2     3   ar
     3     3     7    1
     4     7     8   am
     5     8     9    2
     6     8    11    1
     7    11    12   ar
     8    12    13   ar
     9    13    16    1
    10    16    17   ar
    11    17    18   ar
    12    18    19   ar
    13    19    20   ar
    14    13    14   ar
    15    14    15   ar
    16     3     4   ar
    17     4     5   ar
    18     5     6   ar
    19     6    21    1
    20    21    22    1
    21    22    23   ar
    22    23    24   ar
    23    24    25   ar
    24    25    28    1
    25    28    29    1
    26    28    30    1
    27    28    31    1
    28    25    26   ar
    29    26    27   ar
    30    27    32    1
    31    32    33    1
    32    32    34    1
    33    32    35    1
    34     6     2   ar
    35    27    22   ar
    36    15    11   ar
    37    20    16   ar
    38     7    10    1
@<TRIPOS>MOLECULE
*****
 35 38 0 0 0
SMALL
GASTEIGER

@<TRIPOS>ATOM
      1 C           7.5513   -0.9121   32.7624 C.3     1  UNL1        0.0531
      2 C           6.2067   -1.4583   33.1417 C.ar    1  UNL1        0.0713
      3 C           5.6597   -2.8007   32.7560 C.ar    1  UNL1        0.0851
      4 C           4.2880   -2.9301   33.3491 C.ar    1  UNL1        0.1359
      5 N           3.9873   -1.6676   34.1014 N.ar    1  UNL1       -0.1663
      6 N           5.1731   -0.7581   33.9731 N.ar    1  UNL1       -0.2491
      7 N           6.3611   -3.8326   31.9234 N.am    1  UNL1       -0.2769
      8 C           6.5224   -3.6220   30.4470 C.2     1  UNL1        0.2706
      9 O           5.9821   -2.3794   29.8032 O.2     1  UNL1       -0.2680
     10 H           6.7157   -4.6480   32.3459 H       1  UNL1        0.1553
     11 C           7.2238   -4.6538   29.6144 C.ar    1  UNL1        0.1765
     12 C           7.1797   -4.7586   28.1188 C.ar    1  UNL1        0.0704
     13 C           8.0211   -5.9316   27.7113 C.ar    1  UNL1        0.2113
     14 O           8.5853   -6.5517   28.9551 O.2     1  UNL1       -0.3501
     15 N           8.0925   -5.7620   30.1313 N.ar    1  UNL1       -0.0722
     16 C           8.2570   -6.4018   26.3065 C.ar    1  UNL1        0.1824
     17 C           8.9790   -7.6540   25.9054 C.ar    1  UNL1        0.0440
     18 C           8.9805   -7.7285   24.4073 C.ar    1  UNL1        0.0439
     19 C           8.2593   -6.5224   23.8824 C.ar    1  UNL1        0.1798
     20 O           7.8122   -5.7025   25.0562 O.2     1  UNL1       -0.4472
     21 C           5.3026    0.6113   34.5714 C.3     1  UNL1        0.1534
     22 C           4.4119    1.0212   35.7066 C.ar    1  UNL1        0.0060
     23 C           4.5639    0.3731   37.0508 C.ar    1  UNL1       -0.0024
     24 C           3.6732    0.7829   38.1860 C.ar    1  UNL1        0.0036
     25 C           2.6306    1.8408   37.9770 C.ar    1  UNL1        0.0714
     26 C           2.4787    2.4889   36.6328 C.ar    1  UNL1        0.0074
     27 C           3.3693    2.0791   35.4976 C.ar    1  UNL1        0.0693
     28 C           1.7399    2.2507   39.1123 C.3     1  UNL1        0.4186
     29 F           0.8492    2.6605   40.2475 F       1  UNL1       -0.1659
     30 F           2.6034    3.4527   39.3558 F       1  UNL1       -0.1659
     31 F           0.8763    1.0486   38.8688 F       1  UNL1       -0.1659
     32 C           3.2174    2.7273   34.1534 C.3     1  UNL1        0.4183
     33 F           3.0654    3.3754   32.8093 F       1  UNL1       -0.1659
     34 F           2.2079    1.6875   33.7662 F       1  UNL1       -0.1659
     35 F           4.2268    3.7670   34.5407 F       1  UNL1       -0.1659
@<TRIPOS>BOND
     1     1     2    1
     2     2     3   ar
     3     3     7    1
     4     7     8   am
     5     8     9    2
     6     8    11    1
     7    11    12   ar
     8    12    13   ar
     9    13    16    1
    10    16    17   ar
    11    17    18   ar
    12    18    19   ar
    13    19    20   ar
    14    13    14   ar
    15    14    15   ar
    16     3     4   ar
    17     4     5   ar
    18     5     6   ar
    19     6    21    1
    20    21    22    1
    21    22    23   ar
    22    23    24   ar
    23    24    25   ar
    24    25    28    1
    25    28    29    1
    26    28    30    1
    27    28    31    1
    28    25    26   ar
    29    26    27   ar
    30    27    32    1
    31    32    33    1
    32    32    34    1
    33    32    35    1
    34     6     2   ar
    35    27    22   ar
    36    15    11   ar
    37    20    16   ar
    38     7    10    1
@<TRIPOS>MOLECULE
*****
 35 38 0 0 0
SMALL
GASTEIGER

@<TRIPOS>ATOM
      1 C           5.3854   -3.7531   23.2799 C.3     1  UNL1        0.0531
      2 C           6.8061   -3.2975   23.1253 C.ar    1  UNL1        0.0713
      3 C           7.8100   -3.1504   24.2300 C.ar    1  UNL1        0.0851
      4 C           9.0967   -2.6709   23.6262 C.ar    1  UNL1        0.1359
      5 N           8.8880   -2.5217   22.1483 N.ar    1  UNL1       -0.1663
      6 N           7.4723   -2.9090   21.8387 N.ar    1  UNL1       -0.2491
      7 N           7.5695   -3.4330   25.6834 N.am    1  UNL1       -0.2769
      8 C           6.8551   -2.4259   26.5351 C.2     1  UNL1        0.2706
      9 O           6.3812   -1.1361   25.9334 O.2     1  UNL1       -0.2680
     10 H           7.8805   -4.2796   26.0782 H       1  UNL1        0.1553
     11 C           6.6145   -2.7086   27.9884 C.ar    1  UNL1        0.1765
     12 C           5.8785   -1.8223   28.9489 C.ar    1  UNL1        0.0704
     13 C           5.8769   -2.4931   30.2906 C.ar    1  UNL1        0.2113
     14 O           6.6119   -3.7940   30.1592 O.2     1  UNL1       -0.3501
     15 N           7.0678   -3.9272   28.7364 N.ar    1  UNL1       -0.0722
     16 C           5.2502   -1.9571   31.5436 C.ar    1  UNL1        0.1824
     17 C           5.4600   -2.4875   32.9309 C.ar    1  UNL1        0.0440
     18 C           4.6432   -1.6548   33.8740 C.ar    1  UNL1        0.0439
     19 C           3.9286   -0.6097   33.0695 C.ar    1  UNL1        0.1798
     20 O           4.3037   -0.7965   31.6293 O.2     1  UNL1       -0.4472
     21 C           6.8348   -2.9079   20.4810 C.3     1  UNL1        0.1534
     22 C           5.5315   -2.1974   20.2649 C.ar    1  UNL1        0.0060
     23 C           5.3919   -0.7537   20.6474 C.ar    1  UNL1       -0.0024
     24 C           4.0887   -0.0432   20.4314 C.ar    1  UNL1        0.0036
     25 C           2.9250   -0.7764   19.8328 C.ar    1  UNL1        0.0714
     26 C           3.0646   -2.2200   19.4502 C.ar    1  UNL1        0.0074
     27 C           4.3678   -2.9305   19.6663 C.ar    1  UNL1        0.0693
     28 C           1.6217   -0.0659   19.6167 C.3     1  UNL1        0.4186
     29 F           0.3184    0.6446   19.4006 F       1  UNL1       -0.1659
     30 F           0.8910   -1.2153   20.2450 F       1  UNL1       -0.1659
     31 F           2.3524    1.0835   18.9883 F       1  UNL1       -0.1659
     32 C           4.5074   -4.3742   19.2837 C.3     1  UNL1        0.4183
     33 F           4.6470   -5.8179   18.9011 F       1  UNL1       -0.1659
     34 F           3.8500   -4.7786   20.5698 F       1  UNL1       -0.1659
     35 F           5.1649   -3.9698   17.9975 F       1  UNL1       -0.1659
@<TRIPOS>BOND
     1     1     2    1
     2     2     3   ar
     3     3     7    1
     4     7     8   am
     5     8     9    2
     6     8    11    1
     7    11    12   ar
     8    12    13   ar
     9    13    16    1
    10    16    17   ar
    11    17    18   ar
    12    18    19   ar
    13    19    20   ar
    14    13    14   ar
    15    14    15   ar
    16     3     4   ar
    17     4     5   ar
    18     5     6   ar
    19     6    21    1
    20    21    22    1
    21    22    23   ar
    22    23    24   ar
    23    24    25   ar
    24    25    28    1
    25    28    29    1
    26    28    30    1
    27    28    31    1
    28    25    26   ar
    29    26    27   ar
    30    27    32    1
    31    32    33    1
    32    32    34    1
    33    32    35    1
    34     6     2   ar
    35    27    22   ar
    36    15    11   ar
    37    20    16   ar
    38     7    10    1
