@<TRIPOS>MOLECULE
*****
 28 30 0 0 0
SMALL
GASTEIGER

@<TRIPOS>ATOM
      1 N          -5.8364  -18.8783   22.3163 N.am    1  UNL1       -0.2916
      2 C          -6.7123  -18.6749   21.1157 C.2     1  UNL1        0.2498
      3 O          -6.1058  -18.2701   19.8048 O.2     1  UNL1       -0.2700
      4 H          -6.2345  -19.1440   23.1767 H       1  UNL1        0.1502
      5 C          -8.1946  -18.8762   21.2259 C.ar    1  UNL1        0.0970
      6 C          -9.0720  -19.5426   20.2079 C.ar    1  UNL1        0.0860
      7 C          -8.6211  -20.1245   18.9010 C.3     1  UNL1        0.0542
      8 N         -10.4795  -19.5248   20.7263 N.ar    1  UNL1       -0.1685
      9 N         -10.4720  -18.8475   22.0647 N.ar    1  UNL1       -0.2192
     10 C          -9.0598  -18.4467   22.3734 C.ar    1  UNL1        0.1453
     11 CL         -8.5946  -17.7403   23.6122 Cl      1  UNL1       -0.0611
     12 C         -11.6668  -18.6123   22.9406 C.ar    1  UNL1        0.0837
     13 C         -12.8653  -17.8925   22.3969 C.ar    1  UNL1        0.0192
     14 C         -14.0600  -17.6573   23.2727 C.ar    1  UNL1        0.0015
     15 C         -14.0563  -18.1419   24.6923 C.ar    1  UNL1        0.0001
     16 C         -12.8579  -18.8616   25.2360 C.ar    1  UNL1        0.0015
     17 C         -11.6631  -19.0968   24.3601 C.ar    1  UNL1        0.0192
     18 C          -4.3541  -18.6770   22.2061 C.3     1  UNL1        0.1945
     19 C          -3.6824  -17.5987   23.0037 C.2     1  UNL1        0.3371
     20 O          -2.3452  -17.8543   23.6336 O.2     1  UNL1       -0.2482
     21 C          -5.1740  -15.9872   24.3922 C.3     1  UNL1        0.2557
     22 O          -4.3478  -16.2649   23.1714 O.3     1  UNL1       -0.4432
     23 C          -3.5436  -19.5538   21.2983 C.3     1  UNL1        0.1386
     24 N          -2.5773  -18.9401   20.3290 N.ar    1  UNL1       -0.3055
     25 C          -2.9346  -18.2430   19.0498 C.ar    1  UNL1        0.0981
     26 C          -1.6621  -17.7878   18.3990 C.ar    1  UNL1        0.1193
     27 N          -0.5184  -18.2035   19.2759 N.ar    1  UNL1       -0.2223
     28 C          -1.0840  -18.9157   20.4687 C.ar    1  UNL1        0.1787
@<TRIPOS>BOND
     1    21    22    1
     2    22    19    1
     3    19    20    2
     4    19    18    1
     5    18    23    1
     6    23    24    1
     7    24    25   ar
     8    25    26   ar
     9    26    27   ar
    10    27    28   ar
    11    18     1    1
    12     1     2   am
    13     2     3    2
    14     2     5    1
    15     5     6   ar
    16     6     7    1
    17     6     8   ar
    18     8     9   ar
    19     9    12    1
    20    12    13   ar
    21    13    14   ar
    22    14    15   ar
    23    15    16   ar
    24    16    17   ar
    25     9    10   ar
    26    10    11    1
    27    28    24   ar
    28    10     5   ar
    29    17    12   ar
    30     1     4    1
@<TRIPOS>MOLECULE
*****
 28 30 0 0 0
SMALL
GASTEIGER

@<TRIPOS>ATOM
      1 N          -8.3777  -17.3987   23.0221 N.am    1  UNL1       -0.2916
      2 C          -7.9599  -18.7523   22.5289 C.2     1  UNL1        0.2498
      3 O          -8.6386  -19.9835   23.0517 O.2     1  UNL1       -0.2700
      4 H          -7.9323  -16.5906   22.6789 H       1  UNL1        0.1502
      5 C          -6.8632  -18.8746   21.5128 C.ar    1  UNL1        0.0970
      6 C          -7.0175  -19.3654   20.1037 C.ar    1  UNL1        0.0860
      7 C          -8.2955  -19.8200   19.4634 C.3     1  UNL1        0.0542
      8 N          -5.6694  -19.3218   19.4475 N.ar    1  UNL1       -0.1685
      9 N          -4.6819  -18.8041   20.4509 N.ar    1  UNL1       -0.2192
     10 C          -5.4198  -18.5277   21.7273 C.ar    1  UNL1        0.1453
     11 CL         -4.8195  -17.9976   22.9956 Cl      1  UNL1       -0.0611
     12 C          -3.2142  -18.5988   20.2187 C.ar    1  UNL1        0.0837
     13 C          -2.2165  -19.1458   21.1961 C.ar    1  UNL1        0.0192
     14 C          -0.7490  -18.9404   20.9638 C.ar    1  UNL1        0.0015
     15 C          -0.2791  -18.1881   19.7542 C.ar    1  UNL1        0.0001
     16 C          -1.2768  -17.6411   18.7768 C.ar    1  UNL1        0.0015
     17 C          -2.7444  -17.8464   19.0091 C.ar    1  UNL1        0.0192
     18 C          -9.4744  -17.2763   24.0381 C.3     1  UNL1        0.1945
     19 C          -9.1388  -17.0064   25.4750 C.2     1  UNL1        0.3371
     20 O          -9.2736  -18.0984   26.4946 O.2     1  UNL1       -0.2482
     21 C          -8.0331  -15.4501   27.2370 C.3     1  UNL1        0.2557
     22 O          -8.6684  -15.6446   25.8922 O.3     1  UNL1       -0.4432
     23 C         -10.9066  -17.4239   23.6173 C.3     1  UNL1        0.1386
     24 N         -11.2906  -17.2250   22.1810 N.ar    1  UNL1       -0.3055
     25 C         -11.5323  -15.9067   21.5075 C.ar    1  UNL1        0.0981
     26 C         -11.8914  -16.1765   20.0763 C.ar    1  UNL1        0.1193
     27 N         -11.8716  -17.6614   19.8654 N.ar    1  UNL1       -0.2223
     28 C         -11.5003  -18.3094   21.1662 C.ar    1  UNL1        0.1787
@<TRIPOS>BOND
     1    21    22    1
     2    22    19    1
     3    19    20    2
     4    19    18    1
     5    18    23    1
     6    23    24    1
     7    24    25   ar
     8    25    26   ar
     9    26    27   ar
    10    27    28   ar
    11    18     1    1
    12     1     2   am
    13     2     3    2
    14     2     5    1
    15     5     6   ar
    16     6     7    1
    17     6     8   ar
    18     8     9   ar
    19     9    12    1
    20    12    13   ar
    21    13    14   ar
    22    14    15   ar
    23    15    16   ar
    24    16    17   ar
    25     9    10   ar
    26    10    11    1
    27    28    24   ar
    28    10     5   ar
    29    17    12   ar
    30     1     4    1
@<TRIPOS>MOLECULE
*****
 28 30 0 0 0
SMALL
GASTEIGER

@<TRIPOS>ATOM
      1 N          -8.8338  -17.6447   22.9691 N.am    1  UNL1       -0.2916
      2 C          -8.2291  -18.9649   22.5928 C.2     1  UNL1        0.2498
      3 O          -8.7024  -20.2234   23.2578 O.2     1  UNL1       -0.2700
      4 H          -8.5231  -16.8187   22.5327 H       1  UNL1        0.1502
      5 C          -7.1512  -19.0265   21.5516 C.ar    1  UNL1        0.0970
      6 C          -7.3323  -19.4280   20.1177 C.ar    1  UNL1        0.0860
      7 C          -8.6232  -19.8383   19.4733 C.3     1  UNL1        0.0542
      8 N          -5.9959  -19.3472   19.4413 N.ar    1  UNL1       -0.1685
      9 N          -4.9888  -18.8957   20.4572 N.ar    1  UNL1       -0.2192
     10 C          -5.7028  -18.6976   21.7614 C.ar    1  UNL1        0.1453
     11 CL         -5.0782  -18.2492   23.0493 Cl      1  UNL1       -0.0611
     12 C          -3.5247  -18.6803   20.2119 C.ar    1  UNL1        0.0837
     13 C          -2.5133  -19.2498   21.1619 C.ar    1  UNL1        0.0192
     14 C          -1.0493  -19.0343   20.9166 C.ar    1  UNL1        0.0015
     15 C          -0.5967  -18.2493   19.7213 C.ar    1  UNL1        0.0001
     16 C          -1.6081  -17.6797   18.7713 C.ar    1  UNL1        0.0015
     17 C          -3.0721  -17.8952   19.0166 C.ar    1  UNL1        0.0192
     18 C          -9.9117  -17.5830   24.0104 C.3     1  UNL1        0.1945
     19 C         -11.3539  -17.6270   23.6003 C.2     1  UNL1        0.3371
     20 O         -12.3248  -18.4790   24.3628 O.2     1  UNL1       -0.2482
     21 C         -12.5866  -17.4812   21.3180 C.3     1  UNL1        0.2557
     22 O         -11.8252  -16.8189   22.4278 O.3     1  UNL1       -0.4432
     23 C          -9.5475  -17.4774   25.4617 C.3     1  UNL1        0.1386
     24 N          -8.4178  -16.5877   25.8886 N.ar    1  UNL1       -0.3055
     25 C          -8.0242  -16.2798   27.3028 C.ar    1  UNL1        0.0981
     26 C          -6.8466  -15.3515   27.2645 C.ar    1  UNL1        0.1193
     27 N          -6.5125  -15.0857   25.8266 N.ar    1  UNL1       -0.2223
     28 C          -7.4836  -15.8497   24.9762 C.ar    1  UNL1        0.1787
@<TRIPOS>BOND
     1    21    22    1
     2    22    19    1
     3    19    20    2
     4    19    18    1
     5    18    23    1
     6    23    24    1
     7    24    25   ar
     8    25    26   ar
     9    26    27   ar
    10    27    28   ar
    11    18     1    1
    12     1     2   am
    13     2     3    2
    14     2     5    1
    15     5     6   ar
    16     6     7    1
    17     6     8   ar
    18     8     9   ar
    19     9    12    1
    20    12    13   ar
    21    13    14   ar
    22    14    15   ar
    23    15    16   ar
    24    16    17   ar
    25     9    10   ar
    26    10    11    1
    27    28    24   ar
    28    10     5   ar
    29    17    12   ar
    30     1     4    1
@<TRIPOS>MOLECULE
*****
 28 30 0 0 0
SMALL
GASTEIGER

@<TRIPOS>ATOM
      1 N          -4.3866  -18.2341   20.8679 N.am    1  UNL1       -0.2916
      2 C          -5.3645  -19.1032   21.6017 C.2     1  UNL1        0.2498
      3 O          -4.9094  -19.9185   22.7757 O.2     1  UNL1       -0.2700
      4 H          -4.6853  -17.6990   20.0974 H       1  UNL1        0.1502
      5 C          -6.7974  -19.1570   21.1616 C.ar    1  UNL1        0.0970
      6 C          -7.3742  -20.1027   20.1500 C.ar    1  UNL1        0.0860
      7 C          -6.6192  -21.1605   19.4011 C.3     1  UNL1        0.0542
      8 N          -8.8384  -19.8047   20.0190 N.ar    1  UNL1       -0.1685
      9 N          -9.1667  -18.6749   20.9495 N.ar    1  UNL1       -0.2192
     10 C          -7.9053  -18.2746   21.6556 C.ar    1  UNL1        0.1453
     11 CL         -7.7746  -17.1835   22.6766 Cl      1  UNL1       -0.0611
     12 C         -10.5189  -18.0544   21.1403 C.ar    1  UNL1        0.0837
     13 C         -11.3747  -18.4636   22.3023 C.ar    1  UNL1        0.0192
     14 C         -12.7269  -17.8430   22.4931 C.ar    1  UNL1        0.0015
     15 C         -13.2233  -16.8132   21.5220 C.ar    1  UNL1        0.0001
     16 C         -12.3675  -16.4040   20.3600 C.ar    1  UNL1        0.0015
     17 C         -11.0154  -17.0246   20.1692 C.ar    1  UNL1        0.0192
     18 C          -2.9537  -18.1802   21.3081 C.3     1  UNL1        0.1945
     19 C          -1.9448  -19.1038   20.6922 C.2     1  UNL1        0.3371
     20 O          -1.7040  -20.4580   21.2907 O.2     1  UNL1       -0.2482
     21 C          -1.7750  -17.6815   18.5248 C.3     1  UNL1        0.2557
     22 O          -1.1767  -18.6731   19.4780 O.3     1  UNL1       -0.4432
     23 C          -2.5296  -17.2029   22.3640 C.3     1  UNL1        0.1386
     24 N          -3.5612  -16.5248   23.2160 N.ar    1  UNL1       -0.3055
     25 C          -4.1150  -17.0430   24.5101 C.ar    1  UNL1        0.0981
     26 C          -5.1162  -16.0478   25.0174 C.ar    1  UNL1        0.1193
     27 N          -5.1811  -14.9146   24.0368 N.ar    1  UNL1       -0.2223
     28 C          -4.2201  -15.2094   22.9235 C.ar    1  UNL1        0.1787
@<TRIPOS>BOND
     1    21    22    1
     2    22    19    1
     3    19    20    2
     4    19    18    1
     5    18    23    1
     6    23    24    1
     7    24    25   ar
     8    25    26   ar
     9    26    27   ar
    10    27    28   ar
    11    18     1    1
    12     1     2   am
    13     2     3    2
    14     2     5    1
    15     5     6   ar
    16     6     7    1
    17     6     8   ar
    18     8     9   ar
    19     9    12    1
    20    12    13   ar
    21    13    14   ar
    22    14    15   ar
    23    15    16   ar
    24    16    17   ar
    25     9    10   ar
    26    10    11    1
    27    28    24   ar
    28    10     5   ar
    29    17    12   ar
    30     1     4    1
@<TRIPOS>MOLECULE
*****
 28 30 0 0 0
SMALL
GASTEIGER

@<TRIPOS>ATOM
      1 N          -9.2046  -17.5064   23.4514 N.am    1  UNL1       -0.2916
      2 C          -8.3274  -16.5295   24.1769 C.2     1  UNL1        0.2498
      3 O          -8.9393  -15.4933   25.0723 O.2     1  UNL1       -0.2700
      4 H          -8.8029  -18.1865   22.8637 H       1  UNL1        0.1502
      5 C          -6.8382  -16.5889   24.0069 C.ar    1  UNL1        0.0970
      6 C          -5.8235  -15.9106   24.8790 C.ar    1  UNL1        0.0860
      7 C          -6.1199  -15.0540   26.0742 C.3     1  UNL1        0.0542
      8 N          -4.4605  -16.2394   24.3461 N.ar    1  UNL1       -0.1685
      9 N          -4.6327  -17.1208   23.1447 N.ar    1  UNL1       -0.2192
     10 C          -6.1022  -17.3368   22.9351 C.ar    1  UNL1        0.1453
     11 CL         -6.7262  -18.1567   21.8450 Cl      1  UNL1       -0.0611
     12 C          -3.5292  -17.6869   22.3010 C.ar    1  UNL1        0.0837
     13 C          -3.4487  -19.1661   22.0653 C.ar    1  UNL1        0.0192
     14 C          -2.3452  -19.7321   21.2217 C.ar    1  UNL1        0.0015
     15 C          -1.3222  -18.8190   20.6136 C.ar    1  UNL1        0.0001
     16 C          -1.4027  -17.3398   20.8493 C.ar    1  UNL1        0.0015
     17 C          -2.5062  -16.7738   21.6930 C.ar    1  UNL1        0.0192
     18 C         -10.6937  -17.4471   23.6213 C.3     1  UNL1        0.1945
     19 C         -11.4078  -18.5373   24.3640 C.2     1  UNL1        0.3371
     20 O         -12.9053  -18.5289   24.4513 O.2     1  UNL1       -0.2482
     21 C          -9.8046  -20.5737   24.1835 C.3     1  UNL1        0.2557
     22 O         -10.6245  -19.6359   25.0192 O.3     1  UNL1       -0.4432
     23 C         -11.4687  -16.2976   23.0486 C.3     1  UNL1        0.1386
     24 N         -11.4031  -16.0070   21.5785 N.ar    1  UNL1       -0.3055
     25 C         -12.4822  -16.2879   20.5753 C.ar    1  UNL1        0.0981
     26 C         -11.9928  -15.8391   19.2303 C.ar    1  UNL1        0.1193
     27 N         -10.6113  -15.2808   19.4023 N.ar    1  UNL1       -0.2223
     28 C         -10.2468  -15.3846   20.8536 C.ar    1  UNL1        0.1787
@<TRIPOS>BOND
     1    21    22    1
     2    22    19    1
     3    19    20    2
     4    19    18    1
     5    18    23    1
     6    23    24    1
     7    24    25   ar
     8    25    26   ar
     9    26    27   ar
    10    27    28   ar
    11    18     1    1
    12     1     2   am
    13     2     3    2
    14     2     5    1
    15     5     6   ar
    16     6     7    1
    17     6     8   ar
    18     8     9   ar
    19     9    12    1
    20    12    13   ar
    21    13    14   ar
    22    14    15   ar
    23    15    16   ar
    24    16    17   ar
    25     9    10   ar
    26    10    11    1
    27    28    24   ar
    28    10     5   ar
    29    17    12   ar
    30     1     4    1
@<TRIPOS>MOLECULE
*****
 28 30 0 0 0
SMALL
GASTEIGER

@<TRIPOS>ATOM
      1 N         -10.1882  -18.4552   23.0035 N.am    1  UNL1       -0.2916
      2 C          -9.4484  -17.1720   23.2406 C.2     1  UNL1        0.2498
      3 O         -10.2061  -15.9176   23.5606 O.2     1  UNL1       -0.2700
      4 H          -9.6909  -19.2785   22.7935 H       1  UNL1        0.1502
      5 C          -7.9510  -17.1432   23.1576 C.ar    1  UNL1        0.0970
      6 C          -7.0522  -16.1244   23.7933 C.ar    1  UNL1        0.0860
      7 C          -7.4930  -14.9554   24.6235 C.3     1  UNL1        0.0542
      8 N          -5.6352  -16.4797   23.4530 N.ar    1  UNL1       -0.1685
      9 N          -5.6582  -17.7181   22.6070 N.ar    1  UNL1       -0.2192
     10 C          -7.0895  -18.1282   22.4245 C.ar    1  UNL1        0.1453
     11 CL         -7.5742  -19.3150   21.6456 Cl      1  UNL1       -0.0611
     12 C          -4.4603  -18.4229   22.0427 C.ar    1  UNL1        0.0837
     13 C          -3.0874  -18.0889   22.5463 C.ar    1  UNL1        0.0192
     14 C          -1.8896  -18.7936   21.9819 C.ar    1  UNL1        0.0015
     15 C          -2.0646  -19.8322   20.9139 C.ar    1  UNL1        0.0001
     16 C          -3.4375  -20.1662   20.4103 C.ar    1  UNL1        0.0015
     17 C          -4.6353  -19.4615   20.9746 C.ar    1  UNL1        0.0192
     18 C         -11.6856  -18.4840   23.0864 C.3     1  UNL1        0.1945
     19 C         -12.3598  -18.6673   24.4138 C.2     1  UNL1        0.3371
     20 O         -11.6033  -19.2644   25.5632 O.2     1  UNL1       -0.2482
     21 C         -14.4849  -18.4976   25.8988 C.3     1  UNL1        0.2557
     22 O         -13.7906  -18.2537   24.5916 O.3     1  UNL1       -0.4432
     23 C         -12.5088  -18.3295   21.8420 C.3     1  UNL1        0.1386
     24 N         -12.0564  -17.4014   20.7539 N.ar    1  UNL1       -0.3055
     25 C         -12.6400  -16.0548   20.4445 C.ar    1  UNL1        0.0981
     26 C         -11.8852  -15.4782   19.2835 C.ar    1  UNL1        0.1193
     27 N         -10.8351  -16.4685   18.8755 N.ar    1  UNL1       -0.2223
     28 C         -10.9409  -17.6571   19.7842 C.ar    1  UNL1        0.1787
@<TRIPOS>BOND
     1    21    22    1
     2    22    19    1
     3    19    20    2
     4    19    18    1
     5    18    23    1
     6    23    24    1
     7    24    25   ar
     8    25    26   ar
     9    26    27   ar
    10    27    28   ar
    11    18     1    1
    12     1     2   am
    13     2     3    2
    14     2     5    1
    15     5     6   ar
    16     6     7    1
    17     6     8   ar
    18     8     9   ar
    19     9    12    1
    20    12    13   ar
    21    13    14   ar
    22    14    15   ar
    23    15    16   ar
    24    16    17   ar
    25     9    10   ar
    26    10    11    1
    27    28    24   ar
    28    10     5   ar
    29    17    12   ar
    30     1     4    1
@<TRIPOS>MOLECULE
*****
 28 30 0 0 0
SMALL
GASTEIGER

@<TRIPOS>ATOM
      1 N           6.4159   -0.8411   19.6950 N.am    1  UNL1       -0.2916
      2 C           6.0732   -2.2837   19.9222 C.2     1  UNL1        0.2498
      3 O           4.8807   -2.8874   19.2413 O.2     1  UNL1       -0.2700
      4 H           7.1986   -0.4449   20.1419 H       1  UNL1        0.1502
      5 C           6.9228   -3.1225   20.8301 C.ar    1  UNL1        0.0970
      6 C           8.3880   -3.3970   20.6622 C.ar    1  UNL1        0.0860
      7 C           9.2606   -2.8808   19.5566 C.3     1  UNL1        0.0542
      8 N           8.8272   -4.2782   21.7937 N.ar    1  UNL1       -0.1685
      9 N           7.6336   -4.5484   22.6611 N.ar    1  UNL1       -0.2192
     10 C           6.4567   -3.8341   22.0655 C.ar    1  UNL1        0.1453
     11 CL          5.0589   -3.8318   22.6099 Cl      1  UNL1       -0.0611
     12 C           7.6194   -5.3858   23.9055 C.ar    1  UNL1        0.0837
     13 C           7.0198   -4.8423   25.1685 C.ar    1  UNL1        0.0192
     14 C           7.0056   -5.6797   26.4128 C.ar    1  UNL1        0.0015
     15 C           7.5910   -7.0607   26.3942 C.ar    1  UNL1        0.0001
     16 C           8.1906   -7.6042   25.1313 C.ar    1  UNL1        0.0015
     17 C           8.2048   -6.7667   23.8869 C.ar    1  UNL1        0.0192
     18 C           5.5663   -0.0023   18.7870 C.3     1  UNL1        0.1945
     19 C           5.6923   -0.1442   17.2991 C.2     1  UNL1        0.3371
     20 O           4.5708   -0.7462   16.5054 O.2     1  UNL1       -0.2482
     21 C           7.8098    1.3599   17.2397 C.3     1  UNL1        0.2557
     22 O           6.9398    0.3159   16.6048 O.3     1  UNL1       -0.4432
     23 C           4.5906    0.9784   19.3670 C.3     1  UNL1        0.1386
     24 N           3.1257    0.6564   19.3870 N.ar    1  UNL1       -0.3055
     25 C           2.4202   -0.1770   20.4154 C.ar    1  UNL1        0.0981
     26 C           0.9676   -0.2372   20.0460 C.ar    1  UNL1        0.1193
     27 N           0.7755    0.5589   18.7894 N.ar    1  UNL1       -0.2223
     28 C           2.1092    1.1112   18.3821 C.ar    1  UNL1        0.1787
@<TRIPOS>BOND
     1    21    22    1
     2    22    19    1
     3    19    20    2
     4    19    18    1
     5    18    23    1
     6    23    24    1
     7    24    25   ar
     8    25    26   ar
     9    26    27   ar
    10    27    28   ar
    11    18     1    1
    12     1     2   am
    13     2     3    2
    14     2     5    1
    15     5     6   ar
    16     6     7    1
    17     6     8   ar
    18     8     9   ar
    19     9    12    1
    20    12    13   ar
    21    13    14   ar
    22    14    15   ar
    23    15    16   ar
    24    16    17   ar
    25     9    10   ar
    26    10    11    1
    27    28    24   ar
    28    10     5   ar
    29    17    12   ar
    30     1     4    1
@<TRIPOS>MOLECULE
*****
 28 30 0 0 0
SMALL
GASTEIGER

@<TRIPOS>ATOM
      1 N           4.5889   -0.4798   20.1100 N.am    1  UNL1       -0.2916
      2 C           3.4656   -1.1428   20.8507 C.2     1  UNL1        0.2498
      3 O           2.6052   -2.1569   20.1570 O.2     1  UNL1       -0.2700
      4 H           5.1537    0.1858   20.5653 H       1  UNL1        0.1502
      5 C           3.2028   -0.7917   22.2851 C.ar    1  UNL1        0.0970
      6 C           3.8009   -1.4690   23.4825 C.ar    1  UNL1        0.0860
      7 C           4.7667   -2.6164   23.4556 C.3     1  UNL1        0.0542
      8 N           3.2635   -0.7976   24.7115 N.ar    1  UNL1       -0.1685
      9 N           2.3333    0.2947   24.2737 N.ar    1  UNL1       -0.2192
     10 C           2.2958    0.2983   22.7741 C.ar    1  UNL1        0.1453
     11 CL          1.4924    1.2287   21.9145 Cl      1  UNL1       -0.0611
     12 C           1.5739    1.2208   25.1769 C.ar    1  UNL1        0.0837
     13 C           0.0798    1.1228   25.2668 C.ar    1  UNL1        0.0192
     14 C          -0.6795    2.0489   26.1700 C.ar    1  UNL1        0.0015
     15 C           0.0553    3.0730   26.9832 C.ar    1  UNL1        0.0001
     16 C           1.5493    3.1711   26.8932 C.ar    1  UNL1        0.0015
     17 C           2.3086    2.2450   25.9901 C.ar    1  UNL1        0.0192
     18 C           4.8518   -0.8309   18.6755 C.3     1  UNL1        0.1945
     19 C           3.9457   -0.3125   17.5984 C.2     1  UNL1        0.3371
     20 O           3.9231   -0.9763   16.2534 O.2     1  UNL1       -0.2482
     21 C           1.6263    0.6617   18.2473 C.3     1  UNL1        0.2557
     22 O           3.0621    0.8696   17.8662 O.3     1  UNL1       -0.4432
     23 C           6.0207   -1.7004   18.3182 C.3     1  UNL1        0.1386
     24 N           6.5867   -2.6499   19.3321 N.ar    1  UNL1       -0.3055
     25 C           7.9561   -2.5774   19.9399 C.ar    1  UNL1        0.0981
     26 C           8.0984   -3.7214   20.8996 C.ar    1  UNL1        0.1193
     27 N           6.8170   -4.5010   20.8848 N.ar    1  UNL1       -0.2223
     28 C           5.8827   -3.8388   19.9161 C.ar    1  UNL1        0.1787
@<TRIPOS>BOND
     1    21    22    1
     2    22    19    1
     3    19    20    2
     4    19    18    1
     5    18    23    1
     6    23    24    1
     7    24    25   ar
     8    25    26   ar
     9    26    27   ar
    10    27    28   ar
    11    18     1    1
    12     1     2   am
    13     2     3    2
    14     2     5    1
    15     5     6   ar
    16     6     7    1
    17     6     8   ar
    18     8     9   ar
    19     9    12    1
    20    12    13   ar
    21    13    14   ar
    22    14    15   ar
    23    15    16   ar
    24    16    17   ar
    25     9    10   ar
    26    10    11    1
    27    28    24   ar
    28    10     5   ar
    29    17    12   ar
    30     1     4    1
@<TRIPOS>MOLECULE
*****
 28 30 0 0 0
SMALL
GASTEIGER

@<TRIPOS>ATOM
      1 N           5.8525   -3.5416   27.7353 N.am    1  UNL1       -0.2916
      2 C           6.5973   -3.0653   26.5236 C.2     1  UNL1        0.2498
      3 O           8.0819   -2.8610   26.5879 O.2     1  UNL1       -0.2700
      4 H           4.8780   -3.6756   27.6931 H       1  UNL1        0.1502
      5 C           5.8575   -2.7932   25.2474 C.ar    1  UNL1        0.0970
      6 C           4.7555   -1.7922   25.0633 C.ar    1  UNL1        0.0860
      7 C           4.1999   -0.8876   26.1230 C.3     1  UNL1        0.0542
      8 N           4.3067   -1.8547   23.6334 N.ar    1  UNL1       -0.1685
      9 N           5.1312   -2.8942   22.9337 N.ar    1  UNL1       -0.2192
     10 C           6.0897   -3.4742   23.9313 C.ar    1  UNL1        0.1453
     11 CL          7.1025   -4.5469   23.6602 Cl      1  UNL1       -0.0611
     12 C           5.0174   -3.2851   21.4900 C.ar    1  UNL1        0.0837
     13 C           5.8933   -2.6293   20.4641 C.ar    1  UNL1        0.0192
     14 C           5.7795   -3.0202   19.0204 C.ar    1  UNL1        0.0015
     15 C           4.7896   -4.0670   18.6027 C.ar    1  UNL1        0.0001
     16 C           3.9137   -4.7228   19.6286 C.ar    1  UNL1        0.0015
     17 C           4.0276   -4.3319   21.0722 C.ar    1  UNL1        0.0192
     18 C           6.5923   -3.8137   29.0115 C.3     1  UNL1        0.1945
     19 C           7.1027   -5.1937   29.3028 C.2     1  UNL1        0.3371
     20 O           6.6689   -5.9063   30.5495 O.2     1  UNL1       -0.2482
     21 C           8.5583   -7.2409   28.6394 C.3     1  UNL1        0.2557
     22 O           8.0471   -5.8612   28.3475 O.3     1  UNL1       -0.4432
     23 C           6.8216   -2.7057   29.9963 C.3     1  UNL1        0.1386
     24 N           5.8172   -2.4452   31.0795 N.ar    1  UNL1       -0.3055
     25 C           5.7813   -3.1054   32.4259 C.ar    1  UNL1        0.0981
     26 C           4.6143   -2.5470   33.1850 C.ar    1  UNL1        0.1193
     27 N           3.9290   -1.5417   32.3077 N.ar    1  UNL1       -0.2223
     28 C           4.6724   -1.4788   31.0065 C.ar    1  UNL1        0.1787
@<TRIPOS>BOND
     1    21    22    1
     2    22    19    1
     3    19    20    2
     4    19    18    1
     5    18    23    1
     6    23    24    1
     7    24    25   ar
     8    25    26   ar
     9    26    27   ar
    10    27    28   ar
    11    18     1    1
    12     1     2   am
    13     2     3    2
    14     2     5    1
    15     5     6   ar
    16     6     7    1
    17     6     8   ar
    18     8     9   ar
    19     9    12    1
    20    12    13   ar
    21    13    14   ar
    22    14    15   ar
    23    15    16   ar
    24    16    17   ar
    25     9    10   ar
    26    10    11    1
    27    28    24   ar
    28    10     5   ar
    29    17    12   ar
    30     1     4    1
