@<TRIPOS>MOLECULE
*****
 28 31 0 0 0
SMALL
GASTEIGER

@<TRIPOS>ATOM
      1 C          -7.9519  -17.0632   22.5176 C.2     1  UNL1        0.1514
      2 N          -8.4898  -16.1123   23.5453 N.2     1  UNL1       -0.2531
      3 C          -7.7107  -15.8427   24.7984 C.3     1  UNL1        0.1051
      4 C          -6.3290  -15.2651   24.7126 C.3     1  UNL1        0.0244
      5 C          -5.5497  -14.9955   25.9656 C.3     1  UNL1        0.0020
      6 C          -6.1521  -15.3034   27.3044 C.3     1  UNL1        0.0001
      7 C          -7.5338  -15.8810   27.3901 C.3     1  UNL1        0.0020
      8 C          -8.3131  -16.1506   26.1371 C.3     1  UNL1        0.0244
      9 N          -8.7312  -17.3328   21.2646 N.pl3   1  UNL1       -0.3151
     10 H          -8.2591  -17.4778   20.4129 H       1  UNL1        0.1486
     11 C         -10.2298  -17.3814   21.3090 C.3     1  UNL1        0.0708
     12 C         -11.0360  -16.4026   20.5078 C.3     1  UNL1        0.0195
     13 C         -12.5345  -16.4511   20.5523 C.3     1  UNL1        0.0017
     14 C         -13.2268  -17.4785   21.3979 C.3     1  UNL1        0.0001
     15 C         -12.4206  -18.4573   22.1991 C.3     1  UNL1        0.0017
     16 C         -10.9221  -18.4088   22.1547 C.3     1  UNL1        0.0195
     17 S          -6.6348  -17.7447   22.7429 S.3     1  UNL1       -0.0744
     18 C          -6.4429  -19.1679   22.3098 C.3     1  UNL1        0.1066
     19 C          -1.7598  -16.2492   21.6342 C.3     1  UNL1        0.0262
     20 C          -2.0093  -17.4986   20.8425 C.3     1  UNL1        0.1051
     21 C          -0.6674  -17.1986   20.2432 C.3     1  UNL1        0.0262
     22 C          -3.2990  -17.5375   21.6073 C.3     1  UNL1        0.1194
     23 N          -4.0651  -18.7482   21.1631 N.pl3   1  UNL1       -0.2679
     24 C          -5.3357  -19.5205   21.3612 C.2     1  UNL1        0.0484
     25 C          -5.3046  -20.7071   20.4443 C.2     1  UNL1        0.0494
     26 S          -4.0149  -20.6683   19.6795 S.3     1  UNL1       -0.0516
     27 C          -3.2488  -19.4576   20.1237 C.2     1  UNL1        0.1622
     28 N          -1.9782  -18.6853   19.9256 N.2     1  UNL1       -0.2526
@<TRIPOS>BOND
     1    19    20    1
     2    20    21    1
     3    20    22    1
     4    22    23    1
     5    23    24    1
     6    24    18    1
     7    18    17    1
     8    17     1    1
     9     1     2    2
    10     2     3    1
    11     3     4    1
    12     4     5    1
    13     5     6    1
    14     6     7    1
    15     7     8    1
    16     1     9    1
    17     9    11    1
    18    11    12    1
    19    12    13    1
    20    13    14    1
    21    14    15    1
    22    15    16    1
    23    24    25    2
    24    25    26    1
    25    26    27    1
    26    27    28    2
    27    28    20    1
    28    27    23    1
    29     8     3    1
    30    16    11    1
    31     9    10    1
@<TRIPOS>MOLECULE
*****
 28 31 0 0 0
SMALL
GASTEIGER

@<TRIPOS>ATOM
      1 C          -8.0611  -16.8814   22.6108 C.2     1  UNL1        0.1514
      2 N          -9.3217  -16.0987   22.8309 N.2     1  UNL1       -0.2531
      3 C         -10.6352  -16.6421   22.3522 C.3     1  UNL1        0.1051
      4 C         -11.4902  -17.4587   23.2754 C.3     1  UNL1        0.0244
      5 C         -12.8038  -18.0022   22.7967 C.3     1  UNL1        0.0020
      6 C         -13.2624  -17.7290   21.3949 C.3     1  UNL1        0.0001
      7 C         -12.4074  -16.9125   20.4717 C.3     1  UNL1        0.0020
      8 C         -11.0938  -16.3690   20.9504 C.3     1  UNL1        0.0244
      9 N          -6.7476  -16.3379   23.0896 N.pl3   1  UNL1       -0.3151
     10 H          -5.9837  -16.2810   22.4712 H       1  UNL1        0.1486
     11 C          -6.5980  -15.8811   24.5105 C.3     1  UNL1        0.0708
     12 C          -5.2951  -15.3044   24.9796 C.3     1  UNL1        0.0195
     13 C          -5.1454  -14.8476   26.4005 C.3     1  UNL1        0.0017
     14 C          -6.2985  -14.9674   27.3522 C.3     1  UNL1        0.0001
     15 C          -7.6014  -15.5441   26.8831 C.3     1  UNL1        0.0017
     16 C          -7.7511  -16.0010   25.4623 C.3     1  UNL1        0.0195
     17 S          -8.1141  -18.2076   21.9119 S.3     1  UNL1       -0.0744
     18 C          -7.1998  -19.3175   22.3388 C.3     1  UNL1        0.1066
     19 C          -2.2997  -16.6974   22.1641 C.3     1  UNL1        0.0262
     20 C          -2.5609  -17.8997   21.3060 C.3     1  UNL1        0.1051
     21 C          -1.1569  -17.6699   20.8306 C.3     1  UNL1        0.0262
     22 C          -3.9103  -17.8781   21.9607 C.3     1  UNL1        0.1194
     23 N          -4.7121  -19.0190   21.4078 N.pl3   1  UNL1       -0.2679
     24 C          -6.0415  -19.7108   21.4708 C.2     1  UNL1        0.0484
     25 C          -6.0092  -20.8649   20.5133 C.2     1  UNL1        0.0494
     26 S          -4.6599  -20.8865   19.8586 S.3     1  UNL1       -0.0516
     27 C          -3.8581  -19.7456   20.4114 C.2     1  UNL1        0.1622
     28 N          -2.5287  -19.0538   20.3485 N.2     1  UNL1       -0.2526
@<TRIPOS>BOND
     1    19    20    1
     2    20    21    1
     3    20    22    1
     4    22    23    1
     5    23    24    1
     6    24    18    1
     7    18    17    1
     8    17     1    1
     9     1     2    2
    10     2     3    1
    11     3     4    1
    12     4     5    1
    13     5     6    1
    14     6     7    1
    15     7     8    1
    16     1     9    1
    17     9    11    1
    18    11    12    1
    19    12    13    1
    20    13    14    1
    21    14    15    1
    22    15    16    1
    23    24    25    2
    24    25    26    1
    25    26    27    1
    26    27    28    2
    27    28    20    1
    28    27    23    1
    29     8     3    1
    30    16    11    1
    31     9    10    1
@<TRIPOS>MOLECULE
*****
 28 31 0 0 0
SMALL
GASTEIGER

@<TRIPOS>ATOM
      1 C          -5.7347  -19.1329   22.1039 C.2     1  UNL1        0.1514
      2 N          -4.9435  -19.7468   20.9871 N.2     1  UNL1       -0.2531
      3 C          -3.6755  -19.0957   20.5200 C.3     1  UNL1        0.1051
      4 C          -2.4110  -19.2649   21.3089 C.3     1  UNL1        0.0244
      5 C          -1.1429  -18.6138   20.8419 C.3     1  UNL1        0.0020
      6 C          -1.1394  -17.7936   19.5860 C.3     1  UNL1        0.0001
      7 C          -2.4040  -17.6245   18.7971 C.3     1  UNL1        0.0020
      8 C          -3.6720  -18.2755   19.2641 C.3     1  UNL1        0.0244
      9 N          -7.0027  -19.7840   22.5709 N.pl3   1  UNL1       -0.3151
     10 H          -7.0252  -20.2535   23.4360 H       1  UNL1        0.1486
     11 C          -8.2363  -19.7199   21.7200 C.3     1  UNL1        0.0708
     12 C          -9.5889  -19.8877   22.3463 C.3     1  UNL1        0.0195
     13 C         -10.8226  -19.8236   21.4955 C.3     1  UNL1        0.0017
     14 C         -10.7036  -19.5917   20.0183 C.3     1  UNL1        0.0001
     15 C          -9.3510  -19.4240   19.3920 C.3     1  UNL1        0.0017
     16 C          -8.1173  -19.4881   20.2428 C.3     1  UNL1        0.0195
     17 S          -5.2578  -17.8678   22.7537 S.3     1  UNL1       -0.0744
     18 C          -6.0901  -16.6227   22.6717 C.3     1  UNL1        0.1066
     19 C         -11.1228  -16.1517   20.3571 C.3     1  UNL1        0.0262
     20 C         -10.9624  -16.1999   21.8477 C.3     1  UNL1        0.1051
     21 C         -12.4572  -16.0763   21.8548 C.3     1  UNL1        0.0262
     22 C          -9.5010  -16.3134   21.5290 C.3     1  UNL1        0.1194
     23 N          -8.7500  -16.4060   22.8241 N.pl3   1  UNL1       -0.2679
     24 C          -7.3826  -16.5334   23.4276 C.2     1  UNL1        0.0484
     25 C          -7.5348  -16.5558   24.9197 C.2     1  UNL1        0.0494
     26 S          -8.9961  -16.4423   25.2384 S.3     1  UNL1       -0.0516
     27 C          -9.7471  -16.3497   23.9433 C.2     1  UNL1        0.1622
     28 N         -11.1145  -16.2223   23.3398 N.2     1  UNL1       -0.2526
@<TRIPOS>BOND
     1    19    20    1
     2    20    21    1
     3    20    22    1
     4    22    23    1
     5    23    24    1
     6    24    18    1
     7    18    17    1
     8    17     1    1
     9     1     2    2
    10     2     3    1
    11     3     4    1
    12     4     5    1
    13     5     6    1
    14     6     7    1
    15     7     8    1
    16     1     9    1
    17     9    11    1
    18    11    12    1
    19    12    13    1
    20    13    14    1
    21    14    15    1
    22    15    16    1
    23    24    25    2
    24    25    26    1
    25    26    27    1
    26    27    28    2
    27    28    20    1
    28    27    23    1
    29     8     3    1
    30    16    11    1
    31     9    10    1
@<TRIPOS>MOLECULE
*****
 28 31 0 0 0
SMALL
GASTEIGER

@<TRIPOS>ATOM
      1 C          -5.6936  -18.6970   22.3267 C.2     1  UNL1        0.1514
      2 N          -6.4129  -19.9527   21.9319 N.2     1  UNL1       -0.2531
      3 C          -7.8270  -19.8830   21.4366 C.3     1  UNL1        0.1051
      4 C          -8.9639  -20.1739   22.3708 C.3     1  UNL1        0.0244
      5 C         -10.3781  -20.1042   21.8756 C.3     1  UNL1        0.0020
      6 C         -10.6553  -19.7437   20.4462 C.3     1  UNL1        0.0001
      7 C          -9.5184  -19.4528   19.5120 C.3     1  UNL1        0.0020
      8 C          -8.1042  -19.5225   20.0072 C.3     1  UNL1        0.0244
      9 N          -4.2795  -18.7668   22.8219 N.pl3   1  UNL1       -0.3151
     10 H          -4.0858  -19.1576   23.7045 H       1  UNL1        0.1486
     11 C          -3.1604  -18.2412   21.9725 C.3     1  UNL1        0.0708
     12 C          -2.6257  -16.8596   22.2076 C.3     1  UNL1        0.0195
     13 C          -1.5066  -16.3339   21.3583 C.3     1  UNL1        0.0017
     14 C          -0.9224  -17.1898   20.2739 C.3     1  UNL1        0.0001
     15 C          -1.4572  -18.5714   20.0387 C.3     1  UNL1        0.0017
     16 C          -2.5762  -19.0971   20.8881 C.3     1  UNL1        0.0195
     17 S          -6.3886  -17.3715   22.2262 S.3     1  UNL1       -0.0744
     18 C          -7.0528  -16.7795   23.4337 C.3     1  UNL1        0.1066
     19 C         -11.1149  -15.7256   19.7874 C.3     1  UNL1        0.0262
     20 C         -11.4238  -16.2911   21.1419 C.3     1  UNL1        0.1051
     21 C         -12.8453  -16.2389   20.6659 C.3     1  UNL1        0.0262
     22 C          -9.9378  -16.2252   21.3348 C.3     1  UNL1        0.1194
     23 N          -9.6254  -16.7390   22.7090 N.pl3   1  UNL1       -0.2679
     24 C          -8.5139  -17.0158   23.6775 C.2     1  UNL1        0.0484
     25 C          -9.1200  -17.5703   24.9324 C.2     1  UNL1        0.0494
     26 S         -10.6061  -17.6363   24.7397 S.3     1  UNL1       -0.0516
     27 C         -10.9184  -17.1225   23.3654 C.2     1  UNL1        0.1622
     28 N         -12.0299  -16.8457   22.3969 N.2     1  UNL1       -0.2526
@<TRIPOS>BOND
     1    19    20    1
     2    20    21    1
     3    20    22    1
     4    22    23    1
     5    23    24    1
     6    24    18    1
     7    18    17    1
     8    17     1    1
     9     1     2    2
    10     2     3    1
    11     3     4    1
    12     4     5    1
    13     5     6    1
    14     6     7    1
    15     7     8    1
    16     1     9    1
    17     9    11    1
    18    11    12    1
    19    12    13    1
    20    13    14    1
    21    14    15    1
    22    15    16    1
    23    24    25    2
    24    25    26    1
    25    26    27    1
    26    27    28    2
    27    28    20    1
    28    27    23    1
    29     8     3    1
    30    16    11    1
    31     9    10    1
@<TRIPOS>MOLECULE
*****
 28 31 0 0 0
SMALL
GASTEIGER

@<TRIPOS>ATOM
      1 C         -13.6599   -7.8103   18.3921 C.2     1  UNL1        0.1514
      2 N         -14.5003   -9.0343   18.6056 N.2     1  UNL1       -0.2531
      3 C         -15.9882   -8.9073   18.7462 C.3     1  UNL1        0.1051
      4 C         -16.5982   -8.6960   20.1002 C.3     1  UNL1        0.0244
      5 C         -18.0861   -8.5690   20.2410 C.3     1  UNL1        0.0020
      6 C         -18.9641   -8.6533   19.0277 C.3     1  UNL1        0.0001
      7 C         -18.3542   -8.8647   17.6737 C.3     1  UNL1        0.0020
      8 C         -16.8662   -8.9917   17.5330 C.3     1  UNL1        0.0244
      9 N         -12.1719   -7.9374   18.2515 N.pl3   1  UNL1       -0.3151
     10 H         -11.7384   -8.8122   18.3783 H       1  UNL1        0.1486
     11 C         -11.3443   -6.7317   17.9177 C.3     1  UNL1        0.0708
     12 C         -10.6349   -5.9839   19.0075 C.3     1  UNL1        0.0195
     13 C          -9.8073   -4.7782   18.6738 C.3     1  UNL1        0.0017
     14 C          -9.6892   -4.3203   17.2503 C.3     1  UNL1        0.0001
     15 C         -10.3985   -5.0681   16.1605 C.3     1  UNL1        0.0017
     16 C         -11.2261   -6.2738   16.4942 C.3     1  UNL1        0.0195
     17 S         -14.3074   -6.4593   18.3194 S.3     1  UNL1       -0.0744
     18 C         -14.4436   -5.6251   19.5585 C.3     1  UNL1        0.1066
     19 C         -11.4463   -1.1505   18.1796 C.3     1  UNL1        0.0262
     20 C         -12.9072   -1.0304   18.4979 C.3     1  UNL1        0.1051
     21 C         -12.6863    0.4275   18.2228 C.3     1  UNL1        0.0262
     22 C         -12.8228   -2.5134   18.7065 C.3     1  UNL1        0.1194
     23 N         -14.1853   -3.0051   19.0961 N.pl3   1  UNL1       -0.2679
     24 C         -14.9752   -4.2255   19.4658 C.2     1  UNL1        0.0484
     25 C         -16.3898   -3.8006   19.7265 C.2     1  UNL1        0.0494
     26 S         -16.4744   -2.3176   19.5180 S.3     1  UNL1       -0.0516
     27 C         -15.1119   -1.8259   19.1283 C.2     1  UNL1        0.1622
     28 N         -14.3220   -0.6055   18.7586 N.2     1  UNL1       -0.2526
@<TRIPOS>BOND
     1    19    20    1
     2    20    21    1
     3    20    22    1
     4    22    23    1
     5    23    24    1
     6    24    18    1
     7    18    17    1
     8    17     1    1
     9     1     2    2
    10     2     3    1
    11     3     4    1
    12     4     5    1
    13     5     6    1
    14     6     7    1
    15     7     8    1
    16     1     9    1
    17     9    11    1
    18    11    12    1
    19    12    13    1
    20    13    14    1
    21    14    15    1
    22    15    16    1
    23    24    25    2
    24    25    26    1
    25    26    27    1
    26    27    28    2
    27    28    20    1
    28    27    23    1
    29     8     3    1
    30    16    11    1
    31     9    10    1
@<TRIPOS>MOLECULE
*****
 28 31 0 0 0
SMALL
GASTEIGER

@<TRIPOS>ATOM
      1 C          -6.7182  -19.8744   20.5352 C.2     1  UNL1        0.1514
      2 N          -7.9453  -20.1765   19.7271 N.2     1  UNL1       -0.2531
      3 C          -9.2769  -19.6336   20.1539 C.3     1  UNL1        0.1051
      4 C          -9.9224  -18.5292   19.3707 C.3     1  UNL1        0.0244
      5 C         -11.2540  -17.9862   19.7974 C.3     1  UNL1        0.0020
      6 C         -11.9400  -18.5478   21.0074 C.3     1  UNL1        0.0001
      7 C         -11.2945  -19.6522   21.7906 C.3     1  UNL1        0.0020
      8 C          -9.9629  -20.1952   21.3639 C.3     1  UNL1        0.0244
      9 N          -5.3867  -20.4174   20.1083 N.pl3   1  UNL1       -0.3151
     10 H          -5.3286  -21.3080   19.6928 H       1  UNL1        0.1486
     11 C          -4.1437  -19.6033   20.3143 C.3     1  UNL1        0.0708
     12 C          -3.7129  -18.6152   19.2713 C.3     1  UNL1        0.0195
     13 C          -2.4700  -17.8011   19.4773 C.3     1  UNL1        0.0017
     14 C          -1.6579  -17.9753   20.7263 C.3     1  UNL1        0.0001
     15 C          -2.0887  -18.9634   21.7694 C.3     1  UNL1        0.0017
     16 C          -3.3317  -19.7775   21.5634 C.3     1  UNL1        0.0195
     17 S          -6.8227  -19.0295   21.7701 S.3     1  UNL1       -0.0744
     18 C          -7.2357  -17.5915   21.6623 C.3     1  UNL1        0.1066
     19 C          -5.2197  -15.5230   26.4125 C.3     1  UNL1        0.0262
     20 C          -6.6906  -15.4880   26.1204 C.3     1  UNL1        0.1051
     21 C          -6.7813  -14.8241   27.4624 C.3     1  UNL1        0.0262
     22 C          -6.2923  -16.1592   24.8395 C.3     1  UNL1        0.1194
     23 N          -7.5360  -16.4002   24.0363 N.pl3   1  UNL1       -0.2679
     24 C          -8.0586  -16.9640   22.7482 C.2     1  UNL1        0.0484
     25 C          -9.5483  -16.7902   22.7367 C.2     1  UNL1        0.0494
     26 S          -9.9466  -16.1190   24.0176 S.3     1  UNL1       -0.0516
     27 C          -8.7029  -15.8780   24.8208 C.2     1  UNL1        0.1622
     28 N          -8.1804  -15.3142   26.1089 N.2     1  UNL1       -0.2526
@<TRIPOS>BOND
     1    19    20    1
     2    20    21    1
     3    20    22    1
     4    22    23    1
     5    23    24    1
     6    24    18    1
     7    18    17    1
     8    17     1    1
     9     1     2    2
    10     2     3    1
    11     3     4    1
    12     4     5    1
    13     5     6    1
    14     6     7    1
    15     7     8    1
    16     1     9    1
    17     9    11    1
    18    11    12    1
    19    12    13    1
    20    13    14    1
    21    14    15    1
    22    15    16    1
    23    24    25    2
    24    25    26    1
    25    26    27    1
    26    27    28    2
    27    28    20    1
    28    27    23    1
    29     8     3    1
    30    16    11    1
    31     9    10    1
@<TRIPOS>MOLECULE
*****
 28 31 0 0 0
SMALL
GASTEIGER

@<TRIPOS>ATOM
      1 C          -8.1930  -19.2496   20.7020 C.2     1  UNL1        0.1514
      2 N          -9.4536  -19.0723   19.9086 N.2     1  UNL1       -0.2531
      3 C         -10.6130  -18.3262   20.4995 C.3     1  UNL1        0.1051
      4 C         -11.3874  -18.9230   21.6371 C.3     1  UNL1        0.0244
      5 C         -12.5469  -18.1770   22.2280 C.3     1  UNL1        0.0020
      6 C         -12.9318  -16.8342   21.6813 C.3     1  UNL1        0.0001
      7 C         -12.1573  -16.2375   20.5437 C.3     1  UNL1        0.0020
      8 C         -10.9979  -16.9835   19.9528 C.3     1  UNL1        0.0244
      9 N          -7.0336  -19.9957   20.1111 N.pl3   1  UNL1       -0.3151
     10 H          -7.1913  -20.7004   19.4420 H       1  UNL1        0.1486
     11 C          -5.6339  -19.6680   20.5395 C.3     1  UNL1        0.0708
     12 C          -5.1652  -20.0369   21.9158 C.3     1  UNL1        0.0195
     13 C          -3.7655  -19.7094   22.3444 C.3     1  UNL1        0.0017
     14 C          -2.8346  -19.0129   21.3966 C.3     1  UNL1        0.0001
     15 C          -3.3034  -18.6440   20.0203 C.3     1  UNL1        0.0017
     16 C          -4.7030  -18.9716   19.5917 C.3     1  UNL1        0.0195
     17 S          -8.0917  -18.6808   22.0863 S.3     1  UNL1       -0.0744
     18 C          -7.9255  -17.2026   22.2795 C.3     1  UNL1        0.1066
     19 C          -8.6912  -15.2045   27.4106 C.3     1  UNL1        0.0262
     20 C          -7.3213  -15.2587   26.8020 C.3     1  UNL1        0.1051
     21 C          -6.8891  -14.6606   28.1079 C.3     1  UNL1        0.0262
     22 C          -8.0398  -15.8456   25.6233 C.3     1  UNL1        0.1194
     23 N          -7.0237  -16.1374   24.5592 N.pl3   1  UNL1       -0.2679
     24 C          -6.8398  -16.6805   23.1731 C.2     1  UNL1        0.0484
     25 C          -5.3796  -16.6096   22.8375 C.2     1  UNL1        0.0494
     26 S          -4.6610  -16.0228   24.0161 S.3     1  UNL1       -0.0516
     27 C          -5.6771  -15.7310   25.0802 C.2     1  UNL1        0.1622
     28 N          -5.8610  -15.1879   26.4663 N.2     1  UNL1       -0.2526
@<TRIPOS>BOND
     1    19    20    1
     2    20    21    1
     3    20    22    1
     4    22    23    1
     5    23    24    1
     6    24    18    1
     7    18    17    1
     8    17     1    1
     9     1     2    2
    10     2     3    1
    11     3     4    1
    12     4     5    1
    13     5     6    1
    14     6     7    1
    15     7     8    1
    16     1     9    1
    17     9    11    1
    18    11    12    1
    19    12    13    1
    20    13    14    1
    21    14    15    1
    22    15    16    1
    23    24    25    2
    24    25    26    1
    25    26    27    1
    26    27    28    2
    27    28    20    1
    28    27    23    1
    29     8     3    1
    30    16    11    1
    31     9    10    1
@<TRIPOS>MOLECULE
*****
 28 31 0 0 0
SMALL
GASTEIGER

@<TRIPOS>ATOM
      1 C         -13.6748   -7.8514   18.1094 C.2     1  UNL1        0.1514
      2 N         -14.5476   -9.0274   18.4340 N.2     1  UNL1       -0.2531
      3 C         -16.0138   -8.8281   18.6800 C.3     1  UNL1        0.1051
      4 C         -16.9757   -8.8402   17.5291 C.3     1  UNL1        0.0244
      5 C         -18.4419   -8.6409   17.7750 C.3     1  UNL1        0.0020
      6 C         -18.9462   -8.4296   19.1718 C.3     1  UNL1        0.0001
      7 C         -17.9843   -8.4175   20.3227 C.3     1  UNL1        0.0020
      8 C         -16.5181   -8.6168   20.0768 C.3     1  UNL1        0.0244
      9 N         -12.2087   -8.0508   17.8635 N.pl3   1  UNL1       -0.3151
     10 H         -11.8434   -8.9609   17.7766 H       1  UNL1        0.1486
     11 C         -11.2989   -6.8636   17.7499 C.3     1  UNL1        0.0708
     12 C         -11.1774   -6.1339   16.4450 C.3     1  UNL1        0.0195
     13 C         -10.2677   -4.9467   16.3314 C.3     1  UNL1        0.0017
     14 C          -9.4794   -4.4893   17.5227 C.3     1  UNL1        0.0001
     15 C          -9.6008   -5.2190   18.8276 C.3     1  UNL1        0.0017
     16 C         -10.5106   -6.4062   18.9412 C.3     1  UNL1        0.0195
     17 S         -14.2683   -6.4761   18.0308 S.3     1  UNL1       -0.0744
     18 C         -14.3942   -5.6415   19.2708 C.3     1  UNL1        0.1066
     19 C         -18.2421   -1.6986   20.0153 C.3     1  UNL1        0.0262
     20 C         -16.8151   -1.3371   19.7270 C.3     1  UNL1        0.1051
     21 C         -17.3186    0.0729   19.8185 C.3     1  UNL1        0.0262
     22 C         -16.6099   -2.8227   19.6958 C.3     1  UNL1        0.1194
     23 N         -15.1614   -3.0846   19.4074 N.pl3   1  UNL1       -0.2679
     24 C         -14.1393   -4.1646   19.2099 C.2     1  UNL1        0.0484
     25 C         -12.8176   -3.5083   18.9407 C.2     1  UNL1        0.0494
     26 S         -13.0228   -2.0228   18.9719 S.3     1  UNL1       -0.0516
     27 C         -14.4713   -1.7609   19.2604 C.2     1  UNL1        0.1622
     28 N         -15.4934   -0.6809   19.4579 N.2     1  UNL1       -0.2526
@<TRIPOS>BOND
     1    19    20    1
     2    20    21    1
     3    20    22    1
     4    22    23    1
     5    23    24    1
     6    24    18    1
     7    18    17    1
     8    17     1    1
     9     1     2    2
    10     2     3    1
    11     3     4    1
    12     4     5    1
    13     5     6    1
    14     6     7    1
    15     7     8    1
    16     1     9    1
    17     9    11    1
    18    11    12    1
    19    12    13    1
    20    13    14    1
    21    14    15    1
    22    15    16    1
    23    24    25    2
    24    25    26    1
    25    26    27    1
    26    27    28    2
    27    28    20    1
    28    27    23    1
    29     8     3    1
    30    16    11    1
    31     9    10    1
@<TRIPOS>MOLECULE
*****
 28 31 0 0 0
SMALL
GASTEIGER

@<TRIPOS>ATOM
      1 C           7.0635   -3.5013   22.7733 C.2     1  UNL1        0.1514
      2 N           6.9853   -4.2357   21.4677 N.2     1  UNL1       -0.2531
      3 C           6.0062   -3.7987   20.4187 C.3     1  UNL1        0.1051
      4 C           4.5913   -4.2949   20.4603 C.3     1  UNL1        0.0244
      5 C           3.6121   -3.8580   19.4114 C.3     1  UNL1        0.0020
      6 C           4.0479   -2.9248   18.3209 C.3     1  UNL1        0.0001
      7 C           5.4628   -2.4286   18.2793 C.3     1  UNL1        0.0020
      8 C           6.4420   -2.8655   19.3282 C.3     1  UNL1        0.0244
      9 N           8.0426   -3.9384   23.8222 N.pl3   1  UNL1       -0.3151
     10 H           8.8566   -3.4096   23.9866 H       1  UNL1        0.1486
     11 C           7.7817   -5.1812   24.6206 C.3     1  UNL1        0.0708
     12 C           6.9777   -5.1054   25.8847 C.3     1  UNL1        0.0195
     13 C           6.7167   -6.3482   26.6831 C.3     1  UNL1        0.0017
     14 C           7.2597   -7.6666   26.2174 C.3     1  UNL1        0.0001
     15 C           8.0637   -7.7423   24.9534 C.3     1  UNL1        0.0017
     16 C           8.3247   -6.4996   24.1549 C.3     1  UNL1        0.0195
     17 S           6.1625   -2.3298   23.0299 S.3     1  UNL1       -0.0744
     18 C           5.0220   -2.4583   23.9957 C.3     1  UNL1        0.1066
     19 C           1.7186   -0.5794   19.9381 C.3     1  UNL1        0.0262
     20 C           1.6734    0.0257   21.3099 C.3     1  UNL1        0.1051
     21 C           0.6184    0.9098   20.7137 C.3     1  UNL1        0.0262
     22 C           2.7378   -0.9849   21.6192 C.3     1  UNL1        0.1194
     23 N           3.1300   -0.8196   23.0576 N.pl3   1  UNL1       -0.2679
     24 C           4.0302   -1.3419   24.1378 C.2     1  UNL1        0.0484
     25 C           3.7644   -0.5520   25.3849 C.2     1  UNL1        0.0494
     26 S           2.7001    0.4585   25.0756 S.3     1  UNL1       -0.0516
     27 C           2.3079    0.2932   23.6372 C.2     1  UNL1        0.1622
     28 N           1.4077    0.8156   22.5570 N.2     1  UNL1       -0.2526
@<TRIPOS>BOND
     1    19    20    1
     2    20    21    1
     3    20    22    1
     4    22    23    1
     5    23    24    1
     6    24    18    1
     7    18    17    1
     8    17     1    1
     9     1     2    2
    10     2     3    1
    11     3     4    1
    12     4     5    1
    13     5     6    1
    14     6     7    1
    15     7     8    1
    16     1     9    1
    17     9    11    1
    18    11    12    1
    19    12    13    1
    20    13    14    1
    21    14    15    1
    22    15    16    1
    23    24    25    2
    24    25    26    1
    25    26    27    1
    26    27    28    2
    27    28    20    1
    28    27    23    1
    29     8     3    1
    30    16    11    1
    31     9    10    1
