@<TRIPOS>MOLECULE
*****
 35 38 0 0 0
SMALL
GASTEIGER

@<TRIPOS>ATOM
      1 C           6.2437   -2.4980   27.6069 C.ar    1  UNL1        0.1665
      2 N           5.4089   -1.2579   27.7297 N.ar    1  UNL1       -0.1866
      3 C           4.9778   -0.7750   29.0827 C.ar    1  UNL1        0.2814
      4 O           4.1429    0.4652   29.2056 O.2     1  UNL1       -0.2651
      5 C           5.3816   -1.5321   30.3131 C.ar    1  UNL1        0.0699
      6 C           4.9506   -1.0490   31.6662 C.ar    1  UNL1        0.0096
      7 C           5.3544   -1.8062   32.8965 C.ar    1  UNL1        0.0777
      8 C           6.1893   -3.0463   32.7737 C.ar    1  UNL1        0.0797
      9 C           6.6203   -3.5293   31.4206 C.ar    1  UNL1        0.2960
     10 C           6.2165   -2.7722   30.1903 C.ar    1  UNL1        0.1059
     11 S           6.6475   -3.2552   28.8372 S.2     1  UNL1       -0.0466
     12 N           7.5370   -3.9471   23.5475 N.3     1  UNL1       -0.2698
     13 C           7.2399   -2.4930   23.7653 C.3     1  UNL1        0.0939
     14 C           6.8089   -2.0100   25.1184 C.3     1  UNL1        0.1100
     15 N           6.6748   -2.9811   26.2537 N.pl3   1  UNL1       -0.2852
     16 C           6.9718   -4.4351   26.0360 C.3     1  UNL1        0.1100
     17 C           7.4029   -4.9182   24.6829 C.3     1  UNL1        0.0939
     18 C           7.9680   -4.4301   22.1944 C.3     1  UNL1        0.0722
     19 N           6.1519   -1.5413   17.2592 N.2     1  UNL1       -0.0918
     20 C           6.6059   -2.2635   18.4930 C.2     1  UNL1        0.0748
     21 C           5.6162   -3.0271   19.3220 C.3     1  UNL1        0.0447
     22 C           6.0702   -3.7494   20.5559 C.3     1  UNL1        0.0074
     23 C           7.5140   -3.7079   20.9607 C.3     1  UNL1        0.0167
     24 C           8.5037   -2.9442   20.1316 C.3     1  UNL1        0.0074
     25 C           8.0497   -2.2220   18.8978 C.3     1  UNL1        0.0447
     26 O           4.7081   -1.5828   16.8544 O.2     1  UNL1       -0.3779
     27 C           3.6268    0.0509   18.5609 C.3     1  UNL1        0.0543
     28 C           3.8132   -0.4151   17.1474 C.3     1  UNL1        0.2386
     29 C           4.9233   -1.3232   34.2496 C.3     1  UNL1        0.4188
     30 F           4.4922   -0.8402   35.6028 F       1  UNL1       -0.1659
     31 F           3.8271   -2.3469   34.2658 F       1  UNL1       -0.1659
     32 F           6.0196   -0.2995   34.2334 F       1  UNL1       -0.1659
     33 N           7.4552   -4.7694   31.2979 N.pl3   1  UNL1        0.0814
     34 O           6.7998   -6.1187   31.3068 O.2     1  UNL1        0.0415
     35 O           8.9454   -4.6603   31.1662 O.co2   1  UNL1       -0.5760
@<TRIPOS>UNITY_ATOM_ATTR
33 1
charge 1
35 1
charge -1
@<TRIPOS>BOND
     1    27    28    1
     2    28    26    1
     3    26    19    1
     4    19    20    2
     5    20    21    1
     6    21    22    1
     7    22    23    1
     8    23    18    1
     9    18    12    1
    10    12    13    1
    11    13    14    1
    12    14    15    1
    13    15     1    1
    14     1     2   ar
    15     2     3   ar
    16     3     4    2
    17     3     5   ar
    18     5     6   ar
    19     6     7   ar
    20     7    29    1
    21    29    30    1
    22    29    31    1
    23    29    32    1
    24     7     8   ar
    25     8     9   ar
    26     9    33    1
    27    33    34    2
    28    33    35    1
    29     9    10   ar
    30    10    11   ar
    31    15    16    1
    32    16    17    1
    33    23    24    1
    34    24    25    1
    35    25    20    1
    36    17    12    1
    37    11     1   ar
    38    10     5   ar
@<TRIPOS>MOLECULE
*****
 35 38 0 0 0
SMALL
GASTEIGER

@<TRIPOS>ATOM
      1 C           2.9532    0.0479   24.9659 C.ar    1  UNL1        0.1665
      2 N           3.9613   -1.0170   25.2816 N.ar    1  UNL1       -0.1866
      3 C           4.4388   -1.9416   24.2013 C.ar    1  UNL1        0.2814
      4 O           5.4469   -3.0066   24.5170 O.2     1  UNL1       -0.2651
      5 C           3.9082   -1.8013   22.8053 C.ar    1  UNL1        0.0699
      6 C           4.3857   -2.7260   21.7250 C.ar    1  UNL1        0.0096
      7 C           3.8551   -2.5857   20.3290 C.ar    1  UNL1        0.0777
      8 C           2.8470   -1.5208   20.0133 C.ar    1  UNL1        0.0797
      9 C           2.3695   -0.5961   21.0936 C.ar    1  UNL1        0.2960
     10 C           2.9001   -0.7364   22.4896 C.ar    1  UNL1        0.1059
     11 S           2.4226    0.1882   23.5699 S.2     1  UNL1       -0.0466
     12 N           1.5206    2.8220   28.2067 N.3     1  UNL1       -0.2698
     13 C           0.5592    1.8765   27.5495 C.3     1  UNL1        0.0939
     14 C           1.0367    0.9518   26.4693 C.3     1  UNL1        0.1100
     15 N           2.4757    0.9726   26.0462 N.pl3   1  UNL1       -0.2852
     16 C           3.4371    1.9181   26.7033 C.3     1  UNL1        0.1100
     17 C           2.9595    2.8428   27.7836 C.3     1  UNL1        0.0939
     18 C           1.0430    3.7466   29.2869 C.3     1  UNL1        0.0722
     19 N           2.0767    2.4186   35.0460 N.2     1  UNL1       -0.0918
     20 C           1.8183    2.7506   33.6063 C.2     1  UNL1        0.0748
     21 C           1.2577    4.0913   33.2347 C.3     1  UNL1        0.0447
     22 C           0.9993    4.4234   31.7949 C.3     1  UNL1        0.0074
     23 C           1.3014    3.4146   30.7267 C.3     1  UNL1        0.0167
     24 C           1.8620    2.0738   31.0983 C.3     1  UNL1        0.0074
     25 C           2.1205    1.7418   32.5381 C.3     1  UNL1        0.0447
     26 O           1.7746    3.4274   36.1143 O.2     1  UNL1       -0.3779
     27 C           1.7406    2.6436   38.5911 C.3     1  UNL1        0.0543
     28 C           2.4423    3.3244   37.4535 C.3     1  UNL1        0.2386
     29 C           4.3326   -3.5104   19.2488 C.3     1  UNL1        0.4188
     30 F           4.8101   -4.4351   18.1684 F       1  UNL1       -0.1659
     31 F           2.9768   -4.1499   19.1968 F       1  UNL1       -0.1659
     32 F           5.6885   -2.8709   19.3007 F       1  UNL1       -0.1659
     33 N           1.3615    0.4688   20.7779 N.pl3   1  UNL1        0.0814
     34 O           1.8190    1.8481   20.4060 O.2     1  UNL1        0.0415
     35 O          -0.1041    0.1545   20.8340 O.co2   1  UNL1       -0.5760
@<TRIPOS>UNITY_ATOM_ATTR
33 1
charge 1
35 1
charge -1
@<TRIPOS>BOND
     1    27    28    1
     2    28    26    1
     3    26    19    1
     4    19    20    2
     5    20    21    1
     6    21    22    1
     7    22    23    1
     8    23    18    1
     9    18    12    1
    10    12    13    1
    11    13    14    1
    12    14    15    1
    13    15     1    1
    14     1     2   ar
    15     2     3   ar
    16     3     4    2
    17     3     5   ar
    18     5     6   ar
    19     6     7   ar
    20     7    29    1
    21    29    30    1
    22    29    31    1
    23    29    32    1
    24     7     8   ar
    25     8     9   ar
    26     9    33    1
    27    33    34    2
    28    33    35    1
    29     9    10   ar
    30    10    11   ar
    31    15    16    1
    32    16    17    1
    33    23    24    1
    34    24    25    1
    35    25    20    1
    36    17    12    1
    37    11     1   ar
    38    10     5   ar
@<TRIPOS>MOLECULE
*****
 35 38 0 0 0
SMALL
GASTEIGER

@<TRIPOS>ATOM
      1 C           3.9015   -0.8645   25.6871 C.ar    1  UNL1        0.1665
      2 N           2.8451    0.2004   25.6940 N.ar    1  UNL1       -0.1866
      3 C           2.1647    0.5900   24.4153 C.ar    1  UNL1        0.2814
      4 O           1.1082    1.6550   24.4221 O.2     1  UNL1       -0.2651
      5 C           2.5405   -0.0852   23.1297 C.ar    1  UNL1        0.0699
      6 C           1.8600    0.3044   21.8510 C.ar    1  UNL1        0.0096
      7 C           2.2358   -0.3709   20.5654 C.ar    1  UNL1        0.0777
      8 C           3.2923   -1.4358   20.5586 C.ar    1  UNL1        0.0797
      9 C           3.9727   -1.8254   21.8373 C.ar    1  UNL1        0.2960
     10 C           3.5969   -1.1501   23.1228 C.ar    1  UNL1        0.1059
     11 S           4.2773   -1.5397   24.4015 S.2     1  UNL1       -0.0466
     12 N           5.9431   -2.0335   29.5233 N.3     1  UNL1       -0.2698
     13 C           6.2403   -2.7813   28.2573 C.3     1  UNL1        0.0939
     14 C           5.5597   -2.3916   26.9787 C.3     1  UNL1        0.1100
     15 N           4.5820   -1.2541   26.9659 N.pl3   1  UNL1       -0.2852
     16 C           4.2848   -0.5063   28.2317 C.3     1  UNL1        0.1100
     17 C           4.9654   -0.8960   29.5104 C.3     1  UNL1        0.0939
     18 C           6.6236   -2.4231   30.8019 C.3     1  UNL1        0.0722
     19 N           4.5911   -0.3242   36.0424 N.2     1  UNL1       -0.0918
     20 C           5.0992   -0.8490   34.7323 C.2     1  UNL1        0.0748
     21 C           6.3731   -0.3103   34.1520 C.3     1  UNL1        0.0447
     22 C           6.8813   -0.8350   32.8418 C.3     1  UNL1        0.0074
     23 C           6.1155   -1.8984   32.1120 C.3     1  UNL1        0.0167
     24 C           4.8415   -2.4371   32.6924 C.3     1  UNL1        0.0074
     25 C           4.3334   -1.9124   34.0025 C.3     1  UNL1        0.0447
     26 O           5.3569    0.7392   36.7722 O.2     1  UNL1       -0.3779
     27 C           3.3443    1.0881   38.3777 C.3     1  UNL1        0.0543
     28 C           4.7233    1.4638   37.9227 C.3     1  UNL1        0.2386
     29 C           1.5554    0.0187   19.2867 C.3     1  UNL1        0.4188
     30 F           0.8749    0.4084   18.0079 F       1  UNL1       -0.1659
     31 F           2.8686   -0.0543   18.5656 F       1  UNL1       -0.1659
     32 F           0.2421    0.0918   20.0078 F       1  UNL1       -0.1659
     33 N           5.0291   -2.8903   21.8304 N.pl3   1  UNL1        0.0814
     34 O           4.6385   -4.3349   21.9334 O.2     1  UNL1        0.0415
     35 O           6.4761   -2.5107   21.7204 O.co2   1  UNL1       -0.5760
@<TRIPOS>UNITY_ATOM_ATTR
33 1
charge 1
35 1
charge -1
@<TRIPOS>BOND
     1    27    28    1
     2    28    26    1
     3    26    19    1
     4    19    20    2
     5    20    21    1
     6    21    22    1
     7    22    23    1
     8    23    18    1
     9    18    12    1
    10    12    13    1
    11    13    14    1
    12    14    15    1
    13    15     1    1
    14     1     2   ar
    15     2     3   ar
    16     3     4    2
    17     3     5   ar
    18     5     6   ar
    19     6     7   ar
    20     7    29    1
    21    29    30    1
    22    29    31    1
    23    29    32    1
    24     7     8   ar
    25     8     9   ar
    26     9    33    1
    27    33    34    2
    28    33    35    1
    29     9    10   ar
    30    10    11   ar
    31    15    16    1
    32    16    17    1
    33    23    24    1
    34    24    25    1
    35    25    20    1
    36    17    12    1
    37    11     1   ar
    38    10     5   ar
@<TRIPOS>MOLECULE
*****
 35 38 0 0 0
SMALL
GASTEIGER

@<TRIPOS>ATOM
      1 C          -2.0468    3.4037   21.5425 C.ar    1  UNL1        0.1665
      2 N          -3.1059    3.1792   20.5043 N.ar    1  UNL1       -0.1866
      3 C          -4.5497    3.3996   20.8460 C.ar    1  UNL1        0.2814
      4 O          -5.6089    3.1751   19.8078 O.2     1  UNL1       -0.2651
      5 C          -4.9345    3.8444   22.2259 C.ar    1  UNL1        0.0699
      6 C          -6.3784    4.0647   22.5676 C.ar    1  UNL1        0.0096
      7 C          -6.7631    4.5095   23.9475 C.ar    1  UNL1        0.0777
      8 C          -5.7039    4.7340   24.9857 C.ar    1  UNL1        0.0797
      9 C          -4.2601    4.5136   24.6440 C.ar    1  UNL1        0.2960
     10 C          -3.8754    4.0688   23.2641 C.ar    1  UNL1        0.1059
     11 S          -2.4316    3.8485   22.9224 S.2     1  UNL1       -0.0466
     12 N           2.2848    2.7427   20.5175 N.3     1  UNL1       -0.2698
     13 C           1.2117    2.0940   19.6941 C.3     1  UNL1        0.0939
     14 C          -0.2321    2.3144   20.0358 C.3     1  UNL1        0.1100
     15 N          -0.6029    3.1834   21.2008 N.pl3   1  UNL1       -0.2852
     16 C           0.4700    3.8320   22.0242 C.3     1  UNL1        0.1100
     17 C           1.9140    3.6117   21.6825 C.3     1  UNL1        0.0939
     18 C           3.7286    2.5223   20.1758 C.3     1  UNL1        0.0722
     19 N           5.4893   -2.7070   17.8191 N.2     1  UNL1       -0.0918
     20 C           5.0491   -1.3996   18.4082 C.2     1  UNL1        0.0748
     21 C           4.7869   -1.2912   19.8811 C.3     1  UNL1        0.0447
     22 C           4.3467    0.0161   20.4703 C.3     1  UNL1        0.0074
     23 C           4.1688    1.2150   19.5866 C.3     1  UNL1        0.0167
     24 C           4.4310    1.1066   18.1136 C.3     1  UNL1        0.0074
     25 C           4.8712   -0.2007   17.5245 C.3     1  UNL1        0.0447
     26 O           5.6672   -3.9059   18.7028 O.2     1  UNL1       -0.3779
     27 C           3.2100   -4.6020   19.1796 C.3     1  UNL1        0.0543
     28 C           4.6034   -4.9621   18.7571 C.3     1  UNL1        0.2386
     29 C          -8.2069    4.7299   24.2892 C.3     1  UNL1        0.4188
     30 F          -9.6508    4.9502   24.6309 F       1  UNL1       -0.1659
     31 F          -8.5961    3.6162   23.3628 F       1  UNL1       -0.1659
     32 F          -7.8177    5.8435   25.2155 F       1  UNL1       -0.1659
     33 N          -3.2010    4.7381   25.6822 N.pl3   1  UNL1        0.0814
     34 O          -2.7888    3.6157   26.5880 O.2     1  UNL1        0.0415
     35 O          -2.5542    6.0849   25.8147 O.co2   1  UNL1       -0.5760
@<TRIPOS>UNITY_ATOM_ATTR
33 1
charge 1
35 1
charge -1
@<TRIPOS>BOND
     1    27    28    1
     2    28    26    1
     3    26    19    1
     4    19    20    2
     5    20    21    1
     6    21    22    1
     7    22    23    1
     8    23    18    1
     9    18    12    1
    10    12    13    1
    11    13    14    1
    12    14    15    1
    13    15     1    1
    14     1     2   ar
    15     2     3   ar
    16     3     4    2
    17     3     5   ar
    18     5     6   ar
    19     6     7   ar
    20     7    29    1
    21    29    30    1
    22    29    31    1
    23    29    32    1
    24     7     8   ar
    25     8     9   ar
    26     9    33    1
    27    33    34    2
    28    33    35    1
    29     9    10   ar
    30    10    11   ar
    31    15    16    1
    32    16    17    1
    33    23    24    1
    34    24    25    1
    35    25    20    1
    36    17    12    1
    37    11     1   ar
    38    10     5   ar
@<TRIPOS>MOLECULE
*****
 35 38 0 0 0
SMALL
GASTEIGER

@<TRIPOS>ATOM
      1 C           0.3710    3.1478   26.0083 C.ar    1  UNL1        0.1665
      2 N           0.3919    4.6222   26.2836 N.ar    1  UNL1       -0.1866
      3 C           0.4464    5.1204   27.6974 C.ar    1  UNL1        0.2814
      4 O           0.4673    6.5948   27.9728 O.2     1  UNL1       -0.2651
      5 C           0.4799    4.1442   28.8358 C.ar    1  UNL1        0.0699
      6 C           0.5343    4.6425   30.2496 C.ar    1  UNL1        0.0096
      7 C           0.5678    3.6663   31.3881 C.ar    1  UNL1        0.0777
      8 C           0.5469    2.1919   31.1126 C.ar    1  UNL1        0.0797
      9 C           0.4924    1.6937   29.6989 C.ar    1  UNL1        0.2960
     10 C           0.4589    2.6699   28.5604 C.ar    1  UNL1        0.1059
     11 S           0.4045    2.1717   27.1467 S.2     1  UNL1       -0.0466
     12 N           0.2076    1.6531   21.7668 N.3     1  UNL1       -0.2698
     13 C          -0.5646    2.8773   22.1610 C.3     1  UNL1        0.0939
     14 C          -0.5101    3.3755   23.5747 C.3     1  UNL1        0.1100
     15 N           0.3165    2.6496   24.5944 N.pl3   1  UNL1       -0.2852
     16 C           1.0887    1.4255   24.2003 C.3     1  UNL1        0.1100
     17 C           1.0342    0.9273   22.7865 C.3     1  UNL1        0.0939
     18 C           0.1531    1.1549   20.3530 C.3     1  UNL1        0.0722
     19 N           4.7113   -2.0463   18.1227 N.2     1  UNL1       -0.0918
     20 C           3.5717   -1.2460   18.6802 C.2     1  UNL1        0.0748
     21 C           2.9766   -1.6125   20.0074 C.3     1  UNL1        0.0447
     22 C           1.8370   -0.8122   20.5650 C.3     1  UNL1        0.0074
     23 C           1.2926    0.3546   19.7955 C.3     1  UNL1        0.0167
     24 C           1.8879    0.7211   18.4682 C.3     1  UNL1        0.0074
     25 C           3.0274   -0.0792   17.9107 C.3     1  UNL1        0.0447
     26 O           5.2556   -3.2131   18.8923 O.2     1  UNL1       -0.3779
     27 C           3.5236   -5.0455   19.5186 C.3     1  UNL1        0.0543
     28 C           4.6808   -4.5829   18.6839 C.3     1  UNL1        0.2386
     29 C           0.6223    4.1645   32.8018 C.3     1  UNL1        0.4188
     30 F           0.6767    4.6627   34.2157 F       1  UNL1       -0.1659
     31 F          -0.8613    4.3843   32.7815 F       1  UNL1       -0.1659
     32 F           2.1059    3.9448   32.8221 F       1  UNL1       -0.1659
     33 N           0.4715    0.2194   29.4235 N.pl3   1  UNL1        0.0814
     34 O           1.7589   -0.5259   29.2305 O.2     1  UNL1        0.0415
     35 O          -0.8368   -0.5097   29.3412 O.co2   1  UNL1       -0.5760
@<TRIPOS>UNITY_ATOM_ATTR
33 1
charge 1
35 1
charge -1
@<TRIPOS>BOND
     1    27    28    1
     2    28    26    1
     3    26    19    1
     4    19    20    2
     5    20    21    1
     6    21    22    1
     7    22    23    1
     8    23    18    1
     9    18    12    1
    10    12    13    1
    11    13    14    1
    12    14    15    1
    13    15     1    1
    14     1     2   ar
    15     2     3   ar
    16     3     4    2
    17     3     5   ar
    18     5     6   ar
    19     6     7   ar
    20     7    29    1
    21    29    30    1
    22    29    31    1
    23    29    32    1
    24     7     8   ar
    25     8     9   ar
    26     9    33    1
    27    33    34    2
    28    33    35    1
    29     9    10   ar
    30    10    11   ar
    31    15    16    1
    32    16    17    1
    33    23    24    1
    34    24    25    1
    35    25    20    1
    36    17    12    1
    37    11     1   ar
    38    10     5   ar
@<TRIPOS>MOLECULE
*****
 35 38 0 0 0
SMALL
GASTEIGER

@<TRIPOS>ATOM
      1 C          -2.1326    3.6421   21.7040 C.ar    1  UNL1        0.1665
      2 N          -2.0628    3.6493   23.2023 N.ar    1  UNL1       -0.1866
      3 C          -3.2981    3.9189   24.0093 C.ar    1  UNL1        0.2814
      4 O          -3.2284    3.9261   25.5077 O.2     1  UNL1       -0.2651
      5 C          -4.6032    4.1812   23.3180 C.ar    1  UNL1        0.0699
      6 C          -5.8386    4.4508   24.1250 C.ar    1  UNL1        0.0096
      7 C          -7.1437    4.7131   23.4337 C.ar    1  UNL1        0.0777
      8 C          -7.2134    4.7059   21.9353 C.ar    1  UNL1        0.0797
      9 C          -5.9780    4.4363   21.1283 C.ar    1  UNL1        0.2960
     10 C          -4.6730    4.1740   21.8196 C.ar    1  UNL1        0.1059
     11 S          -3.4376    3.9044   21.0127 S.2     1  UNL1       -0.0466
     12 N           1.5735    2.8333   19.2829 N.3     1  UNL1       -0.2698
     13 C           0.8792    1.7074   19.9903 C.3     1  UNL1        0.0939
     14 C          -0.3561    1.9770   20.7973 C.3     1  UNL1        0.1100
     15 N          -0.8972    3.3725   20.8969 N.pl3   1  UNL1       -0.2852
     16 C          -0.2030    4.4984   20.1896 C.3     1  UNL1        0.1100
     17 C           1.0324    4.2288   19.3825 C.3     1  UNL1        0.0939
     18 C           2.8088    2.5637   18.4759 C.3     1  UNL1        0.0722
     19 N           5.7876   -2.5963   19.1837 N.2     1  UNL1       -0.0918
     20 C           5.0429   -1.3063   19.0067 C.2     1  UNL1        0.0748
     21 C           4.0019   -1.1823   17.9339 C.3     1  UNL1        0.0447
     22 C           3.2571    0.1077   17.7570 C.3     1  UNL1        0.0074
     23 C           3.5534    1.2737   18.6528 C.3     1  UNL1        0.0167
     24 C           4.5945    1.1497   19.7256 C.3     1  UNL1        0.0074
     25 C           5.3392   -0.1402   19.9026 C.3     1  UNL1        0.0447
     26 O           5.4913   -3.7623   18.2878 O.2     1  UNL1       -0.3779
     27 C           3.2348   -4.6423   19.2281 C.3     1  UNL1        0.0543
     28 C           4.6460   -4.8963   18.7876 C.3     1  UNL1        0.2386
     29 C          -8.3790    4.9827   24.2407 C.3     1  UNL1        0.4188
     30 F          -9.6144    5.2523   25.0477 F       1  UNL1       -0.1659
     31 F          -7.8127    6.3050   24.6658 F       1  UNL1       -0.1659
     32 F          -8.9452    3.6604   23.8155 F       1  UNL1       -0.1659
     33 N          -6.0478    4.4290   19.6300 N.pl3   1  UNL1        0.0814
     34 O          -5.7680    5.6857   18.8600 O.2     1  UNL1        0.0415
     35 O          -6.3973    3.1653   18.9015 O.co2   1  UNL1       -0.5760
@<TRIPOS>UNITY_ATOM_ATTR
33 1
charge 1
35 1
charge -1
@<TRIPOS>BOND
     1    27    28    1
     2    28    26    1
     3    26    19    1
     4    19    20    2
     5    20    21    1
     6    21    22    1
     7    22    23    1
     8    23    18    1
     9    18    12    1
    10    12    13    1
    11    13    14    1
    12    14    15    1
    13    15     1    1
    14     1     2   ar
    15     2     3   ar
    16     3     4    2
    17     3     5   ar
    18     5     6   ar
    19     6     7   ar
    20     7    29    1
    21    29    30    1
    22    29    31    1
    23    29    32    1
    24     7     8   ar
    25     8     9   ar
    26     9    33    1
    27    33    34    2
    28    33    35    1
    29     9    10   ar
    30    10    11   ar
    31    15    16    1
    32    16    17    1
    33    23    24    1
    34    24    25    1
    35    25    20    1
    36    17    12    1
    37    11     1   ar
    38    10     5   ar
@<TRIPOS>MOLECULE
*****
 35 38 0 0 0
SMALL
GASTEIGER

@<TRIPOS>ATOM
      1 C           5.6203   -2.0286   26.3716 C.ar    1  UNL1        0.1665
      2 N           4.3965   -1.2379   26.0151 N.ar    1  UNL1       -0.1866
      3 C           3.8590   -1.2781   24.6154 C.ar    1  UNL1        0.2814
      4 O           2.6352   -0.4874   24.2588 O.2     1  UNL1       -0.2651
      5 C           4.5453   -2.1091   23.5720 C.ar    1  UNL1        0.0699
      6 C           4.0077   -2.1493   22.1722 C.ar    1  UNL1        0.0096
      7 C           4.6940   -2.9803   21.1289 C.ar    1  UNL1        0.0777
      8 C           5.9178   -3.7711   21.4854 C.ar    1  UNL1        0.0797
      9 C           6.4553   -3.7308   22.8852 C.ar    1  UNL1        0.2960
     10 C           5.7690   -2.8999   23.9285 C.ar    1  UNL1        0.1059
     11 S           6.3065   -2.8596   25.3283 S.2     1  UNL1       -0.0466
     12 N           7.2330   -1.9080   30.5710 N.3     1  UNL1       -0.2698
     13 C           6.9231   -3.2255   29.9241 C.3     1  UNL1        0.0939
     14 C           6.3855   -3.2656   28.5244 C.3     1  UNL1        0.1100
     15 N           6.1579   -1.9884   27.7714 N.pl3   1  UNL1       -0.2852
     16 C           6.4678   -0.6710   28.4183 C.3     1  UNL1        0.1100
     17 C           7.0054   -0.6308   29.8181 C.3     1  UNL1        0.0939
     18 C           7.7705   -1.8679   31.9708 C.3     1  UNL1        0.0722
     19 N           4.2544   -0.0599   36.4838 N.2     1  UNL1       -0.0918
     20 C           5.1334   -0.5119   35.3555 C.2     1  UNL1        0.0748
     21 C           6.5477   -0.0209   35.2637 C.3     1  UNL1        0.0447
     22 C           7.4268   -0.4729   34.1354 C.3     1  UNL1        0.0074
     23 C           6.8915   -1.4159   33.0990 C.3     1  UNL1        0.0167
     24 C           5.4771   -1.9069   33.1909 C.3     1  UNL1        0.0074
     25 C           4.5981   -1.4549   34.3191 C.3     1  UNL1        0.0447
     26 O           4.7897    0.8831   37.5202 O.2     1  UNL1       -0.3779
     27 C           2.4733    1.5366   38.4986 C.3     1  UNL1        0.0543
     28 C           3.9373    1.2728   38.6914 C.3     1  UNL1        0.2386
     29 C           4.1564   -3.0206   19.7291 C.3     1  UNL1        0.4188
     30 F           3.6189   -3.0608   18.3292 F       1  UNL1       -0.1659
     31 F           5.3201   -3.8675   19.3066 F       1  UNL1       -0.1659
     32 F           2.9928   -2.1736   20.1516 F       1  UNL1       -0.1659
     33 N           7.6790   -4.5216   23.2416 N.pl3   1  UNL1        0.0814
     34 O           7.5465   -5.9460   23.6928 O.2     1  UNL1        0.0415
     35 O           9.0353   -3.8880   23.1469 O.co2   1  UNL1       -0.5760
@<TRIPOS>UNITY_ATOM_ATTR
33 1
charge 1
35 1
charge -1
@<TRIPOS>BOND
     1    27    28    1
     2    28    26    1
     3    26    19    1
     4    19    20    2
     5    20    21    1
     6    21    22    1
     7    22    23    1
     8    23    18    1
     9    18    12    1
    10    12    13    1
    11    13    14    1
    12    14    15    1
    13    15     1    1
    14     1     2   ar
    15     2     3   ar
    16     3     4    2
    17     3     5   ar
    18     5     6   ar
    19     6     7   ar
    20     7    29    1
    21    29    30    1
    22    29    31    1
    23    29    32    1
    24     7     8   ar
    25     8     9   ar
    26     9    33    1
    27    33    34    2
    28    33    35    1
    29     9    10   ar
    30    10    11   ar
    31    15    16    1
    32    16    17    1
    33    23    24    1
    34    24    25    1
    35    25    20    1
    36    17    12    1
    37    11     1   ar
    38    10     5   ar
@<TRIPOS>MOLECULE
*****
 35 38 0 0 0
SMALL
GASTEIGER

@<TRIPOS>ATOM
      1 C           6.6820   -3.9128   25.8120 C.ar    1  UNL1        0.1665
      2 N           7.4201   -4.9783   25.0571 N.ar    1  UNL1       -0.1866
      3 C           7.4327   -4.9627   23.5573 C.ar    1  UNL1        0.2814
      4 O           8.1709   -6.0282   22.8023 O.2     1  UNL1       -0.2651
      5 C           6.7072   -3.8816   22.8124 C.ar    1  UNL1        0.0699
      6 C           6.7199   -3.8661   21.3124 C.ar    1  UNL1        0.0096
      7 C           5.9943   -2.7850   20.5675 C.ar    1  UNL1        0.0777
      8 C           5.2561   -1.7196   21.3225 C.ar    1  UNL1        0.0797
      9 C           5.2435   -1.7352   22.8223 C.ar    1  UNL1        0.2960
     10 C           5.9690   -2.8162   23.5672 C.ar    1  UNL1        0.1059
     11 S           5.9564   -2.8318   25.0671 S.2     1  UNL1       -0.0466
     12 N           6.6440   -3.9595   30.3117 N.3     1  UNL1       -0.2698
     13 C           6.4902   -2.6626   29.5737 C.3     1  UNL1        0.0939
     14 C           6.5029   -2.6471   28.0739 C.3     1  UNL1        0.1100
     15 N           6.6693   -3.9284   27.3119 N.pl3   1  UNL1       -0.2852
     16 C           6.8231   -5.2252   28.0499 C.3     1  UNL1        0.1100
     17 C           6.8104   -5.2408   29.5498 C.3     1  UNL1        0.0939
     18 C           6.6314   -3.9750   31.8115 C.3     1  UNL1        0.0722
     19 N           5.1473    0.9811   34.8504 N.2     1  UNL1       -0.0918
     20 C           5.5184   -0.2579   34.0907 C.2     1  UNL1        0.0748
     21 C           4.4741   -1.2897   33.7828 C.3     1  UNL1        0.0447
     22 C           4.8451   -2.5288   33.0231 C.3     1  UNL1        0.0074
     23 C           6.2604   -2.7360   32.5712 C.3     1  UNL1        0.0167
     24 C           7.3046   -1.7040   32.8791 C.3     1  UNL1        0.0074
     25 C           6.9336   -0.4650   33.6388 C.3     1  UNL1        0.0447
     26 O           3.7321    1.1883   35.3022 O.2     1  UNL1       -0.3779
     27 C           3.3557    0.9912   37.8653 C.3     1  UNL1        0.0543
     28 C           3.4548    1.8331   36.6279 C.3     1  UNL1        0.2386
     29 C           6.0069   -2.7695   19.0677 C.3     1  UNL1        0.4188
     30 F           6.0195   -2.7539   17.5677 F       1  UNL1       -0.1659
     31 F           4.5081   -2.8270   19.0545 F       1  UNL1       -0.1659
     32 F           7.5057   -2.7119   19.0809 F       1  UNL1       -0.1659
     33 N           4.5054   -0.6697   23.5772 N.pl3   1  UNL1        0.0814
     34 O           5.2295    0.5594   24.0409 O.2     1  UNL1        0.0415
     35 O           3.0430   -0.8333   23.8684 O.co2   1  UNL1       -0.5760
@<TRIPOS>UNITY_ATOM_ATTR
33 1
charge 1
35 1
charge -1
@<TRIPOS>BOND
     1    27    28    1
     2    28    26    1
     3    26    19    1
     4    19    20    2
     5    20    21    1
     6    21    22    1
     7    22    23    1
     8    23    18    1
     9    18    12    1
    10    12    13    1
    11    13    14    1
    12    14    15    1
    13    15     1    1
    14     1     2   ar
    15     2     3   ar
    16     3     4    2
    17     3     5   ar
    18     5     6   ar
    19     6     7   ar
    20     7    29    1
    21    29    30    1
    22    29    31    1
    23    29    32    1
    24     7     8   ar
    25     8     9   ar
    26     9    33    1
    27    33    34    2
    28    33    35    1
    29     9    10   ar
    30    10    11   ar
    31    15    16    1
    32    16    17    1
    33    23    24    1
    34    24    25    1
    35    25    20    1
    36    17    12    1
    37    11     1   ar
    38    10     5   ar
@<TRIPOS>MOLECULE
*****
 35 38 0 0 0
SMALL
GASTEIGER

@<TRIPOS>ATOM
      1 C           2.4338    1.8253   31.3656 C.ar    1  UNL1        0.1665
      2 N           1.8174    2.9509   32.1421 N.ar    1  UNL1       -0.1866
      3 C           2.0125    3.0327   33.6271 C.ar    1  UNL1        0.2814
      4 O           1.3961    4.1584   34.4036 O.2     1  UNL1       -0.2651
      5 C           2.8240    1.9890   34.3355 C.ar    1  UNL1        0.0699
      6 C           3.0191    2.0709   35.8206 C.ar    1  UNL1        0.0096
      7 C           3.8307    1.0271   36.5291 C.ar    1  UNL1        0.0777
      8 C           4.4471   -0.0985   35.7525 C.ar    1  UNL1        0.0797
      9 C           4.2520   -0.1804   34.2675 C.ar    1  UNL1        0.2960
     10 C           3.4405    0.8634   33.5591 C.ar    1  UNL1        0.1059
     11 S           3.2454    0.7815   32.0741 S.2     1  UNL1       -0.0466
     12 N           1.8485    1.5796   26.9105 N.3     1  UNL1       -0.2698
     13 C           0.9500    0.8054   27.8289 C.3     1  UNL1        0.0939
     14 C           1.1451    0.8873   29.3139 C.3     1  UNL1        0.1100
     15 N           2.2387    1.7434   29.8805 N.pl3   1  UNL1       -0.2852
     16 C           3.1372    2.5176   28.9623 C.3     1  UNL1        0.1100
     17 C           2.9421    2.4357   27.4772 C.3     1  UNL1        0.0939
     18 C           1.6534    1.4977   25.4256 C.3     1  UNL1        0.0722
     19 N           4.5915   -2.6505   22.2382 N.2     1  UNL1       -0.0918
     20 C           3.8570   -1.6135   23.0350 C.2     1  UNL1        0.0748
     21 C           2.8695   -0.7089   22.3593 C.3     1  UNL1        0.0447
     22 C           2.1350    0.3282   23.1562 C.3     1  UNL1        0.0074
     23 C           2.3879    0.4607   24.6287 C.3     1  UNL1        0.0167
     24 C           3.3754   -0.4439   25.3045 C.3     1  UNL1        0.0074
     25 C           4.1100   -1.4810   24.5076 C.3     1  UNL1        0.0447
     26 O           4.3386   -2.7830   20.7656 O.2     1  UNL1       -0.3779
     27 C           3.3935   -4.6026   19.1700 C.3     1  UNL1        0.0543
     28 C           4.4674   -4.1210   20.0999 C.3     1  UNL1        0.2386
     29 C           4.0258    1.1089   38.0141 C.3     1  UNL1        0.4188
     30 F           4.2210    1.1908   39.4991 F       1  UNL1       -0.1659
     31 F           5.4677    1.4653   37.8050 F       1  UNL1       -0.1659
     32 F           2.5838    0.7526   38.2232 F       1  UNL1       -0.1659
     33 N           4.8685   -1.3060   33.4911 N.pl3   1  UNL1        0.0814
     34 O           4.0818   -2.5563   33.2301 O.2     1  UNL1        0.0415
     35 O           6.2715   -1.1814   32.9755 O.co2   1  UNL1       -0.5760
@<TRIPOS>UNITY_ATOM_ATTR
33 1
charge 1
35 1
charge -1
@<TRIPOS>BOND
     1    27    28    1
     2    28    26    1
     3    26    19    1
     4    19    20    2
     5    20    21    1
     6    21    22    1
     7    22    23    1
     8    23    18    1
     9    18    12    1
    10    12    13    1
    11    13    14    1
    12    14    15    1
    13    15     1    1
    14     1     2   ar
    15     2     3   ar
    16     3     4    2
    17     3     5   ar
    18     5     6   ar
    19     6     7   ar
    20     7    29    1
    21    29    30    1
    22    29    31    1
    23    29    32    1
    24     7     8   ar
    25     8     9   ar
    26     9    33    1
    27    33    34    2
    28    33    35    1
    29     9    10   ar
    30    10    11   ar
    31    15    16    1
    32    16    17    1
    33    23    24    1
    34    24    25    1
    35    25    20    1
    36    17    12    1
    37    11     1   ar
    38    10     5   ar
