@<TRIPOS>MOLECULE
*****
 18 20 0 0 0
SMALL
GASTEIGER

@<TRIPOS>ATOM
      1 C          -9.6846  -17.3960   22.4720 C.3     1  UNL1        0.0347
      2 C          -9.1987  -18.3461   23.5261 C.3     1  UNL1        0.0054
      3 C          -9.7482  -19.7403   23.5898 C.3     1  UNL1        0.0004
      4 C         -10.7836  -20.1844   22.5995 C.3     1  UNL1        0.0001
      5 C         -11.2695  -19.2343   21.5455 C.3     1  UNL1        0.0017
      6 C         -10.7200  -17.8401   21.4817 C.3     1  UNL1        0.0208
      7 C         -11.0050  -16.6899   20.5619 C.3     1  UNL1        0.0689
      8 N         -10.1458  -15.5351   20.9837 N.3     1  UNL1       -0.2972
      9 C          -9.3297  -15.9714   22.1642 C.3     1  UNL1        0.0726
     10 H         -10.7336  -14.7428   21.2431 H       1  UNL1        0.1233
     11 CL         -5.5503  -15.0634   26.1417 Cl      1  UNL1       -0.0814
     12 C          -6.5839  -15.6466   25.2243 C.ar    1  UNL1        0.0682
     13 C          -6.1859  -16.1452   23.8668 C.ar    1  UNL1        0.0119
     14 C          -7.2195  -16.7284   22.9493 C.ar    1  UNL1       -0.0033
     15 C          -8.6510  -16.8128   23.3895 C.ar    1  UNL1       -0.0206
     16 C          -9.0489  -16.3141   24.7470 C.ar    1  UNL1        0.0080
     17 C          -8.0153  -15.7310   25.6644 C.ar    1  UNL1        0.0679
     18 CL         -8.4132  -15.2323   27.0220 Cl      1  UNL1       -0.0814
@<TRIPOS>BOND
     1    11    12    1
     2    12    13   ar
     3    13    14   ar
     4    14    15   ar
     5     1    15    1
     6     1     2    1
     7     2     3    1
     8     3     4    1
     9     4     5    1
    10     6     5    1
    11     6     7    1
    12     7     8    1
    13     8     9    1
    14    15    16   ar
    15    16    17   ar
    16    17    18    1
    17    17    12   ar
    18     6     1    1
    19     9     1    1
    20     8    10    1
@<TRIPOS>MOLECULE
*****
 18 20 0 0 0
SMALL
GASTEIGER

@<TRIPOS>ATOM
      1 C         -10.1868  -17.8944   23.1142 C.3     1  UNL1        0.0347
      2 C         -10.3572  -16.4042   23.1342 C.3     1  UNL1        0.0054
      3 C         -11.5679  -15.7793   22.5068 C.3     1  UNL1        0.0004
      4 C         -12.6083  -16.6446   21.8596 C.3     1  UNL1        0.0001
      5 C         -12.4379  -18.1347   21.8396 C.3     1  UNL1        0.0017
      6 C         -11.2272  -18.7596   22.4670 C.3     1  UNL1        0.0208
      7 C         -10.7903  -20.1884   22.6005 C.3     1  UNL1        0.0689
      8 N          -9.4799  -20.2062   23.3303 N.3     1  UNL1       -0.2972
      9 C          -9.1070  -18.7884   23.6478 C.3     1  UNL1        0.0726
     10 H          -8.7620  -20.6296   22.7423 H       1  UNL1        0.1233
     11 CL         -5.7147  -14.9630   25.8357 Cl      1  UNL1       -0.0814
     12 C          -6.8327  -15.6958   25.1554 C.ar    1  UNL1        0.0682
     13 C          -6.7124  -16.0707   23.7080 C.ar    1  UNL1        0.0119
     14 C          -7.8304  -16.8036   23.0276 C.ar    1  UNL1       -0.0033
     15 C          -9.0688  -17.1615   23.7946 C.ar    1  UNL1       -0.0206
     16 C          -9.1891  -16.7866   25.2420 C.ar    1  UNL1        0.0080
     17 C          -8.0711  -16.0538   25.9224 C.ar    1  UNL1        0.0679
     18 CL         -8.1914  -15.6789   27.3697 Cl      1  UNL1       -0.0814
@<TRIPOS>BOND
     1    11    12    1
     2    12    13   ar
     3    13    14   ar
     4    14    15   ar
     5     1    15    1
     6     1     2    1
     7     2     3    1
     8     3     4    1
     9     4     5    1
    10     6     5    1
    11     6     7    1
    12     7     8    1
    13     8     9    1
    14    15    16   ar
    15    16    17   ar
    16    17    18    1
    17    17    12   ar
    18     6     1    1
    19     9     1    1
    20     8    10    1
@<TRIPOS>MOLECULE
*****
 18 20 0 0 0
SMALL
GASTEIGER

@<TRIPOS>ATOM
      1 C          -6.9003  -16.6242   23.4275 C.3     1  UNL1        0.0347
      2 C          -7.2385  -17.8534   22.6372 C.3     1  UNL1        0.0054
      3 C          -6.1483  -18.7831   22.1931 C.3     1  UNL1        0.0004
      4 C          -4.7199  -18.4836   22.5395 C.3     1  UNL1        0.0001
      5 C          -4.3817  -17.2544   23.3299 C.3     1  UNL1        0.0017
      6 C          -5.4719  -16.3247   23.7739 C.3     1  UNL1        0.0208
      7 C          -5.4434  -15.0468   24.5587 C.3     1  UNL1        0.0689
      8 N          -6.8542  -14.5564   24.6974 N.3     1  UNL1       -0.2972
      9 C          -7.7546  -15.5313   23.9983 C.3     1  UNL1        0.0726
     10 H          -6.9439  -13.6346   24.2701 H       1  UNL1        0.1233
     11 CL        -12.7641  -17.2945   22.3477 Cl      1  UNL1       -0.0814
     12 C         -11.2981  -17.1269   22.6177 C.ar    1  UNL1        0.0682
     13 C         -10.6983  -17.6856   23.8738 C.ar    1  UNL1        0.0119
     14 C          -9.2323  -17.5180   24.1438 C.ar    1  UNL1       -0.0033
     15 C          -8.3663  -16.7918   23.1576 C.ar    1  UNL1       -0.0206
     16 C          -8.9662  -16.2332   21.9014 C.ar    1  UNL1        0.0080
     17 C         -10.4321  -16.4007   21.6315 C.ar    1  UNL1        0.0679
     18 CL        -11.0321  -15.8421   20.3753 Cl      1  UNL1       -0.0814
@<TRIPOS>BOND
     1    11    12    1
     2    12    13   ar
     3    13    14   ar
     4    14    15   ar
     5     1    15    1
     6     1     2    1
     7     2     3    1
     8     3     4    1
     9     4     5    1
    10     6     5    1
    11     6     7    1
    12     7     8    1
    13     8     9    1
    14    15    16   ar
    15    16    17   ar
    16    17    18    1
    17    17    12   ar
    18     6     1    1
    19     9     1    1
    20     8    10    1
@<TRIPOS>MOLECULE
*****
 18 20 0 0 0
SMALL
GASTEIGER

@<TRIPOS>ATOM
      1 C          -7.7188  -16.1517   24.6660 C.3     1  UNL1        0.0347
      2 C          -8.8129  -16.8336   25.4327 C.3     1  UNL1        0.0054
      3 C          -8.7726  -16.8624   26.9319 C.3     1  UNL1        0.0004
      4 C          -7.6381  -16.2093   27.6643 C.3     1  UNL1        0.0001
      5 C          -6.5440  -15.5274   26.8976 C.3     1  UNL1        0.0017
      6 C          -6.5843  -15.4986   25.3985 C.3     1  UNL1        0.0208
      7 C          -5.6552  -14.9065   24.3806 C.3     1  UNL1        0.0689
      8 N          -6.2153  -15.1936   23.0191 N.3     1  UNL1       -0.2972
      9 C          -7.4907  -15.9632   23.1955 C.3     1  UNL1        0.0726
     10 H          -5.5489  -15.7468   22.4803 H       1  UNL1        0.1233
     11 CL        -11.9772  -18.5783   21.2052 Cl      1  UNL1       -0.0814
     12 C         -10.9126  -17.9716   22.0705 C.ar    1  UNL1        0.0682
     13 C          -9.6122  -18.6907   22.2746 C.ar    1  UNL1        0.0119
     14 C          -8.5475  -18.0840   23.1398 C.ar    1  UNL1       -0.0033
     15 C          -8.7834  -16.7583   23.8008 C.ar    1  UNL1       -0.0206
     16 C         -10.0839  -16.0393   23.5966 C.ar    1  UNL1        0.0080
     17 C         -11.1485  -16.6460   22.7315 C.ar    1  UNL1        0.0679
     18 CL        -12.4490  -15.9270   22.5273 Cl      1  UNL1       -0.0814
@<TRIPOS>BOND
     1    11    12    1
     2    12    13   ar
     3    13    14   ar
     4    14    15   ar
     5     1    15    1
     6     1     2    1
     7     2     3    1
     8     3     4    1
     9     4     5    1
    10     6     5    1
    11     6     7    1
    12     7     8    1
    13     8     9    1
    14    15    16   ar
    15    16    17   ar
    16    17    18    1
    17    17    12   ar
    18     6     1    1
    19     9     1    1
    20     8    10    1
@<TRIPOS>MOLECULE
*****
 18 20 0 0 0
SMALL
GASTEIGER

@<TRIPOS>ATOM
      1 C         -10.5643  -17.4503   23.3389 C.3     1  UNL1        0.0347
      2 C         -10.0949  -16.5127   22.2662 C.3     1  UNL1        0.0054
      3 C         -11.0311  -16.0982   21.1701 C.3     1  UNL1        0.0004
      4 C         -12.4368  -16.6213   21.1466 C.3     1  UNL1        0.0001
      5 C         -12.9062  -17.5588   22.2192 C.3     1  UNL1        0.0017
      6 C         -11.9700  -17.9733   23.3154 C.3     1  UNL1        0.0208
      7 C         -12.1480  -18.8774   24.4990 C.3     1  UNL1        0.0689
      8 N         -10.8524  -18.9131   25.2541 N.3     1  UNL1       -0.2972
      9 C          -9.8736  -18.0311   24.5371 C.3     1  UNL1        0.0726
     10 H         -10.4974  -19.8687   25.2874 H       1  UNL1        0.1233
     11 CL         -4.8599  -15.6959   23.9560 Cl      1  UNL1       -0.0814
     12 C          -6.2860  -16.1345   23.8017 C.ar    1  UNL1        0.0682
     13 C          -7.3903  -15.3229   24.4113 C.ar    1  UNL1        0.0119
     14 C          -8.8165  -15.7615   24.2570 C.ar    1  UNL1       -0.0033
     15 C          -9.1382  -17.0117   23.4932 C.ar    1  UNL1       -0.0206
     16 C          -8.0338  -17.8233   22.8836 C.ar    1  UNL1        0.0080
     17 C          -6.6077  -17.3847   23.0379 C.ar    1  UNL1        0.0679
     18 CL         -5.5033  -18.1963   22.4283 Cl      1  UNL1       -0.0814
@<TRIPOS>BOND
     1    11    12    1
     2    12    13   ar
     3    13    14   ar
     4    14    15   ar
     5     1    15    1
     6     1     2    1
     7     2     3    1
     8     3     4    1
     9     4     5    1
    10     6     5    1
    11     6     7    1
    12     7     8    1
    13     8     9    1
    14    15    16   ar
    15    16    17   ar
    16    17    18    1
    17    17    12   ar
    18     6     1    1
    19     9     1    1
    20     8    10    1
@<TRIPOS>MOLECULE
*****
 18 20 0 0 0
SMALL
GASTEIGER

@<TRIPOS>ATOM
      1 C         -10.7914  -17.6462   22.3298 C.3     1  UNL1        0.0347
      2 C         -10.3436  -18.4578   23.5091 C.3     1  UNL1        0.0054
      3 C         -11.3389  -18.8853   24.5466 C.3     1  UNL1        0.0004
      4 C         -12.7819  -18.5012   24.4049 C.3     1  UNL1        0.0001
      5 C         -13.2297  -17.6896   23.2256 C.3     1  UNL1        0.0017
      6 C         -12.2344  -17.2621   22.1880 C.3     1  UNL1        0.0208
      7 C         -12.3797  -16.4631   20.9269 C.3     1  UNL1        0.0689
      8 N         -11.0265  -16.3533   20.2892 N.3     1  UNL1       -0.2972
      9 C         -10.0448  -17.0845   21.1562 C.3     1  UNL1        0.0726
     10 H         -10.7579  -15.3722   20.2138 H       1  UNL1        0.1233
     11 CL         -4.9186  -18.8749   22.3583 Cl      1  UNL1       -0.0814
     12 C          -6.3868  -18.5677   22.3512 C.ar    1  UNL1        0.0682
     13 C          -7.3492  -19.5205   21.7064 C.ar    1  UNL1        0.0119
     14 C          -8.8174  -19.2133   21.6992 C.ar    1  UNL1       -0.0033
     15 C          -9.3232  -17.9534   22.3369 C.ar    1  UNL1       -0.0206
     16 C          -8.3607  -17.0006   22.9817 C.ar    1  UNL1        0.0080
     17 C          -6.8926  -17.3078   22.9889 C.ar    1  UNL1        0.0679
     18 CL         -5.9301  -16.3550   23.6337 Cl      1  UNL1       -0.0814
@<TRIPOS>BOND
     1    11    12    1
     2    12    13   ar
     3    13    14   ar
     4    14    15   ar
     5     1    15    1
     6     1     2    1
     7     2     3    1
     8     3     4    1
     9     4     5    1
    10     6     5    1
    11     6     7    1
    12     7     8    1
    13     8     9    1
    14    15    16   ar
    15    16    17   ar
    16    17    18    1
    17    17    12   ar
    18     6     1    1
    19     9     1    1
    20     8    10    1
@<TRIPOS>MOLECULE
*****
 18 20 0 0 0
SMALL
GASTEIGER

@<TRIPOS>ATOM
      1 C          -8.6244  -19.5922   21.2382 C.3     1  UNL1        0.0347
      2 C          -8.0770  -19.9529   22.5874 C.3     1  UNL1        0.0054
      3 C          -9.0127  -20.2415   23.7236 C.3     1  UNL1        0.0004
      4 C         -10.4957  -20.1695   23.5108 C.3     1  UNL1        0.0001
      5 C         -11.0431  -19.8088   22.1616 C.3     1  UNL1        0.0017
      6 C         -10.1075  -19.5202   21.0254 C.3     1  UNL1        0.0208
      7 C         -10.3525  -19.1414   19.5948 C.3     1  UNL1        0.0689
      8 N          -9.0210  -18.9793   18.9235 N.3     1  UNL1       -0.2972
      9 C          -7.9529  -19.2579   19.9392 C.3     1  UNL1        0.0726
     10 H          -8.9242  -18.0267   18.5719 H       1  UNL1        0.1233
     11 CL         -2.6309  -19.7219   21.4850 Cl      1  UNL1       -0.0814
     12 C          -4.1293  -19.6895   21.4233 C.ar    1  UNL1        0.0682
     13 C          -4.8635  -20.6391   20.5239 C.ar    1  UNL1        0.0119
     14 C          -6.3619  -20.6066   20.4622 C.ar    1  UNL1       -0.0033
     15 C          -7.1260  -19.6246   21.2999 C.ar    1  UNL1       -0.0206
     16 C          -6.3917  -18.6750   22.1994 C.ar    1  UNL1        0.0080
     17 C          -4.8934  -18.7074   22.2611 C.ar    1  UNL1        0.0679
     18 CL         -4.1590  -17.7578   23.1605 Cl      1  UNL1       -0.0814
@<TRIPOS>BOND
     1    11    12    1
     2    12    13   ar
     3    13    14   ar
     4    14    15   ar
     5     1    15    1
     6     1     2    1
     7     2     3    1
     8     3     4    1
     9     4     5    1
    10     6     5    1
    11     6     7    1
    12     7     8    1
    13     8     9    1
    14    15    16   ar
    15    16    17   ar
    16    17    18    1
    17    17    12   ar
    18     6     1    1
    19     9     1    1
    20     8    10    1
@<TRIPOS>MOLECULE
*****
 18 20 0 0 0
SMALL
GASTEIGER

@<TRIPOS>ATOM
      1 C          -8.9445  -18.3949   22.6130 C.3     1  UNL1        0.0347
      2 C          -8.5746  -19.7877   23.0292 C.3     1  UNL1        0.0054
      3 C          -9.4155  -20.5185   24.0335 C.3     1  UNL1        0.0004
      4 C         -10.6263  -19.8566   24.6216 C.3     1  UNL1        0.0001
      5 C         -10.9962  -18.4638   24.2054 C.3     1  UNL1        0.0017
      6 C         -10.1553  -17.7330   23.2011 C.3     1  UNL1        0.0208
      7 C         -10.2708  -16.3623   22.6028 C.3     1  UNL1        0.0689
      8 N          -9.1314  -16.1771   21.6450 N.3     1  UNL1       -0.2972
      9 C          -8.3117  -17.4333   21.6513 C.3     1  UNL1        0.0726
     10 H          -8.5568  -15.3873   21.9391 H       1  UNL1        0.1233
     11 CL         -4.0142  -20.5153   19.9305 Cl      1  UNL1       -0.0814
     12 C          -5.2468  -19.9852   20.6012 C.ar    1  UNL1        0.0682
     13 C          -6.5960  -20.2323   19.9941 C.ar    1  UNL1        0.0119
     14 C          -7.8286  -19.7022   20.6648 C.ar    1  UNL1       -0.0033
     15 C          -7.7119  -18.9250   21.9424 C.ar    1  UNL1       -0.0206
     16 C          -6.3626  -18.6779   22.5494 C.ar    1  UNL1        0.0080
     17 C          -5.1301  -19.2080   21.8788 C.ar    1  UNL1        0.0679
     18 CL         -3.7809  -18.9610   22.4858 Cl      1  UNL1       -0.0814
@<TRIPOS>BOND
     1    11    12    1
     2    12    13   ar
     3    13    14   ar
     4    14    15   ar
     5     1    15    1
     6     1     2    1
     7     2     3    1
     8     3     4    1
     9     4     5    1
    10     6     5    1
    11     6     7    1
    12     7     8    1
    13     8     9    1
    14    15    16   ar
    15    16    17   ar
    16    17    18    1
    17    17    12   ar
    18     6     1    1
    19     9     1    1
    20     8    10    1
@<TRIPOS>MOLECULE
*****
 18 20 0 0 0
SMALL
GASTEIGER

@<TRIPOS>ATOM
      1 C         -10.8124  -17.5520   22.4566 C.3     1  UNL1        0.0347
      2 C         -10.3223  -18.3564   23.6239 C.3     1  UNL1        0.0054
      3 C         -11.2975  -18.8807   24.6358 C.3     1  UNL1        0.0004
      4 C         -12.7629  -18.6006   24.4804 C.3     1  UNL1        0.0001
      5 C         -13.2530  -17.7962   23.3131 C.3     1  UNL1        0.0017
      6 C         -12.2778  -17.2719   22.3012 C.3     1  UNL1        0.0208
      7 C         -12.4642  -16.4557   21.0565 C.3     1  UNL1        0.0689
      8 N         -11.1141  -16.2314   20.4427 N.3     1  UNL1       -0.2972
      9 C         -10.0932  -16.9089   21.3080 C.3     1  UNL1        0.0726
     10 H         -10.9178  -15.2317   20.3939 H       1  UNL1        0.1233
     11 CL         -4.8658  -18.3455   22.5489 Cl      1  UNL1       -0.0814
     12 C          -6.3525  -18.1471   22.5258 C.ar    1  UNL1        0.0682
     13 C          -6.9587  -16.9434   23.1841 C.ar    1  UNL1        0.0119
     14 C          -8.4454  -16.7450   23.1610 C.ar    1  UNL1       -0.0033
     15 C          -9.3257  -17.7504   22.4797 C.ar    1  UNL1       -0.0206
     16 C          -8.7194  -18.9541   21.8215 C.ar    1  UNL1        0.0080
     17 C          -7.2328  -19.1525   21.8445 C.ar    1  UNL1        0.0679
     18 CL         -6.6265  -20.3563   21.1863 Cl      1  UNL1       -0.0814
@<TRIPOS>BOND
     1    11    12    1
     2    12    13   ar
     3    13    14   ar
     4    14    15   ar
     5     1    15    1
     6     1     2    1
     7     2     3    1
     8     3     4    1
     9     4     5    1
    10     6     5    1
    11     6     7    1
    12     7     8    1
    13     8     9    1
    14    15    16   ar
    15    16    17   ar
    16    17    18    1
    17    17    12   ar
    18     6     1    1
    19     9     1    1
    20     8    10    1
