@<TRIPOS>MOLECULE
*****
 40 43 0 0 0
SMALL
GASTEIGER

@<TRIPOS>ATOM
      1 C           5.2089   -0.9564   27.2290 C.3     1  UNL1        0.1165
      2 C           4.3992   -0.7393   28.4729 C.ar    1  UNL1        0.0046
      3 C           5.0857   -0.5914   29.7983 C.ar    1  UNL1        0.0275
      4 C           4.2761   -0.3743   31.0422 C.ar    1  UNL1        0.1429
      5 F           4.9626   -0.2265   32.3677 F       1  UNL1       -0.2041
      6 C           2.7799   -0.3052   30.9607 C.ar    1  UNL1        0.0667
      7 C           2.0934   -0.4530   29.6353 C.ar    1  UNL1        0.1461
      8 C           2.9030   -0.6701   28.3914 C.ar    1  UNL1        0.0349
      9 O           0.5972   -0.3838   29.5538 O.3     1  UNL1       -0.4263
     10 C          -0.0589    0.3744   28.4382 C.3     1  UNL1        0.4723
     11 F           0.8622    1.5325   28.6836 F       1  UNL1       -0.1579
     12 F          -0.9801   -0.7837   28.1928 F       1  UNL1       -0.1579
     13 C          -0.7150    1.1326   27.3226 C.3     1  UNL1        0.4202
     14 F          -1.8036    2.1193   27.6249 F       1  UNL1       -0.1876
     15 F          -0.2824    0.9042   25.9045 F       1  UNL1       -0.1876
     16 C           5.4254    0.5232   27.1117 C.ar    1  UNL1        0.0792
     17 C           4.2725    1.4266   26.7882 C.ar    1  UNL1        0.0175
     18 C           4.4890    2.9063   26.6710 C.ar    1  UNL1        0.0142
     19 C           5.8584    3.4825   26.8772 C.ar    1  UNL1        0.0768
     20 CL          6.0750    4.9622   26.7600 Cl      1  UNL1       -0.0806
     21 C           7.0114    2.5791   27.2007 C.ar    1  UNL1        0.1098
     22 N           6.7949    1.0995   27.3180 N.ar    1  UNL1       -0.2454
     23 O           6.8424   -3.1849   28.0969 O.2     1  UNL1       -0.2528
     24 C           6.0959   -3.3179   27.8509 C.2     1  UNL1        0.3011
     25 N           5.8794   -4.7975   27.9682 N.am    1  UNL1       -0.2906
     26 N           4.9924   -2.4360   27.3462 N.am    1  UNL1       -0.2834
     27 H           5.0130   -5.1899   27.7138 H       1  UNL1        0.1509
     28 H           4.1260   -2.8284   27.0919 H       1  UNL1        0.1515
     29 C           6.9829   -5.6793   28.4729 C.3     1  UNL1        0.0730
     30 C           7.3825   -5.8576   29.9077 C.3     1  UNL1        0.0196
     31 C           8.5272   -6.8262   29.9530 C.3     1  UNL1        0.0017
     32 C           8.8349   -7.2463   28.5463 C.3     1  UNL1        0.0017
     33 C           7.8805   -6.5375   27.6315 C.3     1  UNL1        0.0196
     34 C           6.0185   -1.1734   25.9851 C.3     1  UNL1        0.0544
     35 C           5.3589   -1.6925   24.7418 C.ar    1  UNL1       -0.0199
     36 C           4.2376   -0.9221   24.1102 C.ar    1  UNL1       -0.0042
     37 C           3.5781   -1.4411   22.8670 C.ar    1  UNL1       -0.0003
     38 C           4.0398   -2.7306   22.2555 C.ar    1  UNL1       -0.0000
     39 C           5.1612   -3.5011   22.8871 C.ar    1  UNL1       -0.0003
     40 C           5.8207   -2.9820   24.1303 C.ar    1  UNL1       -0.0042
@<TRIPOS>BOND
     1    23    24    2
     2    24    25   am
     3    25    29    1
     4    29    30    1
     5    30    31    1
     6    31    32    1
     7    32    33    1
     8    24    26   am
     9    26     1    1
    10     1    34    1
    11    34    35    1
    12    35    36   ar
    13    36    37   ar
    14    37    38   ar
    15    38    39   ar
    16    39    40   ar
    17     1     2    1
    18     2     3   ar
    19     3     4   ar
    20     4     5    1
    21     4     6   ar
    22     6     7   ar
    23     7     9    1
    24     9    10    1
    25    10    11    1
    26    10    12    1
    27    10    13    1
    28    13    14    1
    29    13    15    1
    30     7     8   ar
    31     1    16    1
    32    16    17   ar
    33    17    18   ar
    34    18    19   ar
    35    19    20    1
    36    19    21   ar
    37    21    22   ar
    38    33    29    1
    39    40    35   ar
    40     8     2   ar
    41    22    16   ar
    42    25    27    1
    43    26    28    1
@<TRIPOS>MOLECULE
*****
 40 43 0 0 0
SMALL
GASTEIGER

@<TRIPOS>ATOM
      1 C           5.8888   -0.9759   31.5532 C.3     1  UNL1        0.1165
      2 C           4.8986   -0.9245   30.4276 C.ar    1  UNL1        0.0046
      3 C           5.3575   -1.1339   29.0150 C.ar    1  UNL1        0.0275
      4 C           4.3674   -1.0825   27.8894 C.ar    1  UNL1        0.1429
      5 F           4.8262   -1.2920   26.4767 F       1  UNL1       -0.2041
      6 C           2.9184   -0.8215   28.1765 C.ar    1  UNL1        0.0667
      7 C           2.4596   -0.6120   29.5891 C.ar    1  UNL1        0.1461
      8 C           3.4497   -0.6635   30.7147 C.ar    1  UNL1        0.0349
      9 O           1.0106   -0.3511   29.8762 O.3     1  UNL1       -0.4263
     10 C           0.1392    0.2748   28.8278 C.3     1  UNL1        0.4723
     11 F           1.0138    1.4934   28.8284 F       1  UNL1       -0.1579
     12 F          -0.7354   -0.9439   28.8273 F       1  UNL1       -0.1579
     13 C          -0.7321    0.9006   27.7795 C.3     1  UNL1        0.4202
     14 F          -2.0710    1.4632   28.1551 F       1  UNL1       -0.1876
     15 F          -0.2647    0.9639   26.3556 F       1  UNL1       -0.1876
     16 C           6.0743    0.5095   31.4579 C.ar    1  UNL1        0.0792
     17 C           7.3794    1.0732   30.9793 C.ar    1  UNL1        0.0175
     18 C           7.5648    2.5587   30.8840 C.ar    1  UNL1        0.0142
     19 C           6.4453    3.4804   31.2673 C.ar    1  UNL1        0.0768
     20 CL          6.6307    4.9659   31.1720 Cl      1  UNL1       -0.0806
     21 C           5.1402    2.9167   31.7460 C.ar    1  UNL1        0.1098
     22 N           4.9547    1.4313   31.8413 N.ar    1  UNL1       -0.2454
     23 O           7.4471   -3.2736   30.7285 O.2     1  UNL1       -0.2528
     24 C           6.7486   -3.3847   31.0963 C.2     1  UNL1        0.3011
     25 N           6.5631   -4.8701   31.1916 N.am    1  UNL1       -0.2906
     26 N           5.7034   -2.4613   31.6486 N.am    1  UNL1       -0.2834
     27 H           5.7554   -5.2390   31.6166 H       1  UNL1        0.1509
     28 H           4.8956   -2.8303   32.0736 H       1  UNL1        0.1515
     29 C           7.6084   -5.7934   30.6393 C.3     1  UNL1        0.0730
     30 C           7.7068   -6.2646   29.2187 C.3     1  UNL1        0.0196
     31 C           8.8980   -7.1701   29.1121 C.3     1  UNL1        0.0017
     32 C           9.5357   -7.2585   30.4669 C.3     1  UNL1        0.0017
     33 C           8.7387   -6.4077   31.4108 C.3     1  UNL1        0.0196
     34 C           6.8790   -1.0273   32.6788 C.3     1  UNL1        0.0544
     35 C           6.4614   -0.6306   34.0638 C.ar    1  UNL1       -0.0199
     36 C           5.0752   -0.9394   34.5466 C.ar    1  UNL1       -0.0042
     37 C           4.6577   -0.5426   35.9316 C.ar    1  UNL1       -0.0003
     38 C           5.6263    0.1630   36.8338 C.ar    1  UNL1       -0.0000
     39 C           7.0125    0.4718   36.3510 C.ar    1  UNL1       -0.0003
     40 C           7.4300    0.0750   34.9660 C.ar    1  UNL1       -0.0042
@<TRIPOS>BOND
     1    23    24    2
     2    24    25   am
     3    25    29    1
     4    29    30    1
     5    30    31    1
     6    31    32    1
     7    32    33    1
     8    24    26   am
     9    26     1    1
    10     1    34    1
    11    34    35    1
    12    35    36   ar
    13    36    37   ar
    14    37    38   ar
    15    38    39   ar
    16    39    40   ar
    17     1     2    1
    18     2     3   ar
    19     3     4   ar
    20     4     5    1
    21     4     6   ar
    22     6     7   ar
    23     7     9    1
    24     9    10    1
    25    10    11    1
    26    10    12    1
    27    10    13    1
    28    13    14    1
    29    13    15    1
    30     7     8   ar
    31     1    16    1
    32    16    17   ar
    33    17    18   ar
    34    18    19   ar
    35    19    20    1
    36    19    21   ar
    37    21    22   ar
    38    33    29    1
    39    40    35   ar
    40     8     2   ar
    41    22    16   ar
    42    25    27    1
    43    26    28    1
@<TRIPOS>MOLECULE
*****
 40 43 0 0 0
SMALL
GASTEIGER

@<TRIPOS>ATOM
      1 C           2.9050    0.7238   29.3689 C.3     1  UNL1        0.1165
      2 C           1.5038    0.8716   28.8542 C.ar    1  UNL1        0.0046
      3 C           0.4900   -0.2015   29.1201 C.ar    1  UNL1        0.0275
      4 C          -0.9111   -0.0538   28.6054 C.ar    1  UNL1        0.1429
      5 F          -1.9248   -1.1270   28.8713 F       1  UNL1       -0.2041
      6 C          -1.2985    1.1670   27.8248 C.ar    1  UNL1        0.0667
      7 C          -0.2848    2.2402   27.5589 C.ar    1  UNL1        0.1461
      8 C           1.1164    2.0925   28.0736 C.ar    1  UNL1        0.0349
      9 O          -0.6722    3.4611   26.7782 O.3     1  UNL1       -0.4263
     10 C          -2.0060    3.5222   26.0947 C.3     1  UNL1        0.4723
     11 F          -2.5233    4.4143   27.1840 F       1  UNL1       -0.1579
     12 F          -1.4887    2.6302   25.0054 F       1  UNL1       -0.1579
     13 C          -3.3398    3.5834   25.4112 C.3     1  UNL1        0.4202
     14 F          -3.4280    3.4204   23.9227 F       1  UNL1       -0.1876
     15 F          -4.5856    3.8075   26.2163 F       1  UNL1       -0.1876
     16 C           2.7345    1.9676   30.1899 C.ar    1  UNL1        0.0792
     17 C           1.7342    1.9975   31.3072 C.ar    1  UNL1        0.0175
     18 C           1.5637    3.2413   32.1282 C.ar    1  UNL1        0.0142
     19 C           2.3936    4.4551   31.8318 C.ar    1  UNL1        0.0768
     20 CL          2.2231    5.6990   32.6528 Cl      1  UNL1       -0.0806
     21 C           3.3939    4.4252   30.7144 C.ar    1  UNL1        0.1098
     22 N           3.5644    3.1815   29.8935 N.ar    1  UNL1       -0.2454
     23 O           3.8038    0.1800   26.6700 O.2     1  UNL1       -0.2528
     24 C           3.5809   -0.4250   27.1388 C.2     1  UNL1        0.3011
     25 N           3.7514   -1.6688   26.3178 N.am    1  UNL1       -0.2906
     26 N           3.0754   -0.5199   28.5479 N.am    1  UNL1       -0.2834
     27 H           3.5315   -2.5473   26.7039 H       1  UNL1        0.1509
     28 H           2.8556   -1.3985   28.9340 H       1  UNL1        0.1515
     29 C           4.2568   -1.5739   24.9087 C.3     1  UNL1        0.0730
     30 C           3.4391   -1.2254   23.7004 C.3     1  UNL1        0.0196
     31 C           4.3456   -1.2470   22.5054 C.3     1  UNL1        0.0017
     32 C           5.7234   -1.6088   22.9752 C.3     1  UNL1        0.0017
     33 C           5.6685   -1.8109   24.4605 C.3     1  UNL1        0.0196
     34 C           4.3061    0.5761   29.8836 C.3     1  UNL1        0.0544
     35 C           4.6556   -0.5670   30.7898 C.ar    1  UNL1       -0.0199
     36 C           3.8860   -0.7800   32.0596 C.ar    1  UNL1       -0.0042
     37 C           4.2355   -1.9231   32.9657 C.ar    1  UNL1       -0.0003
     38 C           5.3547   -2.8533   32.6020 C.ar    1  UNL1       -0.0000
     39 C           6.1243   -2.6403   31.3323 C.ar    1  UNL1       -0.0003
     40 C           5.7748   -1.4972   30.4262 C.ar    1  UNL1       -0.0042
@<TRIPOS>BOND
     1    23    24    2
     2    24    25   am
     3    25    29    1
     4    29    30    1
     5    30    31    1
     6    31    32    1
     7    32    33    1
     8    24    26   am
     9    26     1    1
    10     1    34    1
    11    34    35    1
    12    35    36   ar
    13    36    37   ar
    14    37    38   ar
    15    38    39   ar
    16    39    40   ar
    17     1     2    1
    18     2     3   ar
    19     3     4   ar
    20     4     5    1
    21     4     6   ar
    22     6     7   ar
    23     7     9    1
    24     9    10    1
    25    10    11    1
    26    10    12    1
    27    10    13    1
    28    13    14    1
    29    13    15    1
    30     7     8   ar
    31     1    16    1
    32    16    17   ar
    33    17    18   ar
    34    18    19   ar
    35    19    20    1
    36    19    21   ar
    37    21    22   ar
    38    33    29    1
    39    40    35   ar
    40     8     2   ar
    41    22    16   ar
    42    25    27    1
    43    26    28    1
@<TRIPOS>MOLECULE
*****
 40 43 0 0 0
SMALL
GASTEIGER

@<TRIPOS>ATOM
      1 C           4.7537   -0.9877   23.5779 C.3     1  UNL1        0.1165
      2 C           5.8094   -0.8662   22.5192 C.ar    1  UNL1        0.0046
      3 C           6.9363    0.1086   22.6923 C.ar    1  UNL1        0.0275
      4 C           7.9921    0.2301   21.6337 C.ar    1  UNL1        0.1429
      5 F           9.1190    1.2049   21.8068 F       1  UNL1       -0.2041
      6 C           7.9209   -0.6231   20.4021 C.ar    1  UNL1        0.0667
      7 C           6.7940   -1.5979   20.2291 C.ar    1  UNL1        0.1461
      8 C           5.7383   -1.7194   21.2877 C.ar    1  UNL1        0.0349
      9 O           6.7229   -2.4512   18.9974 O.3     1  UNL1       -0.4263
     10 C           5.6361   -3.4753   18.8563 C.3     1  UNL1        0.4723
     11 F           6.3310   -4.3506   19.8567 F       1  UNL1       -0.1579
     12 F           4.9413   -2.6001   17.8558 F       1  UNL1       -0.1579
     13 C           4.5494   -4.4995   18.7151 C.3     1  UNL1        0.4202
     14 F           3.1129   -4.0942   18.8642 F       1  UNL1       -0.1876
     15 F           4.8991   -5.9290   18.4248 F       1  UNL1       -0.1876
     16 C           3.7442   -0.3966   22.6390 C.ar    1  UNL1        0.0792
     17 C           2.8983   -1.2941   21.7853 C.ar    1  UNL1        0.0175
     18 C           1.8888   -0.7030   20.8463 C.ar    1  UNL1        0.0142
     19 C           1.7253    0.7856   20.7610 C.ar    1  UNL1        0.0768
     20 CL          0.7159    1.3767   19.8221 Cl      1  UNL1       -0.0806
     21 C           2.5713    1.6831   21.6147 C.ar    1  UNL1        0.1098
     22 N           3.5807    1.0921   22.5537 N.ar    1  UNL1       -0.2454
     23 O           5.6891   -3.6735   24.1249 O.2     1  UNL1       -0.2528
     24 C           5.9968   -3.0604   24.5310 C.2     1  UNL1        0.3011
     25 N           7.0063   -3.6514   25.4700 N.am    1  UNL1       -0.2906
     26 N           5.7631   -1.5787   24.5168 N.am    1  UNL1       -0.2834
     27 H           7.5154   -3.0669   26.0769 H       1  UNL1        0.1509
     28 H           6.2722   -0.9942   25.1238 H       1  UNL1        0.1515
     29 C           7.2400   -5.1331   25.4842 C.3     1  UNL1        0.0730
     30 C           6.7508   -6.0928   26.5280 C.3     1  UNL1        0.0196
     31 C           7.2125   -7.4680   26.1460 C.3     1  UNL1        0.0017
     32 C           7.9869   -7.3581   24.8661 C.3     1  UNL1        0.0017
     33 C           8.0039   -5.9151   24.4570 C.3     1  UNL1        0.0196
     34 C           3.6979   -1.1091   24.6364 C.3     1  UNL1        0.0544
     35 C           3.8977   -0.4584   25.9732 C.ar    1  UNL1       -0.0199
     36 C           3.6680   -1.2427   27.2309 C.ar    1  UNL1       -0.0042
     37 C           3.8678   -0.5920   28.5675 C.ar    1  UNL1       -0.0003
     38 C           4.2972    0.8431   28.6464 C.ar    1  UNL1       -0.0000
     39 C           4.5269    1.6274   27.3886 C.ar    1  UNL1       -0.0003
     40 C           4.3271    0.9767   26.0520 C.ar    1  UNL1       -0.0042
@<TRIPOS>BOND
     1    23    24    2
     2    24    25   am
     3    25    29    1
     4    29    30    1
     5    30    31    1
     6    31    32    1
     7    32    33    1
     8    24    26   am
     9    26     1    1
    10     1    34    1
    11    34    35    1
    12    35    36   ar
    13    36    37   ar
    14    37    38   ar
    15    38    39   ar
    16    39    40   ar
    17     1     2    1
    18     2     3   ar
    19     3     4   ar
    20     4     5    1
    21     4     6   ar
    22     6     7   ar
    23     7     9    1
    24     9    10    1
    25    10    11    1
    26    10    12    1
    27    10    13    1
    28    13    14    1
    29    13    15    1
    30     7     8   ar
    31     1    16    1
    32    16    17   ar
    33    17    18   ar
    34    18    19   ar
    35    19    20    1
    36    19    21   ar
    37    21    22   ar
    38    33    29    1
    39    40    35   ar
    40     8     2   ar
    41    22    16   ar
    42    25    27    1
    43    26    28    1
@<TRIPOS>MOLECULE
*****
 40 43 0 0 0
SMALL
GASTEIGER

@<TRIPOS>ATOM
      1 C           5.2693   -1.0484   26.8857 C.3     1  UNL1        0.1165
      2 C           4.3388   -0.7438   28.0222 C.ar    1  UNL1        0.0046
      3 C           2.8560   -0.8630   27.8300 C.ar    1  UNL1        0.0275
      4 C           1.9255   -0.5585   28.9664 C.ar    1  UNL1        0.1429
      5 F           0.4427   -0.6778   28.7742 F       1  UNL1       -0.2041
      6 C           2.4779   -0.1347   30.2950 C.ar    1  UNL1        0.0667
      7 C           3.9608   -0.0154   30.4872 C.ar    1  UNL1        0.1461
      8 C           4.8912   -0.3200   29.3508 C.ar    1  UNL1        0.0349
      9 O           4.5132    0.4085   31.8159 O.3     1  UNL1       -0.4263
     10 C           4.4367   -0.5208   32.9908 C.3     1  UNL1        0.4723
     11 F           5.6034   -1.2957   32.4539 F       1  UNL1       -0.1579
     12 F           3.2700    0.2541   33.5278 F       1  UNL1       -0.1579
     13 C           4.3603   -1.4501   34.1658 C.3     1  UNL1        0.4202
     14 F           4.6057   -0.9295   35.5509 F       1  UNL1       -0.1876
     15 F           4.0383   -2.9000   33.9556 F       1  UNL1       -0.1876
     16 C           5.4580    0.4204   26.6466 C.ar    1  UNL1        0.0792
     17 C           4.3143    1.2517   26.1456 C.ar    1  UNL1        0.0175
     18 C           4.5031    2.7205   25.9065 C.ar    1  UNL1        0.0142
     19 C           5.8354    3.3579   26.1685 C.ar    1  UNL1        0.0768
     20 CL          6.0241    4.8267   25.9294 Cl      1  UNL1       -0.0806
     21 C           6.9790    2.5266   26.6695 C.ar    1  UNL1        0.1098
     22 N           6.7903    1.0578   26.9085 N.ar    1  UNL1       -0.2454
     23 O           6.8050   -3.0994   28.2358 O.2     1  UNL1       -0.2528
     24 C           6.1128   -3.2911   27.8900 C.2     1  UNL1        0.3011
     25 N           5.9242   -4.7598   28.1291 N.am    1  UNL1       -0.2906
     26 N           5.0806   -2.5171   27.1248 N.am    1  UNL1       -0.2834
     27 H           5.1229   -5.2158   27.7838 H       1  UNL1        0.1509
     28 H           4.2793   -2.9731   26.7795 H       1  UNL1        0.1515
     29 C           6.9564   -5.5339   28.8943 C.3     1  UNL1        0.0730
     30 C           7.0552   -5.6342   30.3876 C.3     1  UNL1        0.0196
     31 C           8.2309   -6.5058   30.7168 C.3     1  UNL1        0.0017
     32 C           8.8586   -6.9440   29.4268 C.3     1  UNL1        0.0017
     33 C           8.0709   -6.3433   28.3005 C.3     1  UNL1        0.0196
     34 C           6.1997   -1.3529   25.7493 C.3     1  UNL1        0.0544
     35 C           5.6798   -2.0274   24.5144 C.ar    1  UNL1       -0.0199
     36 C           6.3851   -3.2314   23.9641 C.ar    1  UNL1       -0.0042
     37 C           5.8652   -3.9059   22.7293 C.ar    1  UNL1       -0.0003
     38 C           4.6400   -3.3763   22.0448 C.ar    1  UNL1       -0.0000
     39 C           3.9348   -2.1723   22.5951 C.ar    1  UNL1       -0.0003
     40 C           4.4547   -1.4978   23.8299 C.ar    1  UNL1       -0.0042
@<TRIPOS>BOND
     1    23    24    2
     2    24    25   am
     3    25    29    1
     4    29    30    1
     5    30    31    1
     6    31    32    1
     7    32    33    1
     8    24    26   am
     9    26     1    1
    10     1    34    1
    11    34    35    1
    12    35    36   ar
    13    36    37   ar
    14    37    38   ar
    15    38    39   ar
    16    39    40   ar
    17     1     2    1
    18     2     3   ar
    19     3     4   ar
    20     4     5    1
    21     4     6   ar
    22     6     7   ar
    23     7     9    1
    24     9    10    1
    25    10    11    1
    26    10    12    1
    27    10    13    1
    28    13    14    1
    29    13    15    1
    30     7     8   ar
    31     1    16    1
    32    16    17   ar
    33    17    18   ar
    34    18    19   ar
    35    19    20    1
    36    19    21   ar
    37    21    22   ar
    38    33    29    1
    39    40    35   ar
    40     8     2   ar
    41    22    16   ar
    42    25    27    1
    43    26    28    1
@<TRIPOS>MOLECULE
*****
 40 43 0 0 0
SMALL
GASTEIGER

@<TRIPOS>ATOM
      1 C          -0.3223    3.2303   21.1231 C.3     1  UNL1        0.1165
      2 C          -0.5330    3.8181   22.4870 C.ar    1  UNL1        0.0046
      3 C          -0.4115    5.2990   22.6924 C.ar    1  UNL1        0.0275
      4 C          -0.6221    5.8868   24.0562 C.ar    1  UNL1        0.1429
      5 F          -0.5006    7.3677   24.2616 F       1  UNL1       -0.2041
      6 C          -0.9543    4.9938   25.2147 C.ar    1  UNL1        0.0667
      7 C          -1.0758    3.5129   25.0093 C.ar    1  UNL1        0.1461
      8 C          -0.8652    2.9250   23.6455 C.ar    1  UNL1        0.0349
      9 O          -1.4080    2.6198   26.1678 O.3     1  UNL1       -0.4263
     10 C          -0.3143    1.8905   26.8903 C.3     1  UNL1        0.4723
     11 F          -0.4038    0.7712   25.8958 F       1  UNL1       -0.1579
     12 F          -0.2249    3.0098   27.8848 F       1  UNL1       -0.1579
     13 C           0.7793    1.1612   27.6128 C.3     1  UNL1        0.4202
     14 F           0.4697   -0.0969   28.3687 F       1  UNL1       -0.1876
     15 F           2.1827    1.6900   27.5793 F       1  UNL1       -0.1876
     16 C           1.0459    3.8427   21.0706 C.ar    1  UNL1        0.0792
     17 C           2.1214    3.3563   21.9962 C.ar    1  UNL1        0.0175
     18 C           3.4897    3.9688   21.9437 C.ar    1  UNL1        0.0142
     19 C           3.7825    5.0675   20.9655 C.ar    1  UNL1        0.0768
     20 CL          5.1508    5.6800   20.9129 Cl      1  UNL1       -0.0806
     21 C           2.7070    5.5539   20.0398 C.ar    1  UNL1        0.1098
     22 N           1.3388    4.9415   20.0923 N.ar    1  UNL1       -0.2454
     23 O          -2.9607    4.0802   20.2837 O.2     1  UNL1       -0.2528
     24 C          -2.8694    3.3676   20.6293 C.2     1  UNL1        0.3011
     25 N          -4.2376    2.7552   20.6818 N.am    1  UNL1       -0.2906
     26 N          -1.6906    2.6179   21.1757 N.am    1  UNL1       -0.2834
     27 H          -4.3620    1.8612   21.0749 H       1  UNL1        0.1509
     28 H          -1.8150    1.7239   21.5688 H       1  UNL1        0.1515
     29 C          -5.4164    3.5050   20.1354 C.3     1  UNL1        0.0730
     30 C          -6.1992    4.5628   20.8553 C.3     1  UNL1        0.0196
     31 C          -7.2859    5.0401   19.9380 C.3     1  UNL1        0.0017
     32 C          -7.1747    4.2772   18.6513 C.3     1  UNL1        0.0017
     33 C          -6.0192    3.3285   18.7733 C.3     1  UNL1        0.0196
     34 C          -0.1116    2.6425   19.7593 C.3     1  UNL1        0.0544
     35 C           0.8210    1.4816   19.5788 C.ar    1  UNL1       -0.0199
     36 C           0.6505    0.2460   20.4120 C.ar    1  UNL1       -0.0042
     37 C           1.5831   -0.9148   20.2315 C.ar    1  UNL1       -0.0003
     38 C           2.6862   -0.8402   19.2178 C.ar    1  UNL1       -0.0000
     39 C           2.8566    0.3954   18.3846 C.ar    1  UNL1       -0.0003
     40 C           1.9241    1.5563   18.5651 C.ar    1  UNL1       -0.0042
@<TRIPOS>BOND
     1    23    24    2
     2    24    25   am
     3    25    29    1
     4    29    30    1
     5    30    31    1
     6    31    32    1
     7    32    33    1
     8    24    26   am
     9    26     1    1
    10     1    34    1
    11    34    35    1
    12    35    36   ar
    13    36    37   ar
    14    37    38   ar
    15    38    39   ar
    16    39    40   ar
    17     1     2    1
    18     2     3   ar
    19     3     4   ar
    20     4     5    1
    21     4     6   ar
    22     6     7   ar
    23     7     9    1
    24     9    10    1
    25    10    11    1
    26    10    12    1
    27    10    13    1
    28    13    14    1
    29    13    15    1
    30     7     8   ar
    31     1    16    1
    32    16    17   ar
    33    17    18   ar
    34    18    19   ar
    35    19    20    1
    36    19    21   ar
    37    21    22   ar
    38    33    29    1
    39    40    35   ar
    40     8     2   ar
    41    22    16   ar
    42    25    27    1
    43    26    28    1
@<TRIPOS>MOLECULE
*****
 40 43 0 0 0
SMALL
GASTEIGER

@<TRIPOS>ATOM
      1 C          -9.1087  -18.6626   21.3452 C.3     1  UNL1        0.1165
      2 C          -8.7475  -17.2542   21.7142 C.ar    1  UNL1        0.0046
      3 C          -9.0908  -16.1249   20.7886 C.ar    1  UNL1        0.0275
      4 C          -8.7296  -14.7166   21.1575 C.ar    1  UNL1        0.1429
      5 F          -9.0729  -13.5872   20.2320 F       1  UNL1       -0.2041
      6 C          -8.0251  -14.4376   22.4520 C.ar    1  UNL1        0.0667
      7 C          -7.6818  -15.5669   23.3776 C.ar    1  UNL1        0.1461
      8 C          -8.0430  -16.9753   23.0087 C.ar    1  UNL1        0.0349
      9 O          -6.9772  -15.2879   24.6722 O.3     1  UNL1       -0.4263
     10 C          -7.7071  -15.4476   25.9729 C.3     1  UNL1        0.4723
     11 F          -6.4195  -15.8121   26.6506 F       1  UNL1       -0.1579
     12 F          -8.9946  -15.0831   25.2952 F       1  UNL1       -0.1579
     13 C          -8.4369  -15.6073   27.2735 C.3     1  UNL1        0.4202
     14 F          -8.8469  -16.9724   27.7408 F       1  UNL1       -0.1876
     15 F          -8.7567  -14.4018   28.1070 F       1  UNL1       -0.1876
     16 C         -10.2152  -18.6440   22.3578 C.ar    1  UNL1        0.0792
     17 C         -11.5056  -17.9459   22.0459 C.ar    1  UNL1        0.0175
     18 C         -12.6121  -17.9273   23.0585 C.ar    1  UNL1        0.0142
     19 C         -12.4282  -18.6069   24.3829 C.ar    1  UNL1        0.0768
     20 CL        -13.5347  -18.5884   25.3956 Cl      1  UNL1       -0.0806
     21 C         -11.1377  -19.3051   24.6948 C.ar    1  UNL1        0.1098
     22 N         -10.0313  -19.3237   23.6823 N.ar    1  UNL1       -0.2454
     23 O          -6.2263  -18.9045   21.4918 O.2     1  UNL1       -0.2528
     24 C          -6.5780  -18.8268   20.7806 C.2     1  UNL1        0.3011
     25 N          -5.4715  -18.8454   19.7680 N.am    1  UNL1       -0.2906
     26 N          -8.0022  -18.6812   20.3327 N.am    1  UNL1       -0.2834
     27 H          -5.6800  -18.7620   18.8095 H       1  UNL1        0.1509
     28 H          -8.2107  -18.5978   19.3741 H       1  UNL1        0.1515
     29 C          -4.0473  -18.9910   20.2160 C.3     1  UNL1        0.0730
     30 C          -2.8687  -18.2459   19.6631 C.3     1  UNL1        0.0196
     31 C          -1.6446  -18.7017   20.4008 C.3     1  UNL1        0.0017
     32 C          -2.0669  -19.7284   21.4095 C.3     1  UNL1        0.0017
     33 C          -3.5518  -19.9072   21.2953 C.3     1  UNL1        0.0196
     34 C          -9.4699  -20.0709   20.9763 C.3     1  UNL1        0.0544
     35 C          -9.4011  -20.5123   19.5443 C.ar    1  UNL1       -0.0199
     36 C         -10.3616  -19.9494   18.5390 C.ar    1  UNL1       -0.0042
     37 C         -10.2927  -20.3908   17.1071 C.ar    1  UNL1       -0.0003
     38 C          -9.2634  -21.3950   16.6805 C.ar    1  UNL1       -0.0000
     39 C          -8.3029  -21.9579   17.6858 C.ar    1  UNL1       -0.0003
     40 C          -8.3718  -21.5165   19.1177 C.ar    1  UNL1       -0.0042
@<TRIPOS>BOND
     1    23    24    2
     2    24    25   am
     3    25    29    1
     4    29    30    1
     5    30    31    1
     6    31    32    1
     7    32    33    1
     8    24    26   am
     9    26     1    1
    10     1    34    1
    11    34    35    1
    12    35    36   ar
    13    36    37   ar
    14    37    38   ar
    15    38    39   ar
    16    39    40   ar
    17     1     2    1
    18     2     3   ar
    19     3     4   ar
    20     4     5    1
    21     4     6   ar
    22     6     7   ar
    23     7     9    1
    24     9    10    1
    25    10    11    1
    26    10    12    1
    27    10    13    1
    28    13    14    1
    29    13    15    1
    30     7     8   ar
    31     1    16    1
    32    16    17   ar
    33    17    18   ar
    34    18    19   ar
    35    19    20    1
    36    19    21   ar
    37    21    22   ar
    38    33    29    1
    39    40    35   ar
    40     8     2   ar
    41    22    16   ar
    42    25    27    1
    43    26    28    1
@<TRIPOS>MOLECULE
*****
 40 43 0 0 0
SMALL
GASTEIGER

@<TRIPOS>ATOM
      1 C           6.2062   -2.5554   26.6664 C.3     1  UNL1        0.1165
      2 C           6.0962   -2.1257   25.2334 C.ar    1  UNL1        0.0046
      3 C           6.8640   -0.9323   24.7472 C.ar    1  UNL1        0.0275
      4 C           6.7540   -0.5027   23.3143 C.ar    1  UNL1        0.1429
      5 F           7.5218    0.6907   22.8281 F       1  UNL1       -0.2041
      6 C           5.8763   -1.2664   22.3676 C.ar    1  UNL1        0.0667
      7 C           5.1085   -2.4598   22.8538 C.ar    1  UNL1        0.1461
      8 C           5.2185   -2.8894   24.2867 C.ar    1  UNL1        0.0349
      9 O           4.2308   -3.2235   21.9070 O.3     1  UNL1       -0.4263
     10 C           4.6975   -3.4991   20.5084 C.3     1  UNL1        0.4723
     11 F           5.9409   -4.1402   21.0497 F       1  UNL1       -0.1579
     12 F           3.4541   -2.8581   19.9671 F       1  UNL1       -0.1579
     13 C           5.1642   -3.7748   19.1098 C.3     1  UNL1        0.4202
     14 F           6.1643   -2.8651   18.4599 F       1  UNL1       -0.1876
     15 F           4.6309   -4.9602   18.3611 F       1  UNL1       -0.1876
     16 C           6.8147   -3.8551   26.2299 C.ar    1  UNL1        0.0792
     17 C           6.3317   -5.1457   26.8222 C.ar    1  UNL1        0.0175
     18 C           6.9402   -6.4455   26.3857 C.ar    1  UNL1        0.0142
     19 C           8.0318   -6.4545   25.3569 C.ar    1  UNL1        0.0768
     20 CL          8.6403   -7.7542   24.9204 Cl      1  UNL1       -0.0806
     21 C           8.5148   -5.1638   24.7646 C.ar    1  UNL1        0.1098
     22 N           7.9063   -3.8641   25.2011 N.ar    1  UNL1       -0.2454
     23 O           3.5115   -1.6707   27.2526 O.2     1  UNL1       -0.2528
     24 C           4.1166   -1.1559   27.3182 C.2     1  UNL1        0.3011
     25 N           3.5081    0.1438   27.7547 N.am    1  UNL1       -0.2906
     26 N           5.5977   -1.2557   27.1028 N.am    1  UNL1       -0.2834
     27 H           4.0808    0.9313   27.8998 H       1  UNL1        0.1509
     28 H           6.1704   -0.4682   27.2479 H       1  UNL1        0.1515
     29 C           2.0269    0.2436   27.9701 C.3     1  UNL1        0.0730
     30 C           1.2675   -0.3050   29.1415 C.3     1  UNL1        0.0196
     31 C          -0.1836    0.0219   28.9473 C.3     1  UNL1        0.0017
     32 C          -0.3208    0.7725   27.6558 C.3     1  UNL1        0.0017
     33 C           1.0454    0.9095   27.0519 C.3     1  UNL1        0.0196
     34 C           6.3162   -2.9851   28.0993 C.3     1  UNL1        0.0544
     35 C           7.2277   -2.2482   29.0354 C.ar    1  UNL1       -0.0199
     36 C           6.7443   -1.8578   30.4006 C.ar    1  UNL1       -0.0042
     37 C           7.6557   -1.1210   31.3367 C.ar    1  UNL1       -0.0003
     38 C           9.0506   -0.7745   30.9075 C.ar    1  UNL1       -0.0000
     39 C           9.5341   -1.1648   29.5423 C.ar    1  UNL1       -0.0003
     40 C           8.6226   -1.9017   28.6062 C.ar    1  UNL1       -0.0042
@<TRIPOS>BOND
     1    23    24    2
     2    24    25   am
     3    25    29    1
     4    29    30    1
     5    30    31    1
     6    31    32    1
     7    32    33    1
     8    24    26   am
     9    26     1    1
    10     1    34    1
    11    34    35    1
    12    35    36   ar
    13    36    37   ar
    14    37    38   ar
    15    38    39   ar
    16    39    40   ar
    17     1     2    1
    18     2     3   ar
    19     3     4   ar
    20     4     5    1
    21     4     6   ar
    22     6     7   ar
    23     7     9    1
    24     9    10    1
    25    10    11    1
    26    10    12    1
    27    10    13    1
    28    13    14    1
    29    13    15    1
    30     7     8   ar
    31     1    16    1
    32    16    17   ar
    33    17    18   ar
    34    18    19   ar
    35    19    20    1
    36    19    21   ar
    37    21    22   ar
    38    33    29    1
    39    40    35   ar
    40     8     2   ar
    41    22    16   ar
    42    25    27    1
    43    26    28    1
@<TRIPOS>MOLECULE
*****
 40 43 0 0 0
SMALL
GASTEIGER

@<TRIPOS>ATOM
      1 C          -2.3289    4.1182   21.3322 C.3     1  UNL1        0.1165
      2 C          -1.6445    4.7935   22.4835 C.ar    1  UNL1        0.0046
      3 C          -0.6800    5.9140   22.2300 C.ar    1  UNL1        0.0275
      4 C           0.0044    6.5894   23.3813 C.ar    1  UNL1        0.1429
      5 F           0.9688    7.7099   23.1278 F       1  UNL1       -0.2041
      6 C          -0.2757    6.1442   24.7860 C.ar    1  UNL1        0.0667
      7 C          -1.2401    5.0237   25.0395 C.ar    1  UNL1        0.1461
      8 C          -1.9245    4.3483   23.8883 C.ar    1  UNL1        0.0349
      9 O          -1.5201    4.5785   26.4444 O.3     1  UNL1       -0.4263
     10 C          -1.2455    3.1610   26.8508 C.3     1  UNL1        0.4723
     11 F           0.2291    3.4278   26.7846 F       1  UNL1       -0.1579
     12 F          -2.7201    2.8943   26.9170 F       1  UNL1       -0.1579
     13 C          -0.9708    1.7435   27.2572 C.3     1  UNL1        0.4202
     14 F          -1.8107    1.0903   28.3145 F       1  UNL1       -0.1876
     15 F           0.1437    0.9792   26.6062 F       1  UNL1       -0.1876
     16 C          -3.6626    4.4139   21.9516 C.ar    1  UNL1        0.0792
     17 C          -4.5427    3.2890   22.4100 C.ar    1  UNL1        0.0175
     18 C          -5.8765    3.5849   23.0294 C.ar    1  UNL1        0.0142
     19 C          -6.3301    5.0055   23.1905 C.ar    1  UNL1        0.0768
     20 CL         -7.6639    5.3013   23.8099 Cl      1  UNL1       -0.0806
     21 C          -5.4500    6.1304   22.7321 C.ar    1  UNL1        0.1098
     22 N          -4.1163    5.8346   22.1127 N.ar    1  UNL1       -0.2454
     23 O          -0.5635    1.8223   21.3131 O.2     1  UNL1       -0.2528
     24 C          -0.3534    2.4823   20.9184 C.2     1  UNL1        0.3011
     25 N           0.9803    2.1865   20.2990 N.am    1  UNL1       -0.2906
     26 N          -0.9952    3.8224   20.7128 N.am    1  UNL1       -0.2834
     27 H           1.4344    2.8719   19.7575 H       1  UNL1        0.1509
     28 H          -0.5411    4.5078   20.1713 H       1  UNL1        0.1515
     29 C           1.6222    0.8464   20.5046 C.3     1  UNL1        0.0730
     30 C           2.4058    0.4199   21.7104 C.3     1  UNL1        0.0196
     31 C           2.8610   -0.9926   21.4915 C.3     1  UNL1        0.0017
     32 C           2.3587   -1.4389   20.1504 C.3     1  UNL1        0.0017
     33 C           1.5930   -0.3024   19.5405 C.3     1  UNL1        0.0196
     34 C          -3.0134    3.4429   20.1809 C.3     1  UNL1        0.0544
     35 C          -3.5345    4.2586   19.0350 C.ar    1  UNL1       -0.0199
     36 C          -4.7809    3.8331   18.3172 C.ar    1  UNL1       -0.0042
     37 C          -5.3020    4.6489   17.1713 C.ar    1  UNL1       -0.0003
     38 C          -4.5766    5.8901   16.7433 C.ar    1  UNL1       -0.0000
     39 C          -3.3302    6.3156   17.4612 C.ar    1  UNL1       -0.0003
     40 C          -2.8092    5.4999   18.6070 C.ar    1  UNL1       -0.0042
@<TRIPOS>BOND
     1    23    24    2
     2    24    25   am
     3    25    29    1
     4    29    30    1
     5    30    31    1
     6    31    32    1
     7    32    33    1
     8    24    26   am
     9    26     1    1
    10     1    34    1
    11    34    35    1
    12    35    36   ar
    13    36    37   ar
    14    37    38   ar
    15    38    39   ar
    16    39    40   ar
    17     1     2    1
    18     2     3   ar
    19     3     4   ar
    20     4     5    1
    21     4     6   ar
    22     6     7   ar
    23     7     9    1
    24     9    10    1
    25    10    11    1
    26    10    12    1
    27    10    13    1
    28    13    14    1
    29    13    15    1
    30     7     8   ar
    31     1    16    1
    32    16    17   ar
    33    17    18   ar
    34    18    19   ar
    35    19    20    1
    36    19    21   ar
    37    21    22   ar
    38    33    29    1
    39    40    35   ar
    40     8     2   ar
    41    22    16   ar
    42    25    27    1
    43    26    28    1
