@<TRIPOS>MOLECULE
*****
 45 49 0 0 0
SMALL
GASTEIGER

@<TRIPOS>ATOM
      1 O          -2.2240    3.9483   22.1061 O.2     1  UNL1       -0.2724
      2 C          -1.3538    3.9710   23.3277 C.2     1  UNL1        0.2498
      3 N          -0.1949    3.0252   23.4407 N.am    1  UNL1       -0.2773
      4 C           0.7578    2.9323   24.5955 C.3     1  UNL1        0.0956
      5 C           1.7562    1.8560   24.2873 C.3     1  UNL1        0.0496
      6 C           1.4203    1.2839   22.9420 C.3     1  UNL1        0.1514
      7 C           2.0569    0.1981   22.1258 C.ar    1  UNL1       -0.0046
      8 C           3.2627   -0.5245   22.6490 C.ar    1  UNL1       -0.0032
      9 C           3.8992   -1.6101   21.8328 C.ar    1  UNL1       -0.0015
     10 C           3.3298   -1.9732   20.4933 C.ar    1  UNL1        0.0232
     11 C           2.1240   -1.2506   19.9701 C.ar    1  UNL1       -0.0057
     12 C           1.4875   -0.1649   20.7863 C.ar    1  UNL1       -0.0247
     13 C           0.2816    0.5578   20.2632 C.3     1  UNL1        0.0278
     14 C          -0.3548    1.6434   21.0794 C.3     1  UNL1        0.0265
     15 C           0.2145    2.0065   22.4188 C.3     1  UNL1        0.1002
     16 C          -1.6424    4.9393   24.4362 C.3     1  UNL1        0.1597
     17 O          -0.5354    5.6690   23.7347 O.3     1  UNL1       -0.3780
     18 C          -2.6491    3.8734   24.7528 C.3     1  UNL1        0.0612
     19 C          -3.5600    4.0292   25.9343 C.3     1  UNL1        0.1537
     20 S          -3.4642    5.2510   26.7994 S.O2    1  UNL1       -0.0098
     21 O          -3.7528    6.2193   27.9079 O.2     1  UNL1       -0.1730
     22 O          -4.5712    4.5213   27.5009 O.2     1  UNL1       -0.1730
     23 C          -2.4575    6.3169   26.4828 C.3     1  UNL1        0.1537
     24 C          -1.5466    6.1611   25.3013 C.3     1  UNL1        0.0612
     25 H          -0.2371    5.1484   22.9726 H       1  UNL1        0.2109
     26 S           2.6155    0.6526   23.5924 S.O2    1  UNL1        0.0106
     27 O           2.3120    0.0362   23.9966 O.2     1  UNL1       -0.1684
     28 O           3.5021    1.6906   22.9709 O.2     1  UNL1       -0.1684
     29 C           3.8107    0.0214   24.2429 C.ar    1  UNL1        0.1061
     30 C           5.1848    0.5553   23.9659 C.ar    1  UNL1        0.0207
     31 C           6.3799   -0.0759   24.6163 C.ar    1  UNL1        0.0310
     32 C           6.2010   -1.2411   25.5438 C.ar    1  UNL1        0.1402
     33 F           7.3962   -1.8724   26.1943 F       1  UNL1       -0.2042
     34 C           4.8269   -1.7751   25.8209 C.ar    1  UNL1        0.0310
     35 C           3.6318   -1.1438   25.1705 C.ar    1  UNL1        0.0207
     36 C           3.9663   -3.0589   19.6771 C.3     1  UNL1        0.3242
     37 F           2.6095   -3.6086   19.3503 F       1  UNL1       -0.2176
     38 C           4.6028   -4.1445   18.8610 C.3     1  UNL1        0.4363
     39 F           5.2393   -5.2302   18.0447 F       1  UNL1       -0.1666
     40 F           3.9037   -5.1792   19.6920 F       1  UNL1       -0.1666
     41 F           5.3743   -3.2500   17.9365 F       1  UNL1       -0.1666
     42 C           5.3231   -2.5092   20.0040 C.3     1  UNL1        0.4363
     43 F           6.6800   -1.9595   20.3309 F       1  UNL1       -0.1666
     44 F           5.1483   -1.1793   19.3327 F       1  UNL1       -0.1666
     45 F           5.9841   -3.6108   20.7784 F       1  UNL1       -0.1666
@<TRIPOS>BOND
     1     1     2    2
     2     2     3   am
     3     3     4    1
     4     4     5    1
     5     5     6    1
     6     6    26    1
     7    26    27    2
     8    26    28    2
     9    26    29    1
    10    29    30   ar
    11    30    31   ar
    12    31    32   ar
    13    32    33    1
    14    32    34   ar
    15    34    35   ar
    16     6     7    1
    17     7     8   ar
    18     8     9   ar
    19     9    10   ar
    20    10    36    1
    21    36    37    1
    22    36    38    1
    23    38    39    1
    24    38    40    1
    25    38    41    1
    26    36    42    1
    27    42    43    1
    28    42    44    1
    29    42    45    1
    30    10    11   ar
    31    11    12   ar
    32    12    13    1
    33    13    14    1
    34    15    14    1
    35     2    16    1
    36    16    17    1
    37    16    18    1
    38    18    19    1
    39    19    20    1
    40    20    21    2
    41    20    22    2
    42    20    23    1
    43    23    24    1
    44    15     3    1
    45    24    16    1
    46    15     6    1
    47    35    29   ar
    48    12     7   ar
    49    17    25    1
@<TRIPOS>MOLECULE
*****
 45 49 0 0 0
SMALL
GASTEIGER

@<TRIPOS>ATOM
      1 O           2.3578    0.3032   18.5939 O.2     1  UNL1       -0.2724
      2 C           2.9635   -0.0546   19.9188 C.2     1  UNL1        0.2498
      3 N           2.3405    0.4463   21.1881 N.am    1  UNL1       -0.2773
      4 C           2.8311    0.1725   22.5789 C.3     1  UNL1        0.0956
      5 C           1.9113    0.8660   23.5397 C.3     1  UNL1        0.0496
      6 C           0.8524    1.5683   22.7427 C.3     1  UNL1        0.1514
      7 C          -0.3193    2.4105   23.1527 C.ar    1  UNL1       -0.0046
      8 C          -0.5845    2.6699   24.6061 C.ar    1  UNL1       -0.0032
      9 C          -1.7560    3.5120   25.0161 C.ar    1  UNL1       -0.0015
     10 C          -2.6624    4.0949   23.9726 C.ar    1  UNL1        0.0232
     11 C          -2.3972    3.8356   22.5192 C.ar    1  UNL1       -0.0057
     12 C          -1.2256    2.9934   22.1093 C.ar    1  UNL1       -0.0247
     13 C          -0.9604    2.7340   20.6558 C.3     1  UNL1        0.0278
     14 C           0.2112    1.8918   20.2459 C.3     1  UNL1        0.0265
     15 C           1.1176    1.3089   21.2894 C.3     1  UNL1        0.1002
     16 C           4.1921   -0.9133   19.9744 C.3     1  UNL1        0.1597
     17 O           4.8164    0.4437   20.1113 O.3     1  UNL1       -0.3780
     18 C           3.1411   -1.9721   19.8182 C.3     1  UNL1        0.0612
     19 C           3.5356   -3.4183   19.7651 C.3     1  UNL1        0.1537
     20 S           4.9810   -3.8059   19.8683 S.O2    1  UNL1       -0.0098
     21 O           6.2096   -4.6645   19.9239 O.2     1  UNL1       -0.1730
     22 O           4.3567   -5.1628   19.7314 O.2     1  UNL1       -0.1730
     23 C           6.0320   -2.7471   20.0245 C.3     1  UNL1        0.1537
     24 C           5.6375   -1.3008   20.0775 C.3     1  UNL1        0.0612
     25 H           4.1233    1.1220   20.0916 H       1  UNL1        0.2109
     26 S           0.7140    1.7402   24.2264 S.O2    1  UNL1        0.0106
     27 O           0.2503    1.1310   24.4488 O.2     1  UNL1       -0.1684
     28 O           1.5787    2.9643   24.1653 O.2     1  UNL1       -0.1684
     29 C           0.5757    1.9121   25.7102 C.ar    1  UNL1        0.1061
     30 C           1.2869    3.0353   26.4045 C.ar    1  UNL1        0.0207
     31 C           1.1486    3.2073   27.8882 C.ar    1  UNL1        0.0310
     32 C           0.2990    2.2558   28.6775 C.ar    1  UNL1        0.1402
     33 F           0.1606    2.4277   30.1612 F       1  UNL1       -0.2042
     34 C          -0.4123    1.1325   27.9830 C.ar    1  UNL1        0.0310
     35 C          -0.2739    0.9606   26.4994 C.ar    1  UNL1        0.0207
     36 C          -3.8340    4.9371   24.3826 C.3     1  UNL1        0.3242
     37 F          -2.9252    5.8002   25.2066 F       1  UNL1       -0.2176
     38 C          -5.0055    5.7793   24.7926 C.3     1  UNL1        0.4363
     39 F          -6.1771    6.6216   25.2027 F       1  UNL1       -0.1666
     40 F          -4.3023    7.0038   24.2867 F       1  UNL1       -0.1666
     41 F          -5.8464    4.6666   25.3448 F       1  UNL1       -0.1666
     42 C          -4.7429    4.0741   23.5586 C.3     1  UNL1        0.4363
     43 F          -5.6518    3.2109   22.7346 F       1  UNL1       -0.1666
     44 F          -5.1551    5.1291   22.5754 F       1  UNL1       -0.1666
     45 F          -4.6681    2.7309   24.2223 F       1  UNL1       -0.1666
@<TRIPOS>BOND
     1     1     2    2
     2     2     3   am
     3     3     4    1
     4     4     5    1
     5     5     6    1
     6     6    26    1
     7    26    27    2
     8    26    28    2
     9    26    29    1
    10    29    30   ar
    11    30    31   ar
    12    31    32   ar
    13    32    33    1
    14    32    34   ar
    15    34    35   ar
    16     6     7    1
    17     7     8   ar
    18     8     9   ar
    19     9    10   ar
    20    10    36    1
    21    36    37    1
    22    36    38    1
    23    38    39    1
    24    38    40    1
    25    38    41    1
    26    36    42    1
    27    42    43    1
    28    42    44    1
    29    42    45    1
    30    10    11   ar
    31    11    12   ar
    32    12    13    1
    33    13    14    1
    34    15    14    1
    35     2    16    1
    36    16    17    1
    37    16    18    1
    38    18    19    1
    39    19    20    1
    40    20    21    2
    41    20    22    2
    42    20    23    1
    43    23    24    1
    44    15     3    1
    45    24    16    1
    46    15     6    1
    47    35    29   ar
    48    12     7   ar
    49    17    25    1
@<TRIPOS>MOLECULE
*****
 45 49 0 0 0
SMALL
GASTEIGER

@<TRIPOS>ATOM
      1 O           7.3405   -4.5946   23.1344 O.2     1  UNL1       -0.2724
      2 C           6.1420   -3.7175   22.9238 C.2     1  UNL1        0.2498
      3 N           5.5870   -2.9190   24.0659 N.am    1  UNL1       -0.2773
      4 C           4.4004   -2.0032   24.0070 C.3     1  UNL1        0.0956
      5 C           4.2012   -1.4144   25.3722 C.3     1  UNL1        0.0496
      6 C           5.2646   -1.9662   26.2747 C.3     1  UNL1        0.1514
      7 C           5.5636   -1.7421   27.7274 C.ar    1  UNL1       -0.0046
      8 C           4.7071   -0.8122   28.5347 C.ar    1  UNL1       -0.0032
      9 C           5.0062   -0.5881   29.9873 C.ar    1  UNL1       -0.0015
     10 C           6.1618   -1.2939   30.6328 C.ar    1  UNL1        0.0232
     11 C           7.0182   -2.2238   29.8255 C.ar    1  UNL1       -0.0057
     12 C           6.7192   -2.4479   28.3728 C.ar    1  UNL1       -0.0247
     13 C           7.5757   -3.3778   27.5655 C.3     1  UNL1        0.0278
     14 C           7.2766   -3.6019   26.1128 C.3     1  UNL1        0.0265
     15 C           6.1210   -2.8961   25.4674 C.3     1  UNL1        0.1002
     16 C           5.4986   -3.6388   21.5711 C.3     1  UNL1        0.1597
     17 O           4.4258   -4.3641   22.3280 O.3     1  UNL1       -0.3780
     18 C           6.7949   -2.9408   21.2840 C.3     1  UNL1        0.0612
     19 C           7.0752   -2.4160   19.9070 C.3     1  UNL1        0.1537
     20 S           6.0592   -2.5892   18.8171 S.O2    1  UNL1       -0.0098
     21 O           5.4158   -2.5105   17.4645 O.2     1  UNL1       -0.1730
     22 O           7.1321   -1.8639   18.0603 O.2     1  UNL1       -0.1730
     23 C           4.7629   -3.2871   19.1042 C.3     1  UNL1        0.1537
     24 C           4.4826   -3.8119   20.4812 C.3     1  UNL1        0.0612
     25 H           4.7081   -4.4912   23.2472 H       1  UNL1        0.2109
     26 S           4.3250   -1.0124   26.9509 S.O2    1  UNL1        0.0106
     27 O           3.7396   -1.4794   27.2243 O.2     1  UNL1       -0.1684
     28 O           5.2257    0.1312   26.5894 O.2     1  UNL1       -0.1684
     29 C           3.3853   -0.0585   27.6271 C.ar    1  UNL1        0.1061
     30 C           3.6656    1.4148   27.6020 C.ar    1  UNL1        0.0207
     31 C           2.7260    2.3687   28.2782 C.ar    1  UNL1        0.0310
     32 C           1.5061    1.8492   28.9796 C.ar    1  UNL1        0.1402
     33 F           0.5664    2.8031   29.6558 F       1  UNL1       -0.2042
     34 C           1.2258    0.3758   29.0047 C.ar    1  UNL1        0.0310
     35 C           2.1654   -0.5780   28.3285 C.ar    1  UNL1        0.0207
     36 C           6.4608   -1.0698   32.0855 C.3     1  UNL1        0.3242
     37 F           6.5828    0.4038   31.8330 F       1  UNL1       -0.2176
     38 C           6.7599   -0.8456   33.5382 C.3     1  UNL1        0.4363
     39 F           7.0589   -0.6214   34.9909 F       1  UNL1       -0.1666
     40 F           8.0293   -0.1377   33.1676 F       1  UNL1       -0.1666
     41 F           5.5363   -1.5208   34.0831 F       1  UNL1       -0.1666
     42 C           6.3389   -2.5433   32.3380 C.3     1  UNL1        0.4363
     43 F           6.2169   -4.0169   32.5905 F       1  UNL1       -0.1666
     44 F           7.7664   -2.7799   32.7330 F       1  UNL1       -0.1666
     45 F           4.8992   -2.8442   32.0431 F       1  UNL1       -0.1666
@<TRIPOS>BOND
     1     1     2    2
     2     2     3   am
     3     3     4    1
     4     4     5    1
     5     5     6    1
     6     6    26    1
     7    26    27    2
     8    26    28    2
     9    26    29    1
    10    29    30   ar
    11    30    31   ar
    12    31    32   ar
    13    32    33    1
    14    32    34   ar
    15    34    35   ar
    16     6     7    1
    17     7     8   ar
    18     8     9   ar
    19     9    10   ar
    20    10    36    1
    21    36    37    1
    22    36    38    1
    23    38    39    1
    24    38    40    1
    25    38    41    1
    26    36    42    1
    27    42    43    1
    28    42    44    1
    29    42    45    1
    30    10    11   ar
    31    11    12   ar
    32    12    13    1
    33    13    14    1
    34    15    14    1
    35     2    16    1
    36    16    17    1
    37    16    18    1
    38    18    19    1
    39    19    20    1
    40    20    21    2
    41    20    22    2
    42    20    23    1
    43    23    24    1
    44    15     3    1
    45    24    16    1
    46    15     6    1
    47    35    29   ar
    48    12     7   ar
    49    17    25    1
@<TRIPOS>MOLECULE
*****
 45 49 0 0 0
SMALL
GASTEIGER

@<TRIPOS>ATOM
      1 O           0.9280    0.5978   18.1761 O.2     1  UNL1       -0.2724
      2 C           1.7415    0.1459   19.3525 C.2     1  UNL1        0.2498
      3 N           1.4290    0.6656   20.7246 N.am    1  UNL1       -0.2773
      4 C           2.1511    0.3063   21.9892 C.3     1  UNL1        0.0956
      5 C           1.5079    1.0545   23.1189 C.3     1  UNL1        0.0496
      6 C           0.3882    1.8764   22.5525 C.3     1  UNL1        0.1514
      7 C          -0.5933    2.8126   23.1931 C.ar    1  UNL1       -0.0046
      8 C          -0.5445    3.0529   24.6729 C.ar    1  UNL1       -0.0032
      9 C          -1.5259    3.9890   25.3134 C.ar    1  UNL1       -0.0015
     10 C          -2.5562    4.6849   24.4741 C.ar    1  UNL1        0.0232
     11 C          -2.6050    4.4445   22.9943 C.ar    1  UNL1       -0.0057
     12 C          -1.6235    3.5084   22.3538 C.ar    1  UNL1       -0.0247
     13 C          -1.6723    3.2680   20.8740 C.3     1  UNL1        0.0278
     14 C          -0.6908    2.3319   20.2334 C.3     1  UNL1        0.0265
     15 C           0.3394    1.6360   21.0727 C.3     1  UNL1        0.1002
     16 C           2.8674   -0.8257   19.1572 C.3     1  UNL1        0.1597
     17 O           1.9857   -1.6285   20.0671 O.3     1  UNL1       -0.3780
     18 C           3.3581    0.3145   18.3151 C.3     1  UNL1        0.0612
     19 C           4.6686    0.2043   17.5936 C.3     1  UNL1        0.1537
     20 S           5.4884   -1.0461   17.7142 S.O2    1  UNL1       -0.0098
     21 O           6.6143   -2.0177   17.5188 O.2     1  UNL1       -0.1730
     22 O           6.3701   -0.2433   16.8042 O.2     1  UNL1       -0.1730
     23 C           4.9977   -2.1863   18.5563 C.3     1  UNL1        0.1537
     24 C           3.6872   -2.0761   19.2777 C.3     1  UNL1        0.0612
     25 H           1.1933   -1.1138   20.2864 H       1  UNL1        0.2109
     26 S           0.5582    2.0169   24.0362 S.O2    1  UNL1        0.0106
     27 O           0.1027    1.4366   24.3383 O.2     1  UNL1       -0.1684
     28 O           1.4839    3.1772   23.8204 O.2     1  UNL1       -0.1684
     29 C           0.7281    2.1573   25.5200 C.ar    1  UNL1        0.1061
     30 C           1.6835    3.1730   26.0726 C.ar    1  UNL1        0.0207
     31 C           1.8535    3.3135   27.5563 C.ar    1  UNL1        0.0310
     32 C           1.0680    2.4383   28.4873 C.ar    1  UNL1        0.1402
     33 F           1.2379    2.5788   29.9711 F       1  UNL1       -0.2042
     34 C           0.1125    1.4225   27.9347 C.ar    1  UNL1        0.0310
     35 C          -0.0574    1.2821   26.4510 C.ar    1  UNL1        0.0207
     36 C          -3.5377    5.6211   25.1147 C.3     1  UNL1        0.3242
     37 F          -3.2227    6.6597   24.0793 F       1  UNL1       -0.2176
     38 C          -4.5191    6.5572   25.7552 C.3     1  UNL1        0.4363
     39 F          -5.5006    7.4934   26.3958 F       1  UNL1       -0.1666
     40 F          -3.4474    7.6000   25.8732 F       1  UNL1       -0.1666
     41 F          -5.7025    5.6363   25.7162 F       1  UNL1       -0.1666
     42 C          -3.8527    4.5825   26.1501 C.3     1  UNL1        0.4363
     43 F          -4.1677    3.5438   27.1855 F       1  UNL1       -0.1666
     44 F          -3.3547    5.3513   27.3378 F       1  UNL1       -0.1666
     45 F          -4.4533    3.4556   25.3629 F       1  UNL1       -0.1666
@<TRIPOS>BOND
     1     1     2    2
     2     2     3   am
     3     3     4    1
     4     4     5    1
     5     5     6    1
     6     6    26    1
     7    26    27    2
     8    26    28    2
     9    26    29    1
    10    29    30   ar
    11    30    31   ar
    12    31    32   ar
    13    32    33    1
    14    32    34   ar
    15    34    35   ar
    16     6     7    1
    17     7     8   ar
    18     8     9   ar
    19     9    10   ar
    20    10    36    1
    21    36    37    1
    22    36    38    1
    23    38    39    1
    24    38    40    1
    25    38    41    1
    26    36    42    1
    27    42    43    1
    28    42    44    1
    29    42    45    1
    30    10    11   ar
    31    11    12   ar
    32    12    13    1
    33    13    14    1
    34    15    14    1
    35     2    16    1
    36    16    17    1
    37    16    18    1
    38    18    19    1
    39    19    20    1
    40    20    21    2
    41    20    22    2
    42    20    23    1
    43    23    24    1
    44    15     3    1
    45    24    16    1
    46    15     6    1
    47    35    29   ar
    48    12     7   ar
    49    17    25    1
@<TRIPOS>MOLECULE
*****
 45 49 0 0 0
SMALL
GASTEIGER

@<TRIPOS>ATOM
      1 O           1.9118    1.1050   19.4277 O.2     1  UNL1       -0.2724
      2 C           2.5583    0.5718   20.6717 C.2     1  UNL1        0.2498
      3 N           1.9734    0.8894   22.0161 N.am    1  UNL1       -0.2773
      4 C           2.5067    0.4296   23.3405 C.3     1  UNL1        0.0956
      5 C           1.6155    0.9786   24.4150 C.3     1  UNL1        0.0496
      6 C           0.5315    1.7777   23.7545 C.3     1  UNL1        0.1514
      7 C          -0.6285    2.5484   24.3117 C.ar    1  UNL1       -0.0046
      8 C          -0.8497    2.6036   25.7942 C.ar    1  UNL1       -0.0032
      9 C          -2.0097    3.3743   26.3513 C.ar    1  UNL1       -0.0015
     10 C          -2.9485    4.0899   25.4258 C.ar    1  UNL1        0.0232
     11 C          -2.7273    4.0348   23.9433 C.ar    1  UNL1       -0.0057
     12 C          -1.5674    3.2641   23.3862 C.ar    1  UNL1       -0.0247
     13 C          -1.3461    3.2089   21.9036 C.3     1  UNL1        0.0278
     14 C          -0.1862    2.4382   21.3465 C.3     1  UNL1        0.0265
     15 C           0.7527    1.7226   22.2720 C.3     1  UNL1        0.1002
     16 C           3.7895   -0.2791   20.5716 C.3     1  UNL1        0.1597
     17 O           4.3973    1.0019   21.0610 O.3     1  UNL1       -0.3780
     18 C           2.7541   -1.2646   20.1170 C.3     1  UNL1        0.0612
     19 C           3.1610   -2.6561   19.7322 C.3     1  UNL1        0.1537
     20 S           4.6034   -3.0622   19.8020 S.O2    1  UNL1       -0.0098
     21 O           5.8346   -3.9130   19.7018 O.2     1  UNL1       -0.1730
     22 O           3.9955   -4.3432   19.3126 O.2     1  UNL1       -0.1730
     23 C           5.6388   -2.0767   20.2566 C.3     1  UNL1        0.1537
     24 C           5.2318   -0.6851   20.6414 C.3     1  UNL1        0.0612
     25 H           3.7008    1.6671   21.1759 H       1  UNL1        0.2109
     26 S           0.4382    1.7428   25.2512 S.O2    1  UNL1        0.0106
     27 O          -0.0269    1.1129   25.4008 O.2     1  UNL1       -0.1684
     28 O           1.3168    2.9556   25.3343 O.2     1  UNL1       -0.1684
     29 C           0.3449    1.7078   26.7480 C.ar    1  UNL1        0.1061
     30 C           1.0585    2.7412   27.5682 C.ar    1  UNL1        0.0207
     31 C           0.9653    2.7063   29.0648 C.ar    1  UNL1        0.0310
     32 C           0.1583    1.6380   29.7413 C.ar    1  UNL1        0.1402
     33 F           0.0650    1.6031   31.2380 F       1  UNL1       -0.2042
     34 C          -0.5554    0.6046   28.9210 C.ar    1  UNL1        0.0310
     35 C          -0.4620    0.6396   27.4244 C.ar    1  UNL1        0.0207
     36 C          -4.1085    4.8607   25.9830 C.3     1  UNL1        0.3242
     37 F          -4.7076    3.5860   26.4989 F       1  UNL1       -0.2176
     38 C          -5.2685    5.6313   26.5401 C.3     1  UNL1        0.4363
     39 F          -6.4285    6.4021   27.0973 F       1  UNL1       -0.1666
     40 F          -6.2138    4.7925   25.7322 F       1  UNL1       -0.1666
     41 F          -4.4716    6.5579   27.4099 F       1  UNL1       -0.1666
     42 C          -3.5094    6.1354   25.4670 C.3     1  UNL1        0.4363
     43 F          -2.9103    7.4101   24.9511 F       1  UNL1       -0.1666
     44 F          -4.6251    6.4964   24.5318 F       1  UNL1       -0.1666
     45 F          -2.2023    6.2428   26.1950 F       1  UNL1       -0.1666
@<TRIPOS>BOND
     1     1     2    2
     2     2     3   am
     3     3     4    1
     4     4     5    1
     5     5     6    1
     6     6    26    1
     7    26    27    2
     8    26    28    2
     9    26    29    1
    10    29    30   ar
    11    30    31   ar
    12    31    32   ar
    13    32    33    1
    14    32    34   ar
    15    34    35   ar
    16     6     7    1
    17     7     8   ar
    18     8     9   ar
    19     9    10   ar
    20    10    36    1
    21    36    37    1
    22    36    38    1
    23    38    39    1
    24    38    40    1
    25    38    41    1
    26    36    42    1
    27    42    43    1
    28    42    44    1
    29    42    45    1
    30    10    11   ar
    31    11    12   ar
    32    12    13    1
    33    13    14    1
    34    15    14    1
    35     2    16    1
    36    16    17    1
    37    16    18    1
    38    18    19    1
    39    19    20    1
    40    20    21    2
    41    20    22    2
    42    20    23    1
    43    23    24    1
    44    15     3    1
    45    24    16    1
    46    15     6    1
    47    35    29   ar
    48    12     7   ar
    49    17    25    1
@<TRIPOS>MOLECULE
*****
 45 49 0 0 0
SMALL
GASTEIGER

@<TRIPOS>ATOM
      1 O           8.0811   -5.6956   26.9835 O.2     1  UNL1       -0.2724
      2 C           7.3121   -4.5934   27.6498 C.2     1  UNL1        0.2498
      3 N           6.5660   -3.5913   26.8195 N.am    1  UNL1       -0.2773
      4 C           5.7576   -2.4407   27.3417 C.3     1  UNL1        0.0956
      5 C           5.1894   -1.7022   26.1662 C.3     1  UNL1        0.0496
      6 C           5.6466   -2.3964   24.9176 C.3     1  UNL1        0.1514
      7 C           5.3981   -2.1161   23.4651 C.ar    1  UNL1       -0.0046
      8 C           4.5473   -0.9486   23.0614 C.ar    1  UNL1       -0.0032
      9 C           4.2988   -0.6685   21.6089 C.ar    1  UNL1       -0.0015
     10 C           4.9011   -1.5558   20.5602 C.ar    1  UNL1        0.0232
     11 C           5.7519   -2.7233   20.9639 C.ar    1  UNL1       -0.0057
     12 C           6.0004   -3.0035   22.4164 C.ar    1  UNL1       -0.0247
     13 C           6.8512   -4.1710   22.8201 C.3     1  UNL1        0.0278
     14 C           7.0997   -4.4512   24.2726 C.3     1  UNL1        0.0265
     15 C           6.4974   -3.5639   25.3214 C.3     1  UNL1        0.1002
     16 C           7.2891   -4.4933   29.1462 C.3     1  UNL1        0.1597
     17 O           6.3017   -5.6041   28.9444 O.3     1  UNL1       -0.3780
     18 C           8.2846   -3.4172   28.8283 C.3     1  UNL1        0.0612
     19 C           8.9142   -2.6267   29.9368 C.3     1  UNL1        0.1537
     20 S           8.5483   -2.9122   31.3633 S.O2    1  UNL1       -0.0098
     21 O           8.5254   -2.8121   32.8597 O.2     1  UNL1       -0.1730
     22 O           9.5358   -1.8014   31.5650 O.2     1  UNL1       -0.1730
     23 C           7.5529   -3.9883   31.6812 C.3     1  UNL1        0.1537
     24 C           6.9233   -4.7788   30.5727 C.3     1  UNL1        0.0612
     25 H           6.2091   -5.7862   27.9962 H       1  UNL1        0.2109
     26 S           4.7791   -1.1986   24.6671 S.O2    1  UNL1        0.0106
     27 O           4.0405   -1.4974   24.6415 O.2     1  UNL1       -0.1684
     28 O           5.9951   -0.3205   24.6542 O.2     1  UNL1       -0.1684
     29 C           3.9115   -0.0008   24.4165 C.ar    1  UNL1        0.1061
     30 C           4.5312    1.3580   24.2768 C.ar    1  UNL1        0.0207
     31 C           3.6637    2.5557   24.0263 C.ar    1  UNL1        0.0310
     32 C           2.1765    2.3946   23.9154 C.ar    1  UNL1        0.1402
     33 F           1.3089    3.5924   23.6649 F       1  UNL1       -0.2042
     34 C           1.5568    1.0358   24.0552 C.ar    1  UNL1        0.0310
     35 C           2.4243   -0.1619   24.3057 C.ar    1  UNL1        0.0207
     36 C           4.6526   -1.2755   19.1076 C.3     1  UNL1        0.3242
     37 F           5.3157    0.0621   19.2523 F       1  UNL1       -0.2176
     38 C           4.4041   -0.9953   17.6552 C.3     1  UNL1        0.4363
     39 F           4.1557   -0.7150   16.2026 F       1  UNL1       -0.1666
     40 F           2.9261   -0.9843   17.9102 F       1  UNL1       -0.1666
     41 F           5.8410   -0.9720   17.2250 F       1  UNL1       -0.1666
     42 C           3.9896   -2.6132   18.9630 C.3     1  UNL1        0.4363
     43 F           3.3264   -3.9509   18.8183 F       1  UNL1       -0.1666
     44 F           4.9775   -3.2040   18.0014 F       1  UNL1       -0.1666
     45 F           2.7842   -2.5187   19.8508 F       1  UNL1       -0.1666
@<TRIPOS>BOND
     1     1     2    2
     2     2     3   am
     3     3     4    1
     4     4     5    1
     5     5     6    1
     6     6    26    1
     7    26    27    2
     8    26    28    2
     9    26    29    1
    10    29    30   ar
    11    30    31   ar
    12    31    32   ar
    13    32    33    1
    14    32    34   ar
    15    34    35   ar
    16     6     7    1
    17     7     8   ar
    18     8     9   ar
    19     9    10   ar
    20    10    36    1
    21    36    37    1
    22    36    38    1
    23    38    39    1
    24    38    40    1
    25    38    41    1
    26    36    42    1
    27    42    43    1
    28    42    44    1
    29    42    45    1
    30    10    11   ar
    31    11    12   ar
    32    12    13    1
    33    13    14    1
    34    15    14    1
    35     2    16    1
    36    16    17    1
    37    16    18    1
    38    18    19    1
    39    19    20    1
    40    20    21    2
    41    20    22    2
    42    20    23    1
    43    23    24    1
    44    15     3    1
    45    24    16    1
    46    15     6    1
    47    35    29   ar
    48    12     7   ar
    49    17    25    1
@<TRIPOS>MOLECULE
*****
 45 49 0 0 0
SMALL
GASTEIGER

@<TRIPOS>ATOM
      1 O           4.3587    0.6784   29.0378 O.2     1  UNL1       -0.2724
      2 C           3.5429    1.6924   28.2919 C.2     1  UNL1        0.2498
      3 N           3.2315    1.4831   26.8395 N.am    1  UNL1       -0.2773
      4 C           2.4319    2.4050   25.9674 C.3     1  UNL1        0.0956
      5 C           2.3713    1.8067   24.5932 C.3     1  UNL1        0.0496
      6 C           3.1335    0.5150   24.6161 C.3     1  UNL1        0.1514
      7 C           3.4121   -0.5049   23.5520 C.ar    1  UNL1       -0.0046
      8 C           2.8805   -0.3048   22.1638 C.ar    1  UNL1       -0.0032
      9 C           3.1591   -1.3247   21.0998 C.ar    1  UNL1       -0.0015
     10 C           3.9694   -2.5447   21.4240 C.ar    1  UNL1        0.0232
     11 C           4.5010   -2.7448   22.8123 C.ar    1  UNL1       -0.0057
     12 C           4.2224   -1.7249   23.8763 C.ar    1  UNL1       -0.0247
     13 C           4.7541   -1.9249   25.2646 C.3     1  UNL1        0.0278
     14 C           4.4754   -0.9050   26.3286 C.3     1  UNL1        0.0265
     15 C           3.6652    0.3150   26.0043 C.3     1  UNL1        0.1002
     16 C           3.0385    2.9157   28.9982 C.3     1  UNL1        0.1597
     17 O           4.1634    3.5163   28.2084 O.3     1  UNL1       -0.3780
     18 C           2.0888    1.8903   29.5428 C.3     1  UNL1        0.0612
     19 C           1.0253    2.2968   30.5194 C.3     1  UNL1        0.1537
     20 S           0.9115    3.7287   30.9515 S.O2    1  UNL1       -0.0098
     21 O           0.4071    4.9520   31.6578 O.2     1  UNL1       -0.1730
     22 O          -0.2134    3.1281   31.7413 O.2     1  UNL1       -0.1730
     23 C           1.8612    4.7542   30.4070 C.3     1  UNL1        0.1537
     24 C           2.9247    4.3477   29.4304 C.3     1  UNL1        0.0612
     25 H           4.5973    2.8239   27.6858 H       1  UNL1        0.2109
     26 S           2.5391    0.8492   23.2801 S.O2    1  UNL1        0.0106
     27 O           1.8212    0.5030   23.2964 O.2     1  UNL1       -0.1684
     28 O           3.7829    1.6039   22.9153 O.2     1  UNL1       -0.1684
     29 C           1.9445    1.1834   21.9440 C.ar    1  UNL1        0.1061
     30 C           2.7374    1.9758   20.9474 C.ar    1  UNL1        0.0207
     31 C           2.1429    2.3099   19.6114 C.ar    1  UNL1        0.0310
     32 C           0.7556    1.8516   19.2721 C.ar    1  UNL1        0.1402
     33 F           0.1610    2.1858   17.9360 F       1  UNL1       -0.2042
     34 C          -0.0373    1.0591   20.2687 C.ar    1  UNL1        0.0310
     35 C           0.5572    0.7250   21.6047 C.ar    1  UNL1        0.0207
     36 C           4.2480   -3.5646   20.3600 C.3     1  UNL1        0.3242
     37 F           3.8728   -4.6609   21.3125 F       1  UNL1       -0.2176
     38 C           4.5266   -4.5845   19.2960 C.3     1  UNL1        0.4363
     39 F           4.8052   -5.6045   18.2319 F       1  UNL1       -0.1666
     40 F           3.1631   -5.1740   19.5040 F       1  UNL1       -0.1666
     41 F           5.9139   -4.1238   18.9598 F       1  UNL1       -0.1666
     42 C           4.6232   -2.4684   19.4074 C.3     1  UNL1        0.4363
     43 F           4.9985   -1.3721   18.4548 F       1  UNL1       -0.1666
     44 F           3.5357   -2.7171   18.4048 F       1  UNL1       -0.1666
     45 F           5.8220   -1.8293   20.0435 F       1  UNL1       -0.1666
@<TRIPOS>BOND
     1     1     2    2
     2     2     3   am
     3     3     4    1
     4     4     5    1
     5     5     6    1
     6     6    26    1
     7    26    27    2
     8    26    28    2
     9    26    29    1
    10    29    30   ar
    11    30    31   ar
    12    31    32   ar
    13    32    33    1
    14    32    34   ar
    15    34    35   ar
    16     6     7    1
    17     7     8   ar
    18     8     9   ar
    19     9    10   ar
    20    10    36    1
    21    36    37    1
    22    36    38    1
    23    38    39    1
    24    38    40    1
    25    38    41    1
    26    36    42    1
    27    42    43    1
    28    42    44    1
    29    42    45    1
    30    10    11   ar
    31    11    12   ar
    32    12    13    1
    33    13    14    1
    34    15    14    1
    35     2    16    1
    36    16    17    1
    37    16    18    1
    38    18    19    1
    39    19    20    1
    40    20    21    2
    41    20    22    2
    42    20    23    1
    43    23    24    1
    44    15     3    1
    45    24    16    1
    46    15     6    1
    47    35    29   ar
    48    12     7   ar
    49    17    25    1
@<TRIPOS>MOLECULE
*****
 45 49 0 0 0
SMALL
GASTEIGER

@<TRIPOS>ATOM
      1 O           3.3338   -0.6316   22.6290 O.2     1  UNL1       -0.2724
      2 C           2.8085   -0.2547   21.2755 C.2     1  UNL1        0.2498
      3 N           1.6400    0.6786   21.1576 N.am    1  UNL1       -0.2773
      4 C           1.0083    1.1433   19.8790 C.3     1  UNL1        0.0956
      5 C          -0.1239    2.0629   20.2288 C.3     1  UNL1        0.0496
      6 C          -0.1918    2.1665   21.7237 C.3     1  UNL1        0.1514
      7 C          -1.1057    2.9295   22.6364 C.ar    1  UNL1       -0.0046
      8 C          -2.1958    3.7850   22.0623 C.ar    1  UNL1       -0.0032
      9 C          -3.1095    4.5479   22.9750 C.ar    1  UNL1       -0.0015
     10 C          -2.9331    4.4553   24.4617 C.ar    1  UNL1        0.0232
     11 C          -1.8430    3.5997   25.0358 C.ar    1  UNL1       -0.0057
     12 C          -0.9292    2.8368   24.1231 C.ar    1  UNL1       -0.0247
     13 C           0.1610    1.9812   24.6971 C.3     1  UNL1        0.0278
     14 C           1.0747    1.2183   23.7844 C.3     1  UNL1        0.0265
     15 C           0.8983    1.3110   22.2977 C.3     1  UNL1        0.1002
     16 C           3.4515   -0.8111   20.0398 C.3     1  UNL1        0.1597
     17 O           2.2241   -1.6709   20.1043 O.3     1  UNL1       -0.3780
     18 C           4.4556    0.2419   20.4044 C.3     1  UNL1        0.0612
     19 C           5.6764    0.4400   19.5557 C.3     1  UNL1        0.1537
     20 S           5.8933   -0.4149   18.3424 S.O2    1  UNL1       -0.0098
     21 O           6.5363   -0.9713   17.1067 O.2     1  UNL1       -0.1730
     22 O           7.1206    0.4449   18.2779 O.2     1  UNL1       -0.1730
     23 C           4.8892   -1.4680   17.9778 C.3     1  UNL1        0.1537
     24 C           3.6683   -1.6660   18.8265 C.3     1  UNL1        0.0612
     25 H           1.6934   -1.4194   20.8763 H       1  UNL1        0.2109
     26 S          -1.2315    2.9770   21.0080 S.O2    1  UNL1        0.0106
     27 O          -1.8429    2.4728   20.9210 O.2     1  UNL1       -0.1684
     28 O          -0.3053    4.1567   20.9982 O.2     1  UNL1       -0.1684
     29 C          -2.2713    3.7874   20.2922 C.ar    1  UNL1        0.1061
     30 C          -3.6345    3.2111   20.0483 C.ar    1  UNL1        0.0207
     31 C          -4.6743    4.0214   19.3326 C.ar    1  UNL1        0.0310
     32 C          -4.3508    5.4081   18.8609 C.ar    1  UNL1        0.1402
     33 F          -5.3906    6.2185   18.1451 F       1  UNL1       -0.2042
     34 C          -2.9875    5.9844   19.1048 C.ar    1  UNL1        0.0310
     35 C          -1.9479    5.1740   19.8205 C.ar    1  UNL1        0.0207
     36 C          -3.8469    5.2182   25.3744 C.3     1  UNL1        0.3242
     37 F          -2.6583    5.8478   26.0382 F       1  UNL1       -0.2176
     38 C          -4.7607    5.9812   26.2871 C.3     1  UNL1        0.4363
     39 F          -5.6744    6.7441   27.1998 F       1  UNL1       -0.1666
     40 F          -4.1604    7.2705   25.8103 F       1  UNL1       -0.1666
     41 F          -5.4679    4.7945   26.8716 F       1  UNL1       -0.1666
     42 C          -5.0356    4.5886   24.7107 C.3     1  UNL1        0.4363
     43 F          -6.2243    3.9590   24.0469 F       1  UNL1       -0.1666
     44 F          -5.6333    5.8530   24.1685 F       1  UNL1       -0.1666
     45 F          -4.8806    3.1251   25.0010 F       1  UNL1       -0.1666
@<TRIPOS>BOND
     1     1     2    2
     2     2     3   am
     3     3     4    1
     4     4     5    1
     5     5     6    1
     6     6    26    1
     7    26    27    2
     8    26    28    2
     9    26    29    1
    10    29    30   ar
    11    30    31   ar
    12    31    32   ar
    13    32    33    1
    14    32    34   ar
    15    34    35   ar
    16     6     7    1
    17     7     8   ar
    18     8     9   ar
    19     9    10   ar
    20    10    36    1
    21    36    37    1
    22    36    38    1
    23    38    39    1
    24    38    40    1
    25    38    41    1
    26    36    42    1
    27    42    43    1
    28    42    44    1
    29    42    45    1
    30    10    11   ar
    31    11    12   ar
    32    12    13    1
    33    13    14    1
    34    15    14    1
    35     2    16    1
    36    16    17    1
    37    16    18    1
    38    18    19    1
    39    19    20    1
    40    20    21    2
    41    20    22    2
    42    20    23    1
    43    23    24    1
    44    15     3    1
    45    24    16    1
    46    15     6    1
    47    35    29   ar
    48    12     7   ar
    49    17    25    1
