@<TRIPOS>MOLECULE
*****
 30 33 0 0 0
SMALL
GASTEIGER

@<TRIPOS>ATOM
      1 N          -7.9564  -19.6084   21.4443 N.3     1  UNL1       -0.2679
      2 C          -8.6213  -19.2054   22.7270 C.3     1  UNL1        0.0978
      3 C          -9.4821  -20.1865   23.4661 C.3     1  UNL1        0.0224
      4 C         -10.1470  -19.7835   24.7489 C.3     1  UNL1        0.0065
      5 C          -9.9512  -18.3993   25.2925 C.3     1  UNL1        0.0277
      6 C          -9.0904  -17.4182   24.5534 C.ar    1  UNL1       -0.0073
      7 C          -8.8945  -16.0339   25.0971 C.ar    1  UNL1       -0.0015
      8 C          -8.0338  -15.0527   24.3580 C.ar    1  UNL1        0.0203
      9 C          -7.3688  -15.4557   23.0752 C.ar    1  UNL1        0.0985
     10 N          -7.5647  -16.8399   22.5316 N.ar    1  UNL1       -0.2471
     11 C          -8.4255  -17.8212   23.2707 C.ar    1  UNL1        0.0695
     12 C          -8.6262  -19.3277   20.1319 C.3     1  UNL1        0.0725
     13 C         -10.1210  -19.3911   20.0240 C.3     1  UNL1        0.0187
     14 C         -10.9068  -18.1432   19.7498 C.3     1  UNL1        0.0183
     15 N         -10.1956  -15.8889   20.8279 N.3     1  UNL1       -0.3211
     16 C         -11.0693  -17.1083   20.8233 C.3     1  UNL1        0.0652
     17 H         -10.4413  -15.2976   21.6219 H       1  UNL1        0.1189
     18 H         -10.3332  -15.3688   19.9613 H       1  UNL1        0.1189
     19 C          -6.6216  -20.2921   21.4740 C.3     1  UNL1        0.0886
     20 C          -5.3617  -19.4780   21.4736 C.3     1  UNL1        0.0764
     21 C          -4.4826  -19.4571   20.2584 C.3     1  UNL1        0.0626
     22 C          -3.2227  -18.6430   20.2581 C.ar    1  UNL1        0.0577
     23 N          -2.3436  -18.6221   19.0429 N.ar    1  UNL1       -0.2484
     24 C          -1.0838  -17.8081   19.0426 C.ar    1  UNL1        0.0984
     25 C          -0.7030  -17.0149   20.2574 C.ar    1  UNL1        0.0204
     26 C          -1.5821  -17.0357   21.4726 C.ar    1  UNL1       -0.0002
     27 C          -2.8420  -17.8498   21.4729 C.ar    1  UNL1        0.0073
     28 C          -3.7211  -17.8707   22.6881 C.3     1  UNL1        0.0968
     29 N          -4.9810  -18.6848   22.6885 N.3     1  UNL1       -0.2934
     30 H          -5.7489  -18.0388   22.8709 H       1  UNL1        0.1236
@<TRIPOS>BOND
     1    15    16    1
     2    16    14    1
     3    14    13    1
     4    13    12    1
     5    12     1    1
     6     1    19    1
     7    20    19    1
     8    20    21    1
     9    21    22    1
    10    22    23   ar
    11    23    24   ar
    12    24    25   ar
    13    25    26   ar
    14    26    27   ar
    15    27    28    1
    16    28    29    1
    17     2     1    1
    18     2     3    1
    19     3     4    1
    20     4     5    1
    21     5     6    1
    22     6     7   ar
    23     7     8   ar
    24     8     9   ar
    25     9    10   ar
    26    10    11   ar
    27    29    20    1
    28    11     2    1
    29    27    22   ar
    30    11     6   ar
    31    15    17    1
    32    15    18    1
    33    29    30    1
@<TRIPOS>MOLECULE
*****
 30 33 0 0 0
SMALL
GASTEIGER

@<TRIPOS>ATOM
      1 N          -8.3935  -17.9641   23.1530 N.3     1  UNL1       -0.2679
      2 C          -9.8918  -17.9682   23.2233 C.3     1  UNL1        0.0978
      3 C         -10.5868  -18.6338   24.3740 C.3     1  UNL1        0.0224
      4 C         -12.0851  -18.6380   24.4443 C.3     1  UNL1        0.0065
      5 C         -12.8885  -17.9766   23.3640 C.3     1  UNL1        0.0277
      6 C         -12.1936  -17.3110   22.2134 C.ar    1  UNL1       -0.0073
      7 C         -12.9970  -16.6496   21.1330 C.ar    1  UNL1       -0.0015
      8 C         -12.3020  -15.9840   19.9824 C.ar    1  UNL1        0.0203
      9 C         -10.8037  -15.9798   19.9120 C.ar    1  UNL1        0.0985
     10 N         -10.0003  -16.6412   20.9923 N.ar    1  UNL1       -0.2471
     11 C         -10.6952  -17.3068   22.1431 C.ar    1  UNL1        0.0695
     12 C          -7.6292  -16.7245   23.5127 C.3     1  UNL1        0.0725
     13 C          -8.2287  -15.7197   24.4514 C.3     1  UNL1        0.0187
     14 C          -8.0845  -15.8988   25.9337 C.3     1  UNL1        0.0183
     15 N          -5.8380  -14.5937   25.9427 N.3     1  UNL1       -0.3211
     16 C          -6.7976  -15.5328   26.6117 C.3     1  UNL1        0.0652
     17 H          -5.0229  -14.4576   26.5406 H       1  UNL1        0.1189
     18 H          -6.2961  -13.6965   25.7827 H       1  UNL1        0.1189
     19 C          -7.6594  -19.1994   22.7229 C.3     1  UNL1        0.0886
     20 C          -6.4492  -19.0849   21.8440 C.3     1  UNL1        0.0764
     21 C          -5.1002  -18.8419   22.4531 C.3     1  UNL1        0.0626
     22 C          -3.8900  -18.7275   21.5742 C.ar    1  UNL1        0.0577
     23 N          -2.5410  -18.4844   22.1833 N.ar    1  UNL1       -0.2484
     24 C          -1.3309  -18.3700   21.3044 C.ar    1  UNL1        0.0984
     25 C          -1.4698  -18.4986   19.8164 C.ar    1  UNL1        0.0204
     26 C          -2.8188  -18.7416   19.2073 C.ar    1  UNL1       -0.0002
     27 C          -4.0289  -18.8561   20.0862 C.ar    1  UNL1        0.0073
     28 C          -5.3780  -19.0991   19.4771 C.3     1  UNL1        0.0968
     29 N          -6.5881  -19.2136   20.3560 N.3     1  UNL1       -0.2934
     30 H          -6.9966  -20.1308   20.1766 H       1  UNL1        0.1236
@<TRIPOS>BOND
     1    15    16    1
     2    16    14    1
     3    14    13    1
     4    13    12    1
     5    12     1    1
     6     1    19    1
     7    20    19    1
     8    20    21    1
     9    21    22    1
    10    22    23   ar
    11    23    24   ar
    12    24    25   ar
    13    25    26   ar
    14    26    27   ar
    15    27    28    1
    16    28    29    1
    17     2     1    1
    18     2     3    1
    19     3     4    1
    20     4     5    1
    21     5     6    1
    22     6     7   ar
    23     7     8   ar
    24     8     9   ar
    25     9    10   ar
    26    10    11   ar
    27    29    20    1
    28    11     2    1
    29    27    22   ar
    30    11     6   ar
    31    15    17    1
    32    15    18    1
    33    29    30    1
@<TRIPOS>MOLECULE
*****
 30 33 0 0 0
SMALL
GASTEIGER

@<TRIPOS>ATOM
      1 N          -5.6813  -16.5716   23.4513 N.3     1  UNL1       -0.2679
      2 C          -5.2179  -17.7058   22.5860 C.3     1  UNL1        0.0978
      3 C          -6.0946  -18.9072   22.3911 C.3     1  UNL1        0.0224
      4 C          -5.6312  -20.0414   21.5257 C.3     1  UNL1        0.0065
      5 C          -4.2911  -19.9742   20.8553 C.3     1  UNL1        0.0277
      6 C          -3.4144  -18.7728   21.0501 C.ar    1  UNL1       -0.0073
      7 C          -2.0743  -18.7056   20.3796 C.ar    1  UNL1       -0.0015
      8 C          -1.1976  -17.5042   20.5745 C.ar    1  UNL1        0.0203
      9 C          -1.6609  -16.3700   21.4398 C.ar    1  UNL1        0.0985
     10 N          -3.0010  -16.4372   22.1103 N.ar    1  UNL1       -0.2471
     11 C          -3.8778  -17.6386   21.9155 C.ar    1  UNL1        0.0695
     12 C          -5.1564  -16.4320   24.8495 C.3     1  UNL1        0.0725
     13 C          -5.5708  -15.2628   25.6930 C.3     1  UNL1        0.0187
     14 C          -6.3275  -15.4888   26.9682 C.3     1  UNL1        0.0183
     15 N          -8.5606  -16.7587   27.3561 N.3     1  UNL1       -0.3211
     16 C          -7.8272  -15.5128   26.9562 C.3     1  UNL1        0.0652
     17 H          -9.5656  -16.5977   27.2898 H       1  UNL1        0.1189
     18 H          -8.3180  -17.0027   28.3163 H       1  UNL1        0.1189
     19 C          -6.6696  -15.5770   22.9185 C.3     1  UNL1        0.0886
     20 C          -8.1087  -15.9655   22.7511 C.3     1  UNL1        0.0764
     21 C          -8.7551  -16.8921   23.7378 C.3     1  UNL1        0.0626
     22 C         -10.1942  -17.2806   23.5705 C.ar    1  UNL1        0.0577
     23 N         -10.8406  -18.2072   24.5572 N.ar    1  UNL1       -0.2484
     24 C         -12.2797  -18.5957   24.3898 C.ar    1  UNL1        0.0984
     25 C         -13.0724  -18.0577   23.2356 C.ar    1  UNL1        0.0204
     26 C         -12.4260  -17.1311   22.2489 C.ar    1  UNL1       -0.0002
     27 C         -10.9870  -16.7426   22.4163 C.ar    1  UNL1        0.0073
     28 C         -10.3405  -15.8160   21.4295 C.3     1  UNL1        0.0968
     29 N          -8.9015  -15.4275   21.5969 N.3     1  UNL1       -0.2934
     30 H          -8.8779  -14.4106   21.6721 H       1  UNL1        0.1236
@<TRIPOS>BOND
     1    15    16    1
     2    16    14    1
     3    14    13    1
     4    13    12    1
     5    12     1    1
     6     1    19    1
     7    20    19    1
     8    20    21    1
     9    21    22    1
    10    22    23   ar
    11    23    24   ar
    12    24    25   ar
    13    25    26   ar
    14    26    27   ar
    15    27    28    1
    16    28    29    1
    17     2     1    1
    18     2     3    1
    19     3     4    1
    20     4     5    1
    21     5     6    1
    22     6     7   ar
    23     7     8   ar
    24     8     9   ar
    25     9    10   ar
    26    10    11   ar
    27    29    20    1
    28    11     2    1
    29    27    22   ar
    30    11     6   ar
    31    15    17    1
    32    15    18    1
    33    29    30    1
@<TRIPOS>MOLECULE
*****
 30 33 0 0 0
SMALL
GASTEIGER

@<TRIPOS>ATOM
      1 N          -5.3446  -16.3887   23.9686 N.3     1  UNL1       -0.2679
      2 C          -4.4532  -17.2639   23.1383 C.3     1  UNL1        0.0978
      3 C          -2.9776  -16.9993   23.0885 C.3     1  UNL1        0.0224
      4 C          -2.0863  -17.8745   22.2581 C.3     1  UNL1        0.0065
      5 C          -2.6705  -19.0144   21.4776 C.3     1  UNL1        0.0277
      6 C          -4.1461  -19.2790   21.5274 C.ar    1  UNL1       -0.0073
      7 C          -4.7305  -20.4190   20.7469 C.ar    1  UNL1       -0.0015
      8 C          -6.2061  -20.6836   20.7967 C.ar    1  UNL1        0.0203
      9 C          -7.0974  -19.8083   21.6270 C.ar    1  UNL1        0.0985
     10 N          -6.5132  -18.6685   22.4075 N.ar    1  UNL1       -0.2471
     11 C          -5.0375  -18.4038   22.3578 C.ar    1  UNL1        0.0695
     12 C          -5.2014  -16.3740   25.4617 C.3     1  UNL1        0.0725
     13 C          -5.6175  -15.1631   26.2432 C.3     1  UNL1        0.0187
     14 C          -6.5436  -15.3080   27.4142 C.3     1  UNL1        0.0183
     15 N          -8.6168  -16.8668   27.2659 N.3     1  UNL1       -0.3211
     16 C          -8.0146  -15.4951   27.1884 C.3     1  UNL1        0.0652
     17 H          -9.6194  -16.8085   27.0877 H       1  UNL1        0.1189
     18 H          -8.4588  -17.2555   28.1957 H       1  UNL1        0.1189
     19 C          -6.3790  -15.5281   23.3059 C.3     1  UNL1        0.0886
     20 C          -7.7733  -16.0463   23.1118 C.3     1  UNL1        0.0764
     21 C          -8.5445  -15.6804   21.8784 C.3     1  UNL1        0.0626
     22 C          -9.9388  -16.1986   21.6843 C.ar    1  UNL1        0.0577
     23 N         -10.7099  -15.8328   20.4509 N.ar    1  UNL1       -0.2484
     24 C         -12.1041  -16.3510   20.2569 C.ar    1  UNL1        0.0984
     25 C         -12.7271  -17.2350   21.2963 C.ar    1  UNL1        0.0204
     26 C         -11.9559  -17.6009   22.5297 C.ar    1  UNL1       -0.0002
     27 C         -10.5617  -17.0827   22.7237 C.ar    1  UNL1        0.0073
     28 C          -9.7905  -17.4486   23.9572 C.3     1  UNL1        0.0968
     29 N          -8.3963  -16.9304   24.1512 N.3     1  UNL1       -0.2934
     30 H          -7.7900  -17.7451   24.2466 H       1  UNL1        0.1236
@<TRIPOS>BOND
     1    15    16    1
     2    16    14    1
     3    14    13    1
     4    13    12    1
     5    12     1    1
     6     1    19    1
     7    20    19    1
     8    20    21    1
     9    21    22    1
    10    22    23   ar
    11    23    24   ar
    12    24    25   ar
    13    25    26   ar
    14    26    27   ar
    15    27    28    1
    16    28    29    1
    17     2     1    1
    18     2     3    1
    19     3     4    1
    20     4     5    1
    21     5     6    1
    22     6     7   ar
    23     7     8   ar
    24     8     9   ar
    25     9    10   ar
    26    10    11   ar
    27    29    20    1
    28    11     2    1
    29    27    22   ar
    30    11     6   ar
    31    15    17    1
    32    15    18    1
    33    29    30    1
@<TRIPOS>MOLECULE
*****
 30 33 0 0 0
SMALL
GASTEIGER

@<TRIPOS>ATOM
      1 N          -5.8022  -19.0589   21.2361 N.3     1  UNL1       -0.2679
      2 C          -5.2654  -18.2736   22.3959 C.3     1  UNL1        0.0978
      3 C          -3.9537  -18.6539   23.0162 C.3     1  UNL1        0.0224
      4 C          -3.4169  -17.8686   24.1760 C.3     1  UNL1        0.0065
      5 C          -4.1917  -16.7030   24.7154 C.3     1  UNL1        0.0277
      6 C          -5.5033  -16.3227   24.0951 C.ar    1  UNL1       -0.0073
      7 C          -6.2782  -15.1571   24.6345 C.ar    1  UNL1       -0.0015
      8 C          -7.5899  -14.7768   24.0142 C.ar    1  UNL1        0.0203
      9 C          -8.1267  -15.5620   22.8544 C.ar    1  UNL1        0.0985
     10 N          -7.3519  -16.7276   22.3150 N.ar    1  UNL1       -0.2471
     11 C          -6.0402  -17.1080   22.9353 C.ar    1  UNL1        0.0695
     12 C          -5.1752  -18.9184   19.8807 C.3     1  UNL1        0.0725
     13 C          -3.8862  -19.6219   19.5741 C.3     1  UNL1        0.0187
     14 C          -2.5787  -18.9184   19.7874 C.3     1  UNL1        0.0183
     15 N          -0.5912  -17.7842   18.5572 N.3     1  UNL1       -0.3211
     16 C          -2.0680  -17.9560   18.7565 C.3     1  UNL1        0.0652
     17 H          -0.4250  -17.0964   17.8226 H       1  UNL1        0.1189
     18 H          -0.1785  -18.6769   18.2868 H       1  UNL1        0.1189
     19 C          -6.9662  -19.9845   21.4316 C.3     1  UNL1        0.0886
     20 C          -8.3505  -19.4272   21.5837 C.3     1  UNL1        0.0764
     21 C          -9.0867  -19.5909   22.8803 C.3     1  UNL1        0.0626
     22 C         -10.4710  -19.0335   23.0323 C.ar    1  UNL1        0.0577
     23 N         -11.2072  -19.1972   24.3289 N.ar    1  UNL1       -0.2484
     24 C         -12.5914  -18.6399   24.4809 C.ar    1  UNL1        0.0984
     25 C         -13.2395  -17.9188   23.3364 C.ar    1  UNL1        0.0204
     26 C         -12.5033  -17.7550   22.0398 C.ar    1  UNL1       -0.0002
     27 C         -11.1191  -18.3124   21.8878 C.ar    1  UNL1        0.0073
     28 C         -10.3828  -18.1487   20.5911 C.3     1  UNL1        0.0968
     29 N          -8.9986  -18.7061   20.4391 N.3     1  UNL1       -0.2934
     30 H          -8.3900  -17.9225   20.2023 H       1  UNL1        0.1236
@<TRIPOS>BOND
     1    15    16    1
     2    16    14    1
     3    14    13    1
     4    13    12    1
     5    12     1    1
     6     1    19    1
     7    20    19    1
     8    20    21    1
     9    21    22    1
    10    22    23   ar
    11    23    24   ar
    12    24    25   ar
    13    25    26   ar
    14    26    27   ar
    15    27    28    1
    16    28    29    1
    17     2     1    1
    18     2     3    1
    19     3     4    1
    20     4     5    1
    21     5     6    1
    22     6     7   ar
    23     7     8   ar
    24     8     9   ar
    25     9    10   ar
    26    10    11   ar
    27    29    20    1
    28    11     2    1
    29    27    22   ar
    30    11     6   ar
    31    15    17    1
    32    15    18    1
    33    29    30    1
@<TRIPOS>MOLECULE
*****
 30 33 0 0 0
SMALL
GASTEIGER

@<TRIPOS>ATOM
      1 N          -9.0296  -17.4058   22.6274 N.3     1  UNL1       -0.2679
      2 C          -8.7797  -17.1620   24.0862 C.3     1  UNL1        0.0978
      3 C          -9.7299  -17.7067   25.1111 C.3     1  UNL1        0.0224
      4 C          -9.4801  -17.4629   26.5699 C.3     1  UNL1        0.0065
      5 C          -8.2801  -16.6744   27.0039 C.3     1  UNL1        0.0277
      6 C          -7.3300  -16.1297   25.9789 C.ar    1  UNL1       -0.0073
      7 C          -6.1299  -15.3412   26.4128 C.ar    1  UNL1       -0.0015
      8 C          -5.1798  -14.7965   25.3879 C.ar    1  UNL1        0.0203
      9 C          -5.4296  -15.0403   23.9291 C.ar    1  UNL1        0.0985
     10 N          -6.6296  -15.8288   23.4952 N.ar    1  UNL1       -0.2471
     11 C          -7.5798  -16.3735   24.5201 C.ar    1  UNL1        0.0695
     12 C          -9.7080  -16.3568   21.7971 C.3     1  UNL1        0.0725
     13 C         -10.8590  -16.7304   20.9107 C.3     1  UNL1        0.0187
     14 C         -12.2667  -16.5825   21.4071 C.3     1  UNL1        0.0183
     15 N         -12.1334  -18.6719   22.9455 N.3     1  UNL1       -0.3211
     16 C         -12.7113  -17.3234   22.6332 C.3     1  UNL1        0.0652
     17 H         -12.5454  -19.0269   23.8084 H       1  UNL1        0.1189
     18 H         -11.1230  -18.5907   23.0594 H       1  UNL1        0.1189
     19 C          -8.6010  -18.6985   21.9989 C.3     1  UNL1        0.0886
     20 C          -7.2398  -18.8164   21.3796 C.3     1  UNL1        0.0764
     21 C          -6.0189  -18.8389   22.2508 C.3     1  UNL1        0.0626
     22 C          -4.6577  -18.9568   21.6316 C.ar    1  UNL1        0.0577
     23 N          -3.4369  -18.9794   22.5027 N.ar    1  UNL1       -0.2484
     24 C          -2.0758  -19.0973   21.8835 C.ar    1  UNL1        0.0984
     25 C          -1.9356  -19.1926   20.3931 C.ar    1  UNL1        0.0204
     26 C          -3.1564  -19.1701   19.5220 C.ar    1  UNL1       -0.0002
     27 C          -4.5175  -19.0522   20.1412 C.ar    1  UNL1        0.0073
     28 C          -5.7385  -19.0297   19.2700 C.3     1  UNL1        0.0968
     29 N          -7.0995  -18.9118   19.8893 N.3     1  UNL1       -0.2934
     30 H          -7.6287  -19.7329   19.5957 H       1  UNL1        0.1236
@<TRIPOS>BOND
     1    15    16    1
     2    16    14    1
     3    14    13    1
     4    13    12    1
     5    12     1    1
     6     1    19    1
     7    20    19    1
     8    20    21    1
     9    21    22    1
    10    22    23   ar
    11    23    24   ar
    12    24    25   ar
    13    25    26   ar
    14    26    27   ar
    15    27    28    1
    16    28    29    1
    17     2     1    1
    18     2     3    1
    19     3     4    1
    20     4     5    1
    21     5     6    1
    22     6     7   ar
    23     7     8   ar
    24     8     9   ar
    25     9    10   ar
    26    10    11   ar
    27    29    20    1
    28    11     2    1
    29    27    22   ar
    30    11     6   ar
    31    15    17    1
    32    15    18    1
    33    29    30    1
@<TRIPOS>MOLECULE
*****
 30 33 0 0 0
SMALL
GASTEIGER

@<TRIPOS>ATOM
      1 N         -12.0737   -4.0218   18.1026 N.3     1  UNL1       -0.2679
      2 C         -11.9226   -2.5652   17.7778 C.3     1  UNL1        0.0978
      3 C         -10.7220   -2.0873   17.0162 C.3     1  UNL1        0.0224
      4 C         -10.5710   -0.6307   16.6913 C.3     1  UNL1        0.0065
      5 C         -11.6205    0.3479   17.1281 C.3     1  UNL1        0.0277
      6 C         -12.8211   -0.1300   17.8897 C.ar    1  UNL1       -0.0073
      7 C         -13.8707    0.8486   18.3264 C.ar    1  UNL1       -0.0015
      8 C         -15.0713    0.3706   19.0880 C.ar    1  UNL1        0.0203
      9 C         -15.2224   -1.0860   19.4129 C.ar    1  UNL1        0.0985
     10 N         -14.1728   -2.0646   18.9761 N.ar    1  UNL1       -0.2471
     11 C         -12.9722   -1.5866   18.2145 C.ar    1  UNL1        0.0695
     12 C         -11.3213   -4.6148   19.2568 C.3     1  UNL1        0.0725
     13 C          -9.8977   -5.0527   19.0786 C.3     1  UNL1        0.0187
     14 C          -9.5545   -6.5128   19.0954 C.3     1  UNL1        0.0183
     15 N          -9.7900   -8.7943   17.8749 N.3     1  UNL1       -0.3211
     16 C         -10.3825   -7.4870   18.3110 C.3     1  UNL1        0.0652
     17 H         -10.4880   -9.3279   17.3568 H       1  UNL1        0.1189
     18 H          -9.4963   -9.3249   18.6951 H       1  UNL1        0.1189
     19 C         -12.9772   -4.8854   17.2732 C.3     1  UNL1        0.0886
     20 C         -14.2060   -5.4902   17.8851 C.3     1  UNL1        0.0764
     21 C         -14.2359   -6.9523   18.2186 C.3     1  UNL1        0.0626
     22 C         -15.4648   -7.5571   18.8304 C.ar    1  UNL1        0.0577
     23 N         -15.4947   -9.0192   19.1639 N.ar    1  UNL1       -0.2484
     24 C         -16.7234   -9.6239   19.7757 C.ar    1  UNL1        0.0984
     25 C         -17.9223   -8.7665   20.0541 C.ar    1  UNL1        0.0204
     26 C         -17.8924   -7.3044   19.7207 C.ar    1  UNL1       -0.0002
     27 C         -16.6636   -6.6997   19.1088 C.ar    1  UNL1        0.0073
     28 C         -16.6337   -5.2375   18.7753 C.3     1  UNL1        0.0968
     29 N         -15.4049   -4.6328   18.1635 N.3     1  UNL1       -0.2934
     30 H         -15.0970   -3.8914   18.7928 H       1  UNL1        0.1236
@<TRIPOS>BOND
     1    15    16    1
     2    16    14    1
     3    14    13    1
     4    13    12    1
     5    12     1    1
     6     1    19    1
     7    20    19    1
     8    20    21    1
     9    21    22    1
    10    22    23   ar
    11    23    24   ar
    12    24    25   ar
    13    25    26   ar
    14    26    27   ar
    15    27    28    1
    16    28    29    1
    17     2     1    1
    18     2     3    1
    19     3     4    1
    20     4     5    1
    21     5     6    1
    22     6     7   ar
    23     7     8   ar
    24     8     9   ar
    25     9    10   ar
    26    10    11   ar
    27    29    20    1
    28    11     2    1
    29    27    22   ar
    30    11     6   ar
    31    15    17    1
    32    15    18    1
    33    29    30    1
@<TRIPOS>MOLECULE
*****
 30 33 0 0 0
SMALL
GASTEIGER

@<TRIPOS>ATOM
      1 N         -13.0494   -4.7866   18.4029 N.3     1  UNL1       -0.2679
      2 C         -13.5568   -3.3892   18.6026 C.3     1  UNL1        0.0978
      3 C         -14.8615   -3.1583   19.3057 C.3     1  UNL1        0.0224
      4 C         -15.3688   -1.7609   19.5055 C.3     1  UNL1        0.0065
      5 C         -14.5715   -0.5944   19.0020 C.3     1  UNL1        0.0277
      6 C         -13.2668   -0.8253   18.2989 C.ar    1  UNL1       -0.0073
      7 C         -12.4694    0.3412   17.7954 C.ar    1  UNL1       -0.0015
      8 C         -11.1647    0.1103   17.0923 C.ar    1  UNL1        0.0203
      9 C         -10.6573   -1.2871   16.8926 C.ar    1  UNL1        0.0985
     10 N         -11.4547   -2.4536   17.3960 N.ar    1  UNL1       -0.2471
     11 C         -12.7594   -2.2227   18.0992 C.ar    1  UNL1        0.0695
     12 C         -12.2669   -5.1314   17.1706 C.3     1  UNL1        0.0725
     13 C         -11.1686   -6.1507   17.2403 C.3     1  UNL1        0.0187
     14 C          -9.8057   -5.7529   17.7244 C.3     1  UNL1        0.0183
     15 N          -9.5898   -3.7435   19.3571 N.3     1  UNL1       -0.3211
     16 C          -9.6294   -5.2236   19.1167 C.3     1  UNL1        0.0652
     17 H          -9.4649   -3.5640   20.3534 H       1  UNL1        0.1189
     18 H         -10.4652   -3.3245   19.0433 H       1  UNL1        0.1189
     19 C         -13.3247   -5.8392   19.4354 C.3     1  UNL1        0.0886
     20 C         -14.3000   -6.9405   19.1423 C.3     1  UNL1        0.0764
     21 C         -15.7734   -6.6922   19.2737 C.3     1  UNL1        0.0626
     22 C         -16.7488   -7.7935   18.9805 C.ar    1  UNL1        0.0577
     23 N         -18.2222   -7.5451   19.1119 N.ar    1  UNL1       -0.2484
     24 C         -19.1974   -8.6464   18.8187 C.ar    1  UNL1        0.0984
     25 C         -18.6992   -9.9961   18.3943 C.ar    1  UNL1        0.0204
     26 C         -17.2258  -10.2445   18.2630 C.ar    1  UNL1       -0.0002
     27 C         -16.2506   -9.1432   18.5561 C.ar    1  UNL1        0.0073
     28 C         -14.7771   -9.3915   18.4248 C.3     1  UNL1        0.0968
     29 N         -13.8018   -8.2902   18.7179 N.3     1  UNL1       -0.2934
     30 H         -13.2541   -8.1484   17.8692 H       1  UNL1        0.1236
@<TRIPOS>BOND
     1    15    16    1
     2    16    14    1
     3    14    13    1
     4    13    12    1
     5    12     1    1
     6     1    19    1
     7    20    19    1
     8    20    21    1
     9    21    22    1
    10    22    23   ar
    11    23    24   ar
    12    24    25   ar
    13    25    26   ar
    14    26    27   ar
    15    27    28    1
    16    28    29    1
    17     2     1    1
    18     2     3    1
    19     3     4    1
    20     4     5    1
    21     5     6    1
    22     6     7   ar
    23     7     8   ar
    24     8     9   ar
    25     9    10   ar
    26    10    11   ar
    27    29    20    1
    28    11     2    1
    29    27    22   ar
    30    11     6   ar
    31    15    17    1
    32    15    18    1
    33    29    30    1
@<TRIPOS>MOLECULE
*****
 30 33 0 0 0
SMALL
GASTEIGER

@<TRIPOS>ATOM
      1 N         -12.9365   -5.0182   18.1475 N.3     1  UNL1       -0.2679
      2 C         -12.7700   -3.5409   18.3472 C.3     1  UNL1        0.0978
      3 C         -11.3980   -2.9551   18.5032 C.3     1  UNL1        0.0224
      4 C         -11.2315   -1.4778   18.7029 C.3     1  UNL1        0.0065
      5 C         -12.4370   -0.5863   18.7466 C.3     1  UNL1        0.0277
      6 C         -13.8090   -1.1721   18.5905 C.ar    1  UNL1       -0.0073
      7 C         -15.0146   -0.2806   18.6342 C.ar    1  UNL1       -0.0015
      8 C         -16.3866   -0.8664   18.4782 C.ar    1  UNL1        0.0203
      9 C         -16.5531   -2.3437   18.2785 C.ar    1  UNL1        0.0985
     10 N         -15.3476   -3.2352   18.2348 N.ar    1  UNL1       -0.2471
     11 C         -13.9755   -2.6494   18.3908 C.ar    1  UNL1        0.0695
     12 C         -12.6480   -5.6313   16.8093 C.3     1  UNL1        0.0725
     13 C         -11.3787   -6.4014   16.5951 C.3     1  UNL1        0.0187
     14 C         -10.2545   -6.2836   17.5811 C.3     1  UNL1        0.0183
     15 N          -9.7383   -8.7872   18.0451 N.3     1  UNL1       -0.3211
     16 C          -9.9871   -7.3968   18.5501 C.3     1  UNL1        0.0652
     17 H          -9.5760   -9.4119   18.8349 H       1  UNL1        0.1189
     18 H          -8.9187   -8.7869   17.4379 H       1  UNL1        0.1189
     19 C         -13.3916   -5.8823   19.2860 C.3     1  UNL1        0.0886
     20 C         -14.3643   -6.9972   19.0391 C.3     1  UNL1        0.0764
     21 C         -15.8393   -6.7383   19.1246 C.3     1  UNL1        0.0626
     22 C         -16.8120   -7.8532   18.8778 C.ar    1  UNL1        0.0577
     23 N         -18.2870   -7.5943   18.9633 N.ar    1  UNL1       -0.2484
     24 C         -19.2597   -8.7091   18.7165 C.ar    1  UNL1        0.0984
     25 C         -18.7574  -10.0829   18.3842 C.ar    1  UNL1        0.0204
     26 C         -17.2824  -10.3418   18.2987 C.ar    1  UNL1       -0.0002
     27 C         -16.3097   -9.2270   18.5455 C.ar    1  UNL1        0.0073
     28 C         -14.8347   -9.4858   18.4600 C.3     1  UNL1        0.0968
     29 N         -13.8620   -8.3710   18.7068 N.3     1  UNL1       -0.2934
     30 H         -13.2963   -8.2815   17.8628 H       1  UNL1        0.1236
@<TRIPOS>BOND
     1    15    16    1
     2    16    14    1
     3    14    13    1
     4    13    12    1
     5    12     1    1
     6     1    19    1
     7    20    19    1
     8    20    21    1
     9    21    22    1
    10    22    23   ar
    11    23    24   ar
    12    24    25   ar
    13    25    26   ar
    14    26    27   ar
    15    27    28    1
    16    28    29    1
    17     2     1    1
    18     2     3    1
    19     3     4    1
    20     4     5    1
    21     5     6    1
    22     6     7   ar
    23     7     8   ar
    24     8     9   ar
    25     9    10   ar
    26    10    11   ar
    27    29    20    1
    28    11     2    1
    29    27    22   ar
    30    11     6   ar
    31    15    17    1
    32    15    18    1
    33    29    30    1
