@<TRIPOS>MOLECULE
*****
 23 25 0 0 0
SMALL
GASTEIGER

@<TRIPOS>ATOM
      1 C          -7.8349  -18.1930   22.0758 C.2     1  UNL1       -0.0420
      2 C          -8.4697  -16.8745   22.4054 C.2     1  UNL1       -0.0240
      3 C          -9.9429  -16.9923   22.1489 C.ar    1  UNL1       -0.0078
      4 C         -11.0689  -16.0125   22.2968 C.ar    1  UNL1       -0.0006
      5 C         -12.4707  -16.4239   21.9566 C.ar    1  UNL1       -0.0000
      6 C         -12.7464  -17.8152   21.4684 C.ar    1  UNL1       -0.0003
      7 C         -11.6203  -18.7951   21.3205 C.ar    1  UNL1       -0.0040
      8 C         -10.2186  -18.3836   21.6608 C.ar    1  UNL1       -0.0184
      9 C          -8.9158  -19.1256   21.6156 C.3     1  UNL1        0.0480
     10 C          -6.3754  -18.5212   22.1868 C.3     1  UNL1        0.0394
     11 C          -5.6868  -19.2617   21.0790 C.3     1  UNL1        0.0766
     12 C          -3.6174  -19.0498   19.5225 C.3     1  UNL1        0.0897
     13 N          -4.2028  -19.1347   20.9010 N.3     1  UNL1       -0.2688
     14 C          -3.3044  -19.0924   22.1014 C.3     1  UNL1        0.1107
     15 C          -2.7092  -17.7898   22.5473 C.3     1  UNL1        0.2105
     16 F          -3.5967  -16.7001   23.0716 F       1  UNL1       -0.2328
     17 C          -7.7565  -15.6527   22.9040 C.3     1  UNL1        0.0730
     18 C          -7.3888  -15.5382   24.3538 C.ar    1  UNL1        0.0825
     19 C          -8.4243  -15.7803   25.4116 C.ar    1  UNL1        0.1139
     20 N          -8.0566  -15.6658   26.8613 N.ar    1  UNL1       -0.2394
     21 C          -6.6533  -15.3091   27.2531 C.ar    1  UNL1        0.1195
     22 C          -5.6178  -15.0670   26.1953 C.ar    1  UNL1        0.1191
     23 N          -5.9855  -15.1815   24.7456 N.ar    1  UNL1       -0.2446
@<TRIPOS>BOND
     1    12    13    1
     2    13    14    1
     3    14    15    1
     4    15    16    1
     5    13    11    1
     6    11    10    1
     7    10     1    1
     8     1     2    2
     9     2    17    1
    10    17    18    1
    11    18    19   ar
    12    19    20   ar
    13    20    21   ar
    14    21    22   ar
    15    22    23   ar
    16     2     3    1
    17     3     4   ar
    18     4     5   ar
    19     5     6   ar
    20     6     7   ar
    21     7     8   ar
    22     8     9    1
    23     9     1    1
    24    23    18   ar
    25     8     3   ar
@<TRIPOS>MOLECULE
*****
 23 25 0 0 0
SMALL
GASTEIGER

@<TRIPOS>ATOM
      1 C          -9.7316  -18.4142   23.8885 C.2     1  UNL1       -0.0420
      2 C          -8.6244  -17.5364   23.3850 C.2     1  UNL1       -0.0240
      3 C          -8.0844  -16.7581   24.5480 C.ar    1  UNL1       -0.0078
      4 C          -6.9884  -15.7394   24.6519 C.ar    1  UNL1       -0.0006
      5 C          -6.6657  -15.1175   25.9782 C.ar    1  UNL1       -0.0000
      6 C          -7.4392  -15.5144   27.2006 C.ar    1  UNL1       -0.0003
      7 C          -8.5352  -16.5331   27.0968 C.ar    1  UNL1       -0.0040
      8 C          -8.8578  -17.1550   25.7705 C.ar    1  UNL1       -0.0184
      9 C          -9.8758  -18.1785   25.3629 C.3     1  UNL1        0.0480
     10 C         -10.5507  -19.3615   23.0628 C.3     1  UNL1        0.0394
     11 C         -11.5261  -18.8279   22.0559 C.3     1  UNL1        0.0766
     12 C         -13.4207  -17.8315   23.5283 C.3     1  UNL1        0.0897
     13 N         -12.4249  -17.6824   22.4164 N.3     1  UNL1       -0.2688
     14 C         -12.3281  -16.3879   21.6649 C.3     1  UNL1        0.1107
     15 C         -11.4647  -16.2934   20.4419 C.3     1  UNL1        0.2105
     16 F         -11.9667  -15.5777   19.2230 F       1  UNL1       -0.2328
     17 C          -8.1420  -17.4516   21.9672 C.3     1  UNL1        0.0730
     18 C          -7.1289  -18.4347   21.4596 C.ar    1  UNL1        0.0825
     19 C          -7.5487  -19.5277   20.5220 C.ar    1  UNL1        0.1139
     20 N          -6.5357  -20.5106   20.0145 N.ar    1  UNL1       -0.2394
     21 C          -5.1029  -20.4006   20.4446 C.ar    1  UNL1        0.1195
     22 C          -4.6832  -19.3076   21.3822 C.ar    1  UNL1        0.1191
     23 N          -5.6961  -18.3246   21.8897 N.ar    1  UNL1       -0.2446
@<TRIPOS>BOND
     1    12    13    1
     2    13    14    1
     3    14    15    1
     4    15    16    1
     5    13    11    1
     6    11    10    1
     7    10     1    1
     8     1     2    2
     9     2    17    1
    10    17    18    1
    11    18    19   ar
    12    19    20   ar
    13    20    21   ar
    14    21    22   ar
    15    22    23   ar
    16     2     3    1
    17     3     4   ar
    18     4     5   ar
    19     5     6   ar
    20     6     7   ar
    21     7     8   ar
    22     8     9    1
    23     9     1    1
    24    23    18   ar
    25     8     3   ar
@<TRIPOS>MOLECULE
*****
 23 25 0 0 0
SMALL
GASTEIGER

@<TRIPOS>ATOM
      1 C          -7.8295  -18.4175   21.4651 C.2     1  UNL1       -0.0420
      2 C          -6.4187  -18.5571   21.9551 C.2     1  UNL1       -0.0240
      3 C          -6.1576  -17.4536   22.9370 C.ar    1  UNL1       -0.0078
      4 C          -4.9436  -17.0908   23.7398 C.ar    1  UNL1       -0.0006
      5 C          -4.9791  -15.9064   24.6594 C.ar    1  UNL1       -0.0000
      6 C          -6.2286  -15.0848   24.7763 C.ar    1  UNL1       -0.0003
      7 C          -7.4426  -15.4476   23.9736 C.ar    1  UNL1       -0.0040
      8 C          -7.4071  -16.6320   23.0539 C.ar    1  UNL1       -0.0184
      9 C          -8.4404  -17.2278   22.1443 C.3     1  UNL1        0.0480
     10 C          -8.5100  -19.3109   20.4707 C.3     1  UNL1        0.0394
     11 C          -9.9333  -19.0479   20.0771 C.3     1  UNL1        0.0766
     12 C         -12.0776  -18.0514   21.1537 C.3     1  UNL1        0.0897
     13 N         -11.0211  -19.1153   21.1077 N.3     1  UNL1       -0.2688
     14 C         -11.0525  -20.2465   22.0922 C.3     1  UNL1        0.1107
     15 C         -10.4965  -20.0555   23.4721 C.3     1  UNL1        0.2105
     16 F          -9.0799  -20.4477   23.7709 F       1  UNL1       -0.2328
     17 C          -5.4406  -19.6146   21.5366 C.3     1  UNL1        0.0730
     18 C          -4.1093  -19.2219   20.9676 C.ar    1  UNL1        0.0825
     19 C          -2.8450  -19.6808   21.6316 C.ar    1  UNL1        0.1139
     20 N          -1.5138  -19.2883   21.0626 N.ar    1  UNL1       -0.2394
     21 C          -1.4470  -18.4367   19.8296 C.ar    1  UNL1        0.1195
     22 C          -2.7113  -17.9778   19.1656 C.ar    1  UNL1        0.1191
     23 N          -4.0424  -18.3703   19.7345 N.ar    1  UNL1       -0.2446
@<TRIPOS>BOND
     1    12    13    1
     2    13    14    1
     3    14    15    1
     4    15    16    1
     5    13    11    1
     6    11    10    1
     7    10     1    1
     8     1     2    2
     9     2    17    1
    10    17    18    1
    11    18    19   ar
    12    19    20   ar
    13    20    21   ar
    14    21    22   ar
    15    22    23   ar
    16     2     3    1
    17     3     4   ar
    18     4     5   ar
    19     5     6   ar
    20     6     7   ar
    21     7     8   ar
    22     8     9    1
    23     9     1    1
    24    23    18   ar
    25     8     3   ar
@<TRIPOS>MOLECULE
*****
 23 25 0 0 0
SMALL
GASTEIGER

@<TRIPOS>ATOM
      1 C          -6.2894  -18.2722   22.3293 C.2     1  UNL1       -0.0420
      2 C          -6.1942  -19.2501   21.1959 C.2     1  UNL1       -0.0240
      3 C          -7.5422  -19.3367   20.5438 C.ar    1  UNL1       -0.0078
      4 C          -8.0443  -20.1379   19.3794 C.ar    1  UNL1       -0.0006
      5 C          -9.4748  -20.0145   18.9453 C.ar    1  UNL1       -0.0000
      6 C         -10.4032  -19.0900   19.6756 C.ar    1  UNL1       -0.0003
      7 C          -9.9011  -18.2888   20.8400 C.ar    1  UNL1       -0.0040
      8 C          -8.4706  -18.4122   21.2741 C.ar    1  UNL1       -0.0184
      9 C          -7.6963  -17.7543   22.3776 C.3     1  UNL1        0.0480
     10 C          -5.1736  -17.8808   23.2522 C.3     1  UNL1        0.0394
     11 C          -4.9320  -16.4339   23.5656 C.3     1  UNL1        0.0766
     12 C          -5.2258  -15.7397   26.0519 C.3     1  UNL1        0.0897
     13 N          -5.7302  -15.7557   24.6393 N.3     1  UNL1       -0.2688
     14 C          -7.0327  -15.0934   24.3004 C.3     1  UNL1        0.1107
     15 C          -8.2263  -15.2882   25.1877 C.3     1  UNL1        0.2105
     16 F          -8.9080  -16.6231   25.2455 F       1  UNL1       -0.2328
     17 C          -4.9664  -20.0085   20.7865 C.3     1  UNL1        0.0730
     18 C          -3.7280  -19.2668   20.3786 C.ar    1  UNL1        0.0825
     19 C          -2.4098  -19.6037   21.0100 C.ar    1  UNL1        0.1139
     20 N          -1.1714  -18.8622   20.6022 N.ar    1  UNL1       -0.2394
     21 C          -1.2512  -17.7836   19.5628 C.ar    1  UNL1        0.1195
     22 C          -2.5695  -17.4467   18.9313 C.ar    1  UNL1        0.1191
     23 N          -3.8079  -18.1883   19.3392 N.ar    1  UNL1       -0.2446
@<TRIPOS>BOND
     1    12    13    1
     2    13    14    1
     3    14    15    1
     4    15    16    1
     5    13    11    1
     6    11    10    1
     7    10     1    1
     8     1     2    2
     9     2    17    1
    10    17    18    1
    11    18    19   ar
    12    19    20   ar
    13    20    21   ar
    14    21    22   ar
    15    22    23   ar
    16     2     3    1
    17     3     4   ar
    18     4     5   ar
    19     5     6   ar
    20     6     7   ar
    21     7     8   ar
    22     8     9    1
    23     9     1    1
    24    23    18   ar
    25     8     3   ar
@<TRIPOS>MOLECULE
*****
 23 25 0 0 0
SMALL
GASTEIGER

@<TRIPOS>ATOM
      1 C          -8.1807  -18.1184   21.6932 C.2     1  UNL1       -0.0420
      2 C          -6.7465  -18.3810   22.0454 C.2     1  UNL1       -0.0240
      3 C          -6.3052  -17.3226   23.0123 C.ar    1  UNL1       -0.0078
      4 C          -4.9959  -17.0751   23.7010 C.ar    1  UNL1       -0.0006
      5 C          -4.8480  -15.9109   24.6351 C.ar    1  UNL1       -0.0000
      6 C          -6.0095  -14.9940   24.8805 C.ar    1  UNL1       -0.0003
      7 C          -7.3189  -15.2415   24.1919 C.ar    1  UNL1       -0.0040
      8 C          -7.4668  -16.4057   23.2578 C.ar    1  UNL1       -0.0184
      9 C          -8.6258  -16.8976   22.4425 C.3     1  UNL1        0.0480
     10 C          -9.0220  -18.9335   20.7563 C.3     1  UNL1        0.0394
     11 C         -10.2651  -18.3438   20.1589 C.3     1  UNL1        0.0766
     12 C         -11.8579  -18.7363   22.1736 C.3     1  UNL1        0.0897
     13 N         -11.3730  -17.8676   21.0510 N.3     1  UNL1       -0.2688
     14 C         -11.9959  -16.5227   20.8205 C.3     1  UNL1        0.1107
     15 C         -11.9361  -15.8914   19.4611 C.3     1  UNL1        0.2105
     16 F         -10.7500  -15.0597   19.0719 F       1  UNL1       -0.2328
     17 C          -5.9018  -19.5049   21.5224 C.3     1  UNL1        0.0730
     18 C          -4.5137  -19.2307   21.0241 C.ar    1  UNL1        0.0825
     19 C          -3.3283  -19.7498   21.7826 C.ar    1  UNL1        0.1139
     20 N          -1.9403  -19.4757   21.2844 N.ar    1  UNL1       -0.2394
     21 C          -1.7377  -18.6825   20.0275 C.ar    1  UNL1        0.1195
     22 C          -2.9231  -18.1634   19.2690 C.ar    1  UNL1        0.1191
     23 N          -4.3111  -18.4375   19.7672 N.ar    1  UNL1       -0.2446
@<TRIPOS>BOND
     1    12    13    1
     2    13    14    1
     3    14    15    1
     4    15    16    1
     5    13    11    1
     6    11    10    1
     7    10     1    1
     8     1     2    2
     9     2    17    1
    10    17    18    1
    11    18    19   ar
    12    19    20   ar
    13    20    21   ar
    14    21    22   ar
    15    22    23   ar
    16     2     3    1
    17     3     4   ar
    18     4     5   ar
    19     5     6   ar
    20     6     7   ar
    21     7     8   ar
    22     8     9    1
    23     9     1    1
    24    23    18   ar
    25     8     3   ar
@<TRIPOS>MOLECULE
*****
 23 25 0 0 0
SMALL
GASTEIGER

@<TRIPOS>ATOM
      1 C         -13.4418   -4.3913   17.2656 C.2     1  UNL1       -0.0420
      2 C         -13.2110   -5.8725   17.3187 C.2     1  UNL1       -0.0240
      3 C         -11.8723   -6.1107   17.9520 C.ar    1  UNL1       -0.0078
      4 C         -11.1196   -7.3700   18.2643 C.ar    1  UNL1       -0.0006
      5 C          -9.7701   -7.2952   18.9149 C.ar    1  UNL1       -0.0000
      6 C          -9.1734   -5.9613   19.2533 C.ar    1  UNL1       -0.0003
      7 C          -9.9262   -4.7020   18.9410 C.ar    1  UNL1       -0.0040
      8 C         -11.2756   -4.7767   18.2904 C.ar    1  UNL1       -0.0184
      9 C         -12.2456   -3.7141   17.8661 C.3     1  UNL1        0.0480
     10 C         -14.6555   -3.7074   16.7097 C.3     1  UNL1        0.0394
     11 C         -15.8235   -3.4096   17.6024 C.3     1  UNL1        0.0766
     12 C         -15.3483   -1.4191   19.2030 C.3     1  UNL1        0.0897
     13 N         -15.5935   -2.8832   18.9880 N.3     1  UNL1       -0.2688
     14 C         -15.6085   -3.8210   20.1587 C.3     1  UNL1        0.1107
     15 C         -14.3380   -4.1168   20.8991 C.3     1  UNL1        0.2105
     16 F         -13.6018   -5.3983   20.6432 F       1  UNL1       -0.2328
     17 C         -14.1536   -6.9298   16.8251 C.3     1  UNL1        0.0730
     18 C         -14.9898   -7.7039   17.8008 C.ar    1  UNL1        0.0825
     19 C         -14.8277   -9.1909   17.9131 C.ar    1  UNL1        0.1139
     20 N         -15.6638   -9.9649   18.8886 N.ar    1  UNL1       -0.2394
     21 C         -16.6620   -9.2519   19.7519 C.ar    1  UNL1        0.1195
     22 C         -16.8241   -7.7650   19.6396 C.ar    1  UNL1        0.1191
     23 N         -15.9880   -6.9909   18.6640 N.ar    1  UNL1       -0.2446
@<TRIPOS>BOND
     1    12    13    1
     2    13    14    1
     3    14    15    1
     4    15    16    1
     5    13    11    1
     6    11    10    1
     7    10     1    1
     8     1     2    2
     9     2    17    1
    10    17    18    1
    11    18    19   ar
    12    19    20   ar
    13    20    21   ar
    14    21    22   ar
    15    22    23   ar
    16     2     3    1
    17     3     4   ar
    18     4     5   ar
    19     5     6   ar
    20     6     7   ar
    21     7     8   ar
    22     8     9    1
    23     9     1    1
    24    23    18   ar
    25     8     3   ar
@<TRIPOS>MOLECULE
*****
 23 25 0 0 0
SMALL
GASTEIGER

@<TRIPOS>ATOM
      1 C         -15.3452   -4.6953   17.5837 C.2     1  UNL1       -0.0420
      2 C         -14.6571   -6.0272   17.5347 C.2     1  UNL1       -0.0240
      3 C         -15.4619   -6.9951   18.3504 C.ar    1  UNL1       -0.0078
      4 C         -15.2684   -8.4498   18.6609 C.ar    1  UNL1       -0.0006
      5 C         -16.2605   -9.1707   19.5246 C.ar    1  UNL1       -0.0000
      6 C         -17.4460   -8.4369   20.0778 C.ar    1  UNL1       -0.0003
      7 C         -17.6395   -6.9823   19.7674 C.ar    1  UNL1       -0.0040
      8 C         -16.6475   -6.2614   18.9036 C.ar    1  UNL1       -0.0184
      9 C         -16.5753   -4.8400   18.4298 C.3     1  UNL1        0.0480
     10 C         -14.8841   -3.4391   16.9058 C.3     1  UNL1        0.0394
     11 C         -14.0033   -2.4712   17.6388 C.3     1  UNL1        0.0766
     12 C         -15.3335   -1.1901   19.4662 C.3     1  UNL1        0.0897
     13 N         -14.2622   -2.1684   19.0849 N.3     1  UNL1       -0.2688
     14 C         -13.4500   -2.8440   20.1497 C.3     1  UNL1        0.1107
     15 C         -14.0554   -3.9442   20.9700 C.3     1  UNL1        0.2105
     16 F         -13.7185   -5.3750   20.6710 F       1  UNL1       -0.2328
     17 C         -13.3871   -6.3369   16.7990 C.3     1  UNL1        0.0730
     18 C         -12.0847   -6.3922   17.5413 C.ar    1  UNL1        0.0825
     19 C         -11.2619   -7.6462   17.5200 C.ar    1  UNL1        0.1139
     20 N          -9.9596   -7.7015   18.2622 N.ar    1  UNL1       -0.2394
     21 C          -9.4801   -6.5028   19.0258 C.ar    1  UNL1        0.1195
     22 C         -10.3029   -5.2488   19.0471 C.ar    1  UNL1        0.1191
     23 N         -11.6052   -5.1934   18.3049 N.ar    1  UNL1       -0.2446
@<TRIPOS>BOND
     1    12    13    1
     2    13    14    1
     3    14    15    1
     4    15    16    1
     5    13    11    1
     6    11    10    1
     7    10     1    1
     8     1     2    2
     9     2    17    1
    10    17    18    1
    11    18    19   ar
    12    19    20   ar
    13    20    21   ar
    14    21    22   ar
    15    22    23   ar
    16     2     3    1
    17     3     4   ar
    18     4     5   ar
    19     5     6   ar
    20     6     7   ar
    21     7     8   ar
    22     8     9    1
    23     9     1    1
    24    23    18   ar
    25     8     3   ar
@<TRIPOS>MOLECULE
*****
 23 25 0 0 0
SMALL
GASTEIGER

@<TRIPOS>ATOM
      1 C         -14.4724   -6.3809   19.3331 C.2     1  UNL1       -0.0420
      2 C         -13.5104   -5.2969   19.7197 C.2     1  UNL1       -0.0240
      3 C         -12.1573   -5.6665   19.1880 C.ar    1  UNL1       -0.0078
      4 C         -10.8271   -4.9776   19.2628 C.ar    1  UNL1       -0.0006
      5 C          -9.6225   -5.6011   18.6224 C.ar    1  UNL1       -0.0000
      6 C          -9.7482   -6.9136   17.9072 C.ar    1  UNL1       -0.0003
      7 C         -11.0785   -7.6026   17.8324 C.ar    1  UNL1       -0.0040
      8 C         -12.2831   -6.9790   18.4729 C.ar    1  UNL1       -0.0184
      9 C         -13.7138   -7.4205   18.5625 C.3     1  UNL1        0.0480
     10 C         -15.9359   -6.4187   19.6597 C.3     1  UNL1        0.0394
     11 C         -16.8768   -7.2064   18.7971 C.3     1  UNL1        0.0766
     12 C         -19.2573   -6.9001   19.7918 C.3     1  UNL1        0.0897
     13 N         -18.1227   -7.7951   19.3895 N.3     1  UNL1       -0.2688
     14 C         -18.2342   -9.2788   19.5796 C.3     1  UNL1        0.1107
     15 C         -17.0312  -10.1528   19.3821 C.3     1  UNL1        0.2105
     16 F         -17.1597  -11.4487   18.6378 F       1  UNL1       -0.2328
     17 C         -13.8430   -4.0603   20.5008 C.3     1  UNL1        0.0730
     18 C         -13.9749   -2.7418   19.7976 C.ar    1  UNL1        0.0825
     19 C         -15.3131   -2.0700   19.7082 C.ar    1  UNL1        0.1139
     20 N         -15.4451   -0.7516   19.0051 N.ar    1  UNL1       -0.2394
     21 C         -14.2387   -0.1050   18.3913 C.ar    1  UNL1        0.1195
     22 C         -12.9006   -0.7768   18.4807 C.ar    1  UNL1        0.1191
     23 N         -12.7686   -2.0952   19.1838 N.ar    1  UNL1       -0.2446
@<TRIPOS>BOND
     1    12    13    1
     2    13    14    1
     3    14    15    1
     4    15    16    1
     5    13    11    1
     6    11    10    1
     7    10     1    1
     8     1     2    2
     9     2    17    1
    10    17    18    1
    11    18    19   ar
    12    19    20   ar
    13    20    21   ar
    14    21    22   ar
    15    22    23   ar
    16     2     3    1
    17     3     4   ar
    18     4     5   ar
    19     5     6   ar
    20     6     7   ar
    21     7     8   ar
    22     8     9    1
    23     9     1    1
    24    23    18   ar
    25     8     3   ar
@<TRIPOS>MOLECULE
*****
 23 25 0 0 0
SMALL
GASTEIGER

@<TRIPOS>ATOM
      1 C         -13.7244   -4.2839   18.9271 C.2     1  UNL1       -0.0420
      2 C         -13.7094   -5.6171   18.2397 C.2     1  UNL1       -0.0240
      3 C         -12.3057   -6.1442   18.2811 C.ar    1  UNL1       -0.0078
      4 C         -11.6936   -7.4113   17.7617 C.ar    1  UNL1       -0.0006
      5 C         -10.2291   -7.6711   17.9553 C.ar    1  UNL1       -0.0000
      6 C          -9.3765   -6.6637   18.6683 C.ar    1  UNL1       -0.0003
      7 C          -9.9885   -5.3966   19.1877 C.ar    1  UNL1       -0.0040
      8 C         -11.4531   -5.1369   18.9941 C.ar    1  UNL1       -0.0184
      9 C         -12.3299   -3.9872   19.3934 C.3     1  UNL1        0.0480
     10 C         -14.9233   -3.4024   19.1153 C.3     1  UNL1        0.0394
     11 C         -15.3949   -2.5278   17.9916 C.3     1  UNL1        0.0766
     12 C         -13.7635   -1.8863   16.0740 C.3     1  UNL1        0.0897
     13 N         -14.4541   -1.5444   17.3610 N.3     1  UNL1       -0.2688
     14 C         -14.2038   -0.2190   18.0173 C.3     1  UNL1        0.1107
     15 C         -12.7990    0.2256   18.2978 C.3     1  UNL1        0.2105
     16 F         -11.7931   -0.7545   18.8245 F       1  UNL1       -0.2328
     17 C         -14.8907   -6.3027   17.6198 C.3     1  UNL1        0.0730
     18 C         -15.5626   -7.4354   18.3380 C.ar    1  UNL1        0.0825
     19 C         -15.1504   -8.8503   18.0588 C.ar    1  UNL1        0.1139
     20 N         -15.8223   -9.9829   18.7770 N.ar    1  UNL1       -0.2394
     21 C         -16.9064   -9.7005   19.7745 C.ar    1  UNL1        0.1195
     22 C         -17.3186   -8.2855   20.0537 C.ar    1  UNL1        0.1191
     23 N         -16.6467   -7.1529   19.3355 N.ar    1  UNL1       -0.2446
@<TRIPOS>BOND
     1    12    13    1
     2    13    14    1
     3    14    15    1
     4    15    16    1
     5    13    11    1
     6    11    10    1
     7    10     1    1
     8     1     2    2
     9     2    17    1
    10    17    18    1
    11    18    19   ar
    12    19    20   ar
    13    20    21   ar
    14    21    22   ar
    15    22    23   ar
    16     2     3    1
    17     3     4   ar
    18     4     5   ar
    19     5     6   ar
    20     6     7   ar
    21     7     8   ar
    22     8     9    1
    23     9     1    1
    24    23    18   ar
    25     8     3   ar
