@<TRIPOS>MOLECULE
*****
 17 18 0 0 0
SMALL
GASTEIGER

@<TRIPOS>ATOM
      1 C         -10.3092  -18.5614   23.9005 C.ar    1  UNL1        0.1386
      2 C          -9.4263  -17.3490   23.9210 C.ar    1  UNL1        0.0370
      3 C          -8.1444  -17.3415   23.1421 C.ar    1  UNL1        0.0062
      4 C          -7.7455  -18.5463   22.3426 C.ar    1  UNL1        0.0373
      5 C          -8.6284  -19.7587   22.3221 C.ar    1  UNL1        0.0062
      6 C          -9.9103  -19.7663   23.1011 C.ar    1  UNL1        0.0370
      7 C          -6.4636  -18.5387   21.5637 C.ar    1  UNL1        0.1806
      8 N          -5.0815  -18.4601   22.1411 N.ar    1  UNL1       -0.1084
      9 N          -4.1024  -18.4812   21.0049 N.ar    1  UNL1       -0.0229
     10 N          -4.8795  -18.5729   19.7251 N.ar    1  UNL1       -0.0464
     11 N          -6.3388  -18.6085   20.0705 N.ar    1  UNL1       -0.2388
     12 H          -7.0839  -18.6672   19.4297 H       1  UNL1        0.1923
     13 O         -11.5911  -18.5690   24.6795 O.3     1  UNL1       -0.4755
     14 C         -12.8853  -18.2384   23.9971 C.3     1  UNL1        0.2054
     15 C         -12.9021  -17.2766   22.8462 C.3     1  UNL1        0.0473
     16 C         -11.6033  -17.3219   20.5964 C.3     1  UNL1        0.0001
     17 C         -12.7525  -17.7840   21.4425 C.3     1  UNL1        0.0038
@<TRIPOS>BOND
     1    16    17    1
     2    17    15    1
     3    15    14    1
     4    14    13    1
     5    13     1    1
     6     1     2   ar
     7     2     3   ar
     8     3     4   ar
     9     4     7    1
    10     7     8   ar
    11     8     9   ar
    12     9    10   ar
    13    10    11   ar
    14     4     5   ar
    15     5     6   ar
    16     6     1   ar
    17    11     7   ar
    18    11    12    1
@<TRIPOS>MOLECULE
*****
 17 18 0 0 0
SMALL
GASTEIGER

@<TRIPOS>ATOM
      1 C          -6.5482  -19.8645   21.9478 C.ar    1  UNL1        0.1386
      2 C          -5.6772  -18.8243   22.5876 C.ar    1  UNL1        0.0370
      3 C          -4.3387  -18.4986   21.9942 C.ar    1  UNL1        0.0062
      4 C          -3.8710  -19.2130   20.7610 C.ar    1  UNL1        0.0373
      5 C          -4.7420  -20.2532   20.1213 C.ar    1  UNL1        0.0062
      6 C          -6.0805  -20.5790   20.7147 C.ar    1  UNL1        0.0370
      7 C          -2.5325  -18.8873   20.1677 C.ar    1  UNL1        0.1806
      8 N          -1.1986  -19.1652   20.7951 N.ar    1  UNL1       -0.1084
      9 N          -0.1345  -18.6761   19.8579 N.ar    1  UNL1       -0.0229
     10 N          -0.8106  -18.0959   18.6511 N.ar    1  UNL1       -0.0464
     11 N          -2.2926  -18.2264   18.8426 N.ar    1  UNL1       -0.2388
     12 H          -2.9862  -17.9304   18.2097 H       1  UNL1        0.1923
     13 O          -7.8867  -20.1903   22.5412 O.3     1  UNL1       -0.4755
     14 C          -9.0104  -19.2013   22.4453 C.3     1  UNL1        0.2054
     15 C         -10.4087  -19.6777   22.1850 C.3     1  UNL1        0.0473
     16 C          -9.9877  -19.5168   19.6263 C.3     1  UNL1        0.0001
     17 C         -10.8909  -19.8538   20.7755 C.3     1  UNL1        0.0038
@<TRIPOS>BOND
     1    16    17    1
     2    17    15    1
     3    15    14    1
     4    14    13    1
     5    13     1    1
     6     1     2   ar
     7     2     3   ar
     8     3     4   ar
     9     4     7    1
    10     7     8   ar
    11     8     9   ar
    12     9    10   ar
    13    10    11   ar
    14     4     5   ar
    15     5     6   ar
    16     6     1   ar
    17    11     7   ar
    18    11    12    1
@<TRIPOS>MOLECULE
*****
 17 18 0 0 0
SMALL
GASTEIGER

@<TRIPOS>ATOM
      1 C         -10.3392  -19.2822   21.4789 C.ar    1  UNL1        0.1386
      2 C          -9.2551  -19.2346   22.5145 C.ar    1  UNL1        0.0370
      3 C          -7.8169  -19.3326   22.0997 C.ar    1  UNL1        0.0062
      4 C          -7.4628  -19.4783   20.6495 C.ar    1  UNL1        0.0373
      5 C          -8.5469  -19.5259   19.6139 C.ar    1  UNL1        0.0062
      6 C          -9.9851  -19.4278   20.0286 C.ar    1  UNL1        0.0370
      7 C          -6.0246  -19.5763   20.2347 C.ar    1  UNL1        0.1806
      8 N          -5.1608  -20.7988   20.3304 N.ar    1  UNL1       -0.1084
      9 N          -3.8000  -20.4471   19.8063 N.ar    1  UNL1       -0.0229
     10 N          -3.8229  -19.0072   19.3867 N.ar    1  UNL1       -0.0464
     11 N          -5.1977  -18.4690   19.6515 N.ar    1  UNL1       -0.2388
     12 H          -5.5037  -17.5503   19.4737 H       1  UNL1        0.1923
     13 O         -11.7774  -19.1841   21.8936 O.3     1  UNL1       -0.4755
     14 C         -12.2298  -18.0542   22.7703 C.3     1  UNL1        0.2054
     15 C         -12.2215  -16.6487   22.2463 C.3     1  UNL1        0.0473
     16 C         -11.3893  -15.9810   19.8774 C.3     1  UNL1        0.0001
     17 C         -12.5031  -16.3872   20.7963 C.3     1  UNL1        0.0038
@<TRIPOS>BOND
     1    16    17    1
     2    17    15    1
     3    15    14    1
     4    14    13    1
     5    13     1    1
     6     1     2   ar
     7     2     3   ar
     8     3     4   ar
     9     4     7    1
    10     7     8   ar
    11     8     9   ar
    12     9    10   ar
    13    10    11   ar
    14     4     5   ar
    15     5     6   ar
    16     6     1   ar
    17    11     7   ar
    18    11    12    1
@<TRIPOS>MOLECULE
*****
 17 18 0 0 0
SMALL
GASTEIGER

@<TRIPOS>ATOM
      1 C          -8.4820  -18.8436   21.0019 C.ar    1  UNL1        0.1386
      2 C          -7.6882  -19.5544   19.9461 C.ar    1  UNL1        0.0370
      3 C          -6.2024  -19.6977   20.0941 C.ar    1  UNL1        0.0062
      4 C          -5.5104  -19.1303   21.2979 C.ar    1  UNL1        0.0373
      5 C          -6.3042  -18.4195   22.3537 C.ar    1  UNL1        0.0062
      6 C          -7.7900  -18.2762   22.2056 C.ar    1  UNL1        0.0370
      7 C          -4.0246  -19.2736   21.4459 C.ar    1  UNL1        0.1806
      8 N          -3.1187  -18.3395   22.1921 N.ar    1  UNL1       -0.1084
      9 N          -1.7181  -18.8648   22.0811 N.ar    1  UNL1       -0.0229
     10 N          -1.7584  -20.1236   21.2664 N.ar    1  UNL1       -0.0464
     11 N          -3.1839  -20.3762   20.8738 N.ar    1  UNL1       -0.2388
     12 H          -3.5104  -21.1329   20.3353 H       1  UNL1        0.1923
     13 O          -9.9678  -18.7003   20.8538 O.3     1  UNL1       -0.4755
     14 C         -10.8844  -19.7120   21.4752 C.3     1  UNL1        0.2054
     15 C         -11.0673  -19.7441   22.9636 C.3     1  UNL1        0.0473
     16 C         -12.8475  -17.8620   23.1604 C.3     1  UNL1        0.0001
     17 C         -11.6162  -18.5447   23.6779 C.3     1  UNL1        0.0038
@<TRIPOS>BOND
     1    16    17    1
     2    17    15    1
     3    15    14    1
     4    14    13    1
     5    13     1    1
     6     1     2   ar
     7     2     3   ar
     8     3     4   ar
     9     4     7    1
    10     7     8   ar
    11     8     9   ar
    12     9    10   ar
    13    10    11   ar
    14     4     5   ar
    15     5     6   ar
    16     6     1   ar
    17    11     7   ar
    18    11    12    1
@<TRIPOS>MOLECULE
*****
 17 18 0 0 0
SMALL
GASTEIGER

@<TRIPOS>ATOM
      1 C          -6.5256  -19.8053   21.9304 C.ar    1  UNL1        0.1386
      2 C          -6.0498  -20.5529   20.7203 C.ar    1  UNL1        0.0370
      3 C          -4.7110  -20.2373   20.1220 C.ar    1  UNL1        0.0062
      4 C          -3.8480  -19.1739   20.7339 C.ar    1  UNL1        0.0373
      5 C          -4.3238  -18.4262   21.9441 C.ar    1  UNL1        0.0062
      6 C          -5.6626  -18.7419   22.5423 C.ar    1  UNL1        0.0370
      7 C          -2.5091  -18.8582   20.1357 C.ar    1  UNL1        0.1806
      8 N          -1.1750  -19.1782   20.7419 N.ar    1  UNL1       -0.1084
      9 N          -0.1107  -18.6848   19.8071 N.ar    1  UNL1       -0.0229
     10 N          -0.7871  -18.0600   18.6230 N.ar    1  UNL1       -0.0464
     11 N          -2.2694  -18.1671   18.8261 N.ar    1  UNL1       -0.2388
     12 H          -2.9632  -17.8411   18.2084 H       1  UNL1        0.1923
     13 O          -7.8644  -20.1210   22.5287 O.3     1  UNL1       -0.4755
     14 C          -9.0290  -19.2076   22.2849 C.3     1  UNL1        0.2054
     15 C          -9.2277  -17.9984   23.1500 C.3     1  UNL1        0.0473
     16 C         -11.0654  -19.2519   24.4922 C.3     1  UNL1        0.0001
     17 C         -10.2941  -17.9979   24.2049 C.3     1  UNL1        0.0038
@<TRIPOS>BOND
     1    16    17    1
     2    17    15    1
     3    15    14    1
     4    14    13    1
     5    13     1    1
     6     1     2   ar
     7     2     3   ar
     8     3     4   ar
     9     4     7    1
    10     7     8   ar
    11     8     9   ar
    12     9    10   ar
    13    10    11   ar
    14     4     5   ar
    15     5     6   ar
    16     6     1   ar
    17    11     7   ar
    18    11    12    1
@<TRIPOS>MOLECULE
*****
 17 18 0 0 0
SMALL
GASTEIGER

@<TRIPOS>ATOM
      1 C         -10.4314  -16.4238   21.8770 C.ar    1  UNL1        0.1386
      2 C         -10.6634  -16.6751   23.3374 C.ar    1  UNL1        0.0370
      3 C          -9.6024  -16.3216   24.3371 C.ar    1  UNL1        0.0062
      4 C          -8.3094  -15.7169   23.8763 C.ar    1  UNL1        0.0373
      5 C          -8.0774  -15.4657   22.4158 C.ar    1  UNL1        0.0062
      6 C          -9.1384  -15.8191   21.4161 C.ar    1  UNL1        0.0370
      7 C          -7.2484  -15.3634   24.8759 C.ar    1  UNL1        0.1806
      8 N          -5.8366  -14.9668   24.5603 N.ar    1  UNL1       -0.1084
      9 N          -5.1285  -14.7028   25.8560 N.ar    1  UNL1       -0.0229
     10 N          -6.1027  -14.9362   26.9725 N.ar    1  UNL1       -0.0464
     11 N          -7.4128  -15.3445   26.3667 N.ar    1  UNL1       -0.2388
     12 H          -8.2361  -15.5619   26.8609 H       1  UNL1        0.1923
     13 O         -11.4925  -16.7773   20.8773 O.3     1  UNL1       -0.4755
     14 C         -11.1911  -17.7501   19.7760 C.3     1  UNL1        0.2054
     15 C         -10.5203  -19.0544   20.0902 C.3     1  UNL1        0.0473
     16 C         -10.5765  -20.0780   22.4775 C.3     1  UNL1        0.0001
     17 C         -11.1337  -19.9921   21.0875 C.3     1  UNL1        0.0038
@<TRIPOS>BOND
     1    16    17    1
     2    17    15    1
     3    15    14    1
     4    14    13    1
     5    13     1    1
     6     1     2   ar
     7     2     3   ar
     8     3     4   ar
     9     4     7    1
    10     7     8   ar
    11     8     9   ar
    12     9    10   ar
    13    10    11   ar
    14     4     5   ar
    15     5     6   ar
    16     6     1   ar
    17    11     7   ar
    18    11    12    1
@<TRIPOS>MOLECULE
*****
 17 18 0 0 0
SMALL
GASTEIGER

@<TRIPOS>ATOM
      1 C          -9.4082  -17.3882   25.2005 C.ar    1  UNL1        0.1386
      2 C         -10.3495  -18.2883   24.4564 C.ar    1  UNL1        0.0370
      3 C         -10.8813  -17.8741   23.1164 C.ar    1  UNL1        0.0062
      4 C         -10.4719  -16.5599   22.5205 C.ar    1  UNL1        0.0373
      5 C          -9.5306  -15.6598   23.2647 C.ar    1  UNL1        0.0062
      6 C          -8.9988  -16.0740   24.6047 C.ar    1  UNL1        0.0370
      7 C         -11.0037  -16.1457   21.1805 C.ar    1  UNL1        0.1806
      8 N         -12.3639  -16.4650   20.6347 N.ar    1  UNL1       -0.1084
      9 N         -12.4696  -15.8562   19.2679 N.ar    1  UNL1       -0.0229
     10 N         -11.1746  -15.1606   18.9689 N.ar    1  UNL1       -0.0464
     11 N         -10.2687  -15.3396   20.1510 N.ar    1  UNL1       -0.2388
     12 H          -9.3525  -14.9894   20.2361 H       1  UNL1        0.1923
     13 O          -8.8764  -17.8023   26.5405 O.3     1  UNL1       -0.4755
     14 C          -8.6737  -16.7771   27.6165 C.3     1  UNL1        0.2054
     15 C          -8.0235  -15.4655   27.2898 C.3     1  UNL1        0.0473
     16 C          -5.7245  -15.4349   26.0800 C.3     1  UNL1        0.0001
     17 C          -6.5300  -15.3353   27.3414 C.3     1  UNL1        0.0038
@<TRIPOS>BOND
     1    16    17    1
     2    17    15    1
     3    15    14    1
     4    14    13    1
     5    13     1    1
     6     1     2   ar
     7     2     3   ar
     8     3     4   ar
     9     4     7    1
    10     7     8   ar
    11     8     9   ar
    12     9    10   ar
    13    10    11   ar
    14     4     5   ar
    15     5     6   ar
    16     6     1   ar
    17    11     7   ar
    18    11    12    1
@<TRIPOS>MOLECULE
*****
 17 18 0 0 0
SMALL
GASTEIGER

@<TRIPOS>ATOM
      1 C          -6.7560  -20.2202   20.5685 C.ar    1  UNL1        0.1386
      2 C          -7.6026  -20.1718   19.3312 C.ar    1  UNL1        0.0370
      3 C          -8.9103  -19.4371   19.3455 C.ar    1  UNL1        0.0062
      4 C          -9.3713  -18.7507   20.5970 C.ar    1  UNL1        0.0373
      5 C          -8.5247  -18.7991   21.8342 C.ar    1  UNL1        0.0062
      6 C          -7.2170  -19.5339   21.8200 C.ar    1  UNL1        0.0370
      7 C         -10.6789  -18.0159   20.6112 C.ar    1  UNL1        0.1806
      8 N         -11.0060  -16.7828   19.8224 N.ar    1  UNL1       -0.1084
      9 N         -12.4183  -16.3900   20.1405 N.ar    1  UNL1       -0.0229
     10 N         -12.9641  -17.3804   21.1259 N.ar    1  UNL1       -0.0464
     11 N         -11.8891  -18.3853   21.4169 N.ar    1  UNL1       -0.2388
     12 H         -11.9646  -19.1526   22.0291 H       1  UNL1        0.1923
     13 O          -5.4484  -20.9550   20.5542 O.3     1  UNL1       -0.4755
     14 C          -4.2065  -20.2667   20.0706 C.3     1  UNL1        0.2054
     15 C          -3.1844  -19.7836   21.0565 C.3     1  UNL1        0.0473
     16 C          -3.6839  -17.9083   22.7839 C.3     1  UNL1        0.0001
     17 C          -3.6093  -19.3647   22.4328 C.3     1  UNL1        0.0038
@<TRIPOS>BOND
     1    16    17    1
     2    17    15    1
     3    15    14    1
     4    14    13    1
     5    13     1    1
     6     1     2   ar
     7     2     3   ar
     8     3     4   ar
     9     4     7    1
    10     7     8   ar
    11     8     9   ar
    12     9    10   ar
    13    10    11   ar
    14     4     5   ar
    15     5     6   ar
    16     6     1   ar
    17    11     7   ar
    18    11    12    1
@<TRIPOS>MOLECULE
*****
 17 18 0 0 0
SMALL
GASTEIGER

@<TRIPOS>ATOM
      1 C          -6.2698  -19.5106   21.2526 C.ar    1  UNL1        0.1386
      2 C          -7.1358  -19.9739   20.1189 C.ar    1  UNL1        0.0370
      3 C          -8.5277  -19.4352   19.9697 C.ar    1  UNL1        0.0062
      4 C          -9.0537  -18.4332   20.9542 C.ar    1  UNL1        0.0373
      5 C          -8.1877  -17.9700   22.0880 C.ar    1  UNL1        0.0062
      6 C          -6.7958  -18.5087   22.2372 C.ar    1  UNL1        0.0370
      7 C         -10.4456  -17.8945   20.8050 C.ar    1  UNL1        0.1806
      8 N         -10.8718  -16.7984   19.8739 N.ar    1  UNL1       -0.1084
      9 N         -12.3454  -16.5838   20.0542 N.ar    1  UNL1       -0.0229
     10 N         -12.8300  -17.5473   21.0967 N.ar    1  UNL1       -0.0464
     11 N         -11.6559  -18.3573   21.5607 N.ar    1  UNL1       -0.2388
     12 H         -11.6761  -19.0680   22.2418 H       1  UNL1        0.1923
     13 O          -4.8778  -20.0493   21.4018 O.3     1  UNL1       -0.4755
     14 C          -3.7032  -19.2218   20.9713 C.3     1  UNL1        0.2054
     15 C          -3.4139  -19.0323   19.5117 C.3     1  UNL1        0.0473
     16 C          -0.9782  -18.1550   19.7300 C.3     1  UNL1        0.0001
     17 C          -2.3277  -18.0929   19.0782 C.3     1  UNL1        0.0038
@<TRIPOS>BOND
     1    16    17    1
     2    17    15    1
     3    15    14    1
     4    14    13    1
     5    13     1    1
     6     1     2   ar
     7     2     3   ar
     8     3     4   ar
     9     4     7    1
    10     7     8   ar
    11     8     9   ar
    12     9    10   ar
    13    10    11   ar
    14     4     5   ar
    15     5     6   ar
    16     6     1   ar
    17    11     7   ar
    18    11    12    1
