@<TRIPOS>MOLECULE
*****
 23 27 0 0 0
SMALL
GASTEIGER

@<TRIPOS>ATOM
      1 O          -5.4729  -17.4556   22.8035 O.2     1  UNL1       -0.2699
      2 C          -6.5724  -18.0709   21.9893 C.2     1  UNL1        0.2506
      3 C          -7.9678  -17.6920   22.3883 C.ar    1  UNL1        0.0731
      4 C          -8.0122  -16.7474   23.5527 C.ar    1  UNL1        0.0357
      5 C          -9.3322  -16.2680   24.0796 C.ar    1  UNL1        0.1404
      6 F          -9.3765  -15.3234   25.2441 F       1  UNL1       -0.2042
      7 C         -10.6079  -16.7331   23.4422 C.ar    1  UNL1        0.0327
      8 C         -10.5635  -17.6777   22.2778 C.ar    1  UNL1        0.0405
      9 C         -11.6476  -18.3036   21.4513 C.ar    1  UNL1        0.1216
     10 N         -10.9975  -19.1699   20.4136 N.ar    1  UNL1       -0.1677
     11 N          -9.5117  -19.0794   20.5987 N.ar    1  UNL1       -0.2490
     12 C          -9.2435  -18.1571   21.7509 C.ar    1  UNL1        0.0839
     13 C          -8.4711  -19.7770   19.7884 C.3     1  UNL1        0.1489
     14 C          -6.9759  -19.7429   19.9044 C.3     1  UNL1        0.1200
     15 N          -6.1309  -18.9836   20.8839 N.am    1  UNL1       -0.2742
     16 C          -3.1592  -19.3483   20.5802 C.3     1  UNL1        0.0917
     17 C          -3.1787  -19.3296   20.5543 C.3     1  UNL1        0.0921
     18 N          -2.3882  -20.0885   21.6058 N.3     1  UNL1       -0.2713
     19 C          -1.6879  -19.5166   20.4090 C.3     1  UNL1        0.0722
     20 C          -2.4686  -18.7670   19.3704 C.3     1  UNL1        0.0191
     21 C          -3.9496  -18.5894   19.5287 C.3     1  UNL1        0.0224
     22 C          -3.5643  -19.0077   20.1241 C.3     1  UNL1        0.0191
     23 C          -2.8584  -19.6855   21.0631 C.3     1  UNL1        0.0722
@<TRIPOS>BOND
     1     1     2    2
     2     2     3    1
     3     3     4   ar
     4     4     5   ar
     5     5     6    1
     6     5     7   ar
     7     7     8   ar
     8     8     9   ar
     9     9    10   ar
    10    10    11   ar
    11    11    12   ar
    12    11    13    1
    13    13    14    1
    14    14    15    1
    15    16    15    1
    16    16    17    1
    17    17    18    1
    18    18    19    1
    19    19    20    1
    20    20    21    1
    21    21    22    1
    22    22    23    1
    23    15     2   am
    24    21    16    1
    25    12     3   ar
    26    23    18    1
    27    12     8   ar
@<TRIPOS>MOLECULE
*****
 23 27 0 0 0
SMALL
GASTEIGER

@<TRIPOS>ATOM
      1 O          -9.0678  -19.5263   20.9753 O.2     1  UNL1       -0.2699
      2 C          -8.2728  -18.5849   21.8308 C.2     1  UNL1        0.2506
      3 C          -6.7861  -18.7827   21.8080 C.ar    1  UNL1        0.0731
      4 C          -6.3547  -19.9087   20.9159 C.ar    1  UNL1        0.0357
      5 C          -4.8985  -20.2411   20.7786 C.ar    1  UNL1        0.1404
      6 F          -4.4671  -21.3672   19.8864 F       1  UNL1       -0.2042
      7 C          -3.8736  -19.4475   21.5335 C.ar    1  UNL1        0.0327
      8 C          -4.3050  -18.3215   22.4257 C.ar    1  UNL1        0.0405
      9 C          -3.5291  -17.3701   23.2876 C.ar    1  UNL1        0.1216
     10 N          -4.5059  -16.4498   23.9576 N.ar    1  UNL1       -0.1677
     11 N          -5.8854  -16.8323   23.5097 N.ar    1  UNL1       -0.2490
     12 C          -5.7613  -17.9891   22.5629 C.ar    1  UNL1        0.0839
     13 C          -7.1651  -16.1863   23.9236 C.3     1  UNL1        0.1489
     14 C          -8.5768  -16.5028   23.5273 C.3     1  UNL1        0.1200
     15 N          -9.0698  -17.5703   22.5959 N.am    1  UNL1       -0.2742
     16 C         -12.0538  -17.6801   22.2217 C.3     1  UNL1        0.0917
     17 C         -12.0386  -17.6879   22.2550 C.3     1  UNL1        0.0921
     18 N         -12.6538  -17.3697   20.9035 N.3     1  UNL1       -0.2713
     19 C         -13.5345  -17.7409   22.0596 C.3     1  UNL1        0.0722
     20 C         -12.9269  -18.0552   23.3945 C.3     1  UNL1        0.0191
     21 C         -11.4386  -17.9983   23.5733 C.3     1  UNL1        0.0224
     22 C         -11.7255  -17.8178   22.8229 C.3     1  UNL1        0.0191
     23 C         -12.2749  -17.5336   21.6159 C.3     1  UNL1        0.0722
@<TRIPOS>BOND
     1     1     2    2
     2     2     3    1
     3     3     4   ar
     4     4     5   ar
     5     5     6    1
     6     5     7   ar
     7     7     8   ar
     8     8     9   ar
     9     9    10   ar
    10    10    11   ar
    11    11    12   ar
    12    11    13    1
    13    13    14    1
    14    14    15    1
    15    16    15    1
    16    16    17    1
    17    17    18    1
    18    18    19    1
    19    19    20    1
    20    20    21    1
    21    21    22    1
    22    22    23    1
    23    15     2   am
    24    21    16    1
    25    12     3   ar
    26    23    18    1
    27    12     8   ar
@<TRIPOS>MOLECULE
*****
 23 27 0 0 0
SMALL
GASTEIGER

@<TRIPOS>ATOM
      1 O          -9.2144  -16.1770   23.5395 O.2     1  UNL1       -0.2699
      2 C          -8.3894  -17.2071   22.8267 C.2     1  UNL1        0.2506
      3 C          -6.9179  -17.1768   23.1162 C.ar    1  UNL1        0.0731
      4 C          -6.5299  -16.1001   24.0858 C.ar    1  UNL1        0.0357
      5 C          -5.0937  -15.9317   24.4843 C.ar    1  UNL1        0.1404
      6 F          -4.7057  -14.8549   25.4540 F       1  UNL1       -0.2042
      7 C          -4.0454  -16.8401   23.9133 C.ar    1  UNL1        0.0327
      8 C          -4.4334  -17.9168   22.9438 C.ar    1  UNL1        0.0405
      9 C          -3.6270  -18.9548   22.2210 C.ar    1  UNL1        0.1216
     10 N          -4.5649  -19.7647   21.3758 N.ar    1  UNL1       -0.1677
     11 N          -5.9510  -19.2272   21.5761 N.ar    1  UNL1       -0.2490
     12 C          -5.8697  -18.0852   22.5452 C.ar    1  UNL1        0.0839
     13 C          -7.2002  -19.7288   20.9326 C.3     1  UNL1        0.1489
     14 C          -8.6158  -19.2537   21.0756 C.3     1  UNL1        0.1200
     15 N          -9.1450  -18.1314   21.9185 N.am    1  UNL1       -0.2742
     16 C         -12.1169  -17.6860   21.7572 C.3     1  UNL1        0.0917
     17 C         -12.1021  -17.7046   21.7861 C.3     1  UNL1        0.0921
     18 N         -12.7014  -16.9500   20.6123 N.3     1  UNL1       -0.2713
     19 C         -13.5918  -17.4772   21.6983 C.3     1  UNL1        0.0722
     20 C         -12.9999  -18.2225   22.8576 C.3     1  UNL1        0.0191
     21 C         -11.5176  -18.4406   22.9310 C.3     1  UNL1        0.0224
     22 C         -11.7958  -18.0262   22.2761 C.3     1  UNL1        0.0191
     23 C         -12.3310  -17.3523   21.2279 C.3     1  UNL1        0.0722
@<TRIPOS>BOND
     1     1     2    2
     2     2     3    1
     3     3     4   ar
     4     4     5   ar
     5     5     6    1
     6     5     7   ar
     7     7     8   ar
     8     8     9   ar
     9     9    10   ar
    10    10    11   ar
    11    11    12   ar
    12    11    13    1
    13    13    14    1
    14    14    15    1
    15    16    15    1
    16    16    17    1
    17    17    18    1
    18    18    19    1
    19    19    20    1
    20    20    21    1
    21    21    22    1
    22    22    23    1
    23    15     2   am
    24    21    16    1
    25    12     3   ar
    26    23    18    1
    27    12     8   ar
@<TRIPOS>MOLECULE
*****
 23 27 0 0 0
SMALL
GASTEIGER

@<TRIPOS>ATOM
      1 O          -8.6359  -18.2322   19.9508 O.2     1  UNL1       -0.2699
      2 C          -9.2690  -18.6378   21.2488 C.2     1  UNL1        0.2506
      3 C         -10.6087  -18.0283   21.5380 C.ar    1  UNL1        0.0731
      4 C         -11.0824  -17.1048   20.4550 C.ar    1  UNL1        0.0357
      5 C         -12.4056  -16.4108   20.5868 C.ar    1  UNL1        0.1404
      6 F         -12.8793  -15.4873   19.5038 F       1  UNL1       -0.2042
      7 C         -13.2552  -16.6403   21.8015 C.ar    1  UNL1        0.0327
      8 C         -12.7815  -17.5638   22.8844 C.ar    1  UNL1        0.0405
      9 C         -13.3969  -17.9824   24.1868 C.ar    1  UNL1        0.1216
     10 N         -12.4539  -18.9352   24.8599 N.ar    1  UNL1       -0.1677
     11 N         -11.2558  -19.1053   23.9736 N.ar    1  UNL1       -0.2490
     12 C         -11.4583  -18.2578   22.7527 C.ar    1  UNL1        0.0839
     13 C         -10.0648  -19.9624   24.2442 C.3     1  UNL1        0.1489
     14 C          -8.8328  -20.1889   23.4189 C.3     1  UNL1        0.1200
     15 N          -8.4786  -19.5994   22.0859 N.am    1  UNL1       -0.2742
     16 C          -5.8300  -20.4688   20.9522 C.3     1  UNL1        0.0917
     17 C          -5.8317  -20.4405   20.9765 C.3     1  UNL1        0.0921
     18 N          -5.7616  -21.5921   19.9890 N.3     1  UNL1       -0.2713
     19 C          -4.5069  -20.8823   20.4036 C.3     1  UNL1        0.0722
     20 C          -4.5761  -19.7448   21.3790 C.3     1  UNL1        0.0191
     21 C          -5.9001  -19.3172   21.9398 C.3     1  UNL1        0.0224
     22 C          -5.9123  -19.9459   21.4082 C.3     1  UNL1        0.0191
     23 C          -5.8497  -20.9743   20.5263 C.3     1  UNL1        0.0722
@<TRIPOS>BOND
     1     1     2    2
     2     2     3    1
     3     3     4   ar
     4     4     5   ar
     5     5     6    1
     6     5     7   ar
     7     7     8   ar
     8     8     9   ar
     9     9    10   ar
    10    10    11   ar
    11    11    12   ar
    12    11    13    1
    13    13    14    1
    14    14    15    1
    15    16    15    1
    16    16    17    1
    17    17    18    1
    18    18    19    1
    19    19    20    1
    20    20    21    1
    21    21    22    1
    22    22    23    1
    23    15     2   am
    24    21    16    1
    25    12     3   ar
    26    23    18    1
    27    12     8   ar
@<TRIPOS>MOLECULE
*****
 23 27 0 0 0
SMALL
GASTEIGER

@<TRIPOS>ATOM
      1 O          -6.3329  -17.8759   23.3185 O.2     1  UNL1       -0.2699
      2 C          -7.7482  -17.6097   22.8990 C.2     1  UNL1        0.2506
      3 C          -8.2110  -18.3370   21.6715 C.ar    1  UNL1        0.0731
      4 C          -7.1534  -19.2167   21.0736 C.ar    1  UNL1        0.0357
      5 C          -7.4519  -20.0159   19.8399 C.ar    1  UNL1        0.1404
      6 F          -6.3942  -20.8957   19.2420 F       1  UNL1       -0.2042
      7 C          -8.8081  -19.9355   19.2040 C.ar    1  UNL1        0.0327
      8 C          -9.8657  -19.0558   19.8019 C.ar    1  UNL1        0.0405
      9 C         -11.2834  -18.7756   19.3999 C.ar    1  UNL1        0.1216
     10 N         -11.8610  -17.8032   20.3851 N.ar    1  UNL1       -0.1677
     11 N         -10.8004  -17.4824   21.3961 N.ar    1  UNL1       -0.2490
     12 C          -9.5672  -18.2566   21.0357 C.ar    1  UNL1        0.0839
     13 C         -10.9327  -16.5586   22.5603 C.3     1  UNL1        0.1489
     14 C          -9.9308  -16.1835   23.6118 C.3     1  UNL1        0.1200
     15 N          -8.5136  -16.6513   23.7625 N.am    1  UNL1       -0.2742
     16 C          -7.0196  -15.5084   26.1117 C.3     1  UNL1        0.0917
     17 C          -7.0536  -15.5234   26.1163 C.3     1  UNL1        0.0921
     18 N          -5.6744  -14.9167   25.9259 N.3     1  UNL1       -0.2713
     19 C          -6.2981  -14.9482   27.2898 C.3     1  UNL1        0.0722
     20 C          -7.6603  -15.5474   27.4779 C.3     1  UNL1        0.0191
     21 C          -8.3988  -16.1151   26.3021 C.3     1  UNL1        0.0224
     22 C          -7.6547  -15.7972   26.1497 C.3     1  UNL1        0.0191
     23 C          -6.4230  -15.2554   25.9796 C.3     1  UNL1        0.0722
@<TRIPOS>BOND
     1     1     2    2
     2     2     3    1
     3     3     4   ar
     4     4     5   ar
     5     5     6    1
     6     5     7   ar
     7     7     8   ar
     8     8     9   ar
     9     9    10   ar
    10    10    11   ar
    11    11    12   ar
    12    11    13    1
    13    13    14    1
    14    14    15    1
    15    16    15    1
    16    16    17    1
    17    17    18    1
    18    18    19    1
    19    19    20    1
    20    20    21    1
    21    21    22    1
    22    22    23    1
    23    15     2   am
    24    21    16    1
    25    12     3   ar
    26    23    18    1
    27    12     8   ar
@<TRIPOS>MOLECULE
*****
 23 27 0 0 0
SMALL
GASTEIGER

@<TRIPOS>ATOM
      1 O          -9.8183  -16.3193   24.2939 O.2     1  UNL1       -0.2699
      2 C          -8.9668  -17.0865   23.3262 C.2     1  UNL1        0.2506
      3 C          -9.6990  -17.7438   22.1940 C.ar    1  UNL1        0.0731
      4 C         -11.1801  -17.5102   22.2352 C.ar    1  UNL1        0.0357
      5 C         -12.0620  -18.0989   21.1744 C.ar    1  UNL1        0.1404
      6 F         -13.5433  -17.8653   21.2156 F       1  UNL1       -0.2042
      7 C         -11.4629  -18.9212   20.0721 C.ar    1  UNL1        0.0327
      8 C          -9.9818  -19.1547   20.0309 C.ar    1  UNL1        0.0405
      9 C          -9.1121  -19.9164   19.0751 C.ar    1  UNL1        0.1216
     10 N          -7.6926  -19.7985   19.5454 N.ar    1  UNL1       -0.1677
     11 N          -7.6850  -18.9639   20.7918 N.ar    1  UNL1       -0.2490
     12 C          -9.0998  -18.5660   21.0918 C.ar    1  UNL1        0.0839
     13 C          -6.4899  -18.5870   21.6017 C.3     1  UNL1        0.1489
     14 C          -6.3933  -17.7627   22.8512 C.3     1  UNL1        0.1200
     15 N          -7.4956  -17.0949   23.6187 N.am    1  UNL1       -0.2742
     16 C          -6.6273  -15.5745   26.0664 C.3     1  UNL1        0.0917
     17 C          -6.6060  -15.5748   26.0357 C.3     1  UNL1        0.0921
     18 N          -7.4751  -15.5664   27.2811 N.3     1  UNL1       -0.2713
     19 C          -6.1772  -14.8145   27.2672 C.3     1  UNL1        0.0722
     20 C          -5.3188  -14.8228   26.0372 C.3     1  UNL1        0.0191
     21 C          -5.7582  -15.5829   24.8210 C.3     1  UNL1        0.0224
     22 C          -6.2624  -15.6078   25.4716 C.3     1  UNL1        0.0191
     23 C          -7.0385  -15.6003   26.5837 C.3     1  UNL1        0.0722
@<TRIPOS>BOND
     1     1     2    2
     2     2     3    1
     3     3     4   ar
     4     4     5   ar
     5     5     6    1
     6     5     7   ar
     7     7     8   ar
     8     8     9   ar
     9     9    10   ar
    10    10    11   ar
    11    11    12   ar
    12    11    13    1
    13    13    14    1
    14    14    15    1
    15    16    15    1
    16    16    17    1
    17    17    18    1
    18    18    19    1
    19    19    20    1
    20    20    21    1
    21    21    22    1
    22    22    23    1
    23    15     2   am
    24    21    16    1
    25    12     3   ar
    26    23    18    1
    27    12     8   ar
@<TRIPOS>MOLECULE
*****
 23 27 0 0 0
SMALL
GASTEIGER

@<TRIPOS>ATOM
      1 O          -6.0162  -19.2536   21.1315 O.2     1  UNL1       -0.2699
      2 C          -6.0744  -18.2076   22.2050 C.2     1  UNL1        0.2506
      3 C          -7.4489  -17.8308   22.6728 C.ar    1  UNL1        0.0731
      4 C          -8.5384  -18.5834   21.9682 C.ar    1  UNL1        0.0357
      5 C          -9.9743  -18.3263   22.3173 C.ar    1  UNL1        0.1404
      6 F         -11.0639  -19.0790   21.6126 F       1  UNL1       -0.2042
      7 C         -10.3209  -17.3165   23.3710 C.ar    1  UNL1        0.0327
      8 C          -9.2313  -16.5639   24.0756 C.ar    1  UNL1        0.0405
      9 C          -9.2671  -15.5168   25.1490 C.ar    1  UNL1        0.1216
     10 N          -7.8532  -15.1267   25.4633 N.ar    1  UNL1       -0.1677
     11 N          -6.9436  -15.9328   24.5842 N.ar    1  UNL1       -0.2490
     12 C          -7.7954  -16.8211   23.7265 C.ar    1  UNL1        0.0839
     13 C          -5.4530  -15.8734   24.5557 C.3     1  UNL1        0.1489
     14 C          -4.4738  -16.6379   23.7149 C.3     1  UNL1        0.1200
     15 N          -4.7504  -17.6767   22.6688 N.am    1  UNL1       -0.2742
     16 C          -2.3191  -18.8416   21.3315 C.3     1  UNL1        0.0917
     17 C          -2.3265  -18.8050   21.3288 C.3     1  UNL1        0.0921
     18 N          -2.0278  -20.2898   21.4404 N.3     1  UNL1       -0.2713
     19 C          -1.1090  -19.3966   20.6608 C.3     1  UNL1        0.0722
     20 C          -1.4039  -17.9300   20.5504 C.3     1  UNL1        0.0191
     21 C          -2.6178  -17.3567   21.2198 C.3     1  UNL1        0.0224
     22 C          -2.4976  -18.1665   21.3084 C.3     1  UNL1        0.0191
     23 C          -2.2309  -19.4925   21.4081 C.3     1  UNL1        0.0722
@<TRIPOS>BOND
     1     1     2    2
     2     2     3    1
     3     3     4   ar
     4     4     5   ar
     5     5     6    1
     6     5     7   ar
     7     7     8   ar
     8     8     9   ar
     9     9    10   ar
    10    10    11   ar
    11    11    12   ar
    12    11    13    1
    13    13    14    1
    14    14    15    1
    15    16    15    1
    16    16    17    1
    17    17    18    1
    18    18    19    1
    19    19    20    1
    20    20    21    1
    21    21    22    1
    22    22    23    1
    23    15     2   am
    24    21    16    1
    25    12     3   ar
    26    23    18    1
    27    12     8   ar
@<TRIPOS>MOLECULE
*****
 23 27 0 0 0
SMALL
GASTEIGER

@<TRIPOS>ATOM
      1 O          -9.4866  -17.0189   25.1246 O.2     1  UNL1       -0.2699
      2 C          -9.4689  -16.4179   23.7503 C.2     1  UNL1        0.2506
      3 C         -10.6956  -16.6552   22.9203 C.ar    1  UNL1        0.0731
      4 C         -11.7391  -17.4668   23.6291 C.ar    1  UNL1        0.0357
      5 C         -13.0298  -17.7957   22.9394 C.ar    1  UNL1        0.1404
      6 F         -14.0734  -18.6074   23.6482 F       1  UNL1       -0.2042
      7 C         -13.2772  -17.3129   21.5409 C.ar    1  UNL1        0.0327
      8 C         -12.2338  -16.5012   20.8321 C.ar    1  UNL1        0.0405
      9 C         -12.1955  -15.8920   19.4620 C.ar    1  UNL1        0.1216
     10 N         -10.8811  -15.1867   19.3048 N.ar    1  UNL1       -0.1677
     11 N         -10.1069  -15.3599   20.5779 N.ar    1  UNL1       -0.2490
     12 C         -10.9430  -16.1723   21.5219 C.ar    1  UNL1        0.0839
     13 C          -8.7450  -14.8250   20.8695 C.3     1  UNL1        0.1489
     14 C          -7.9046  -14.9502   22.1058 C.3     1  UNL1        0.1200
     15 N          -8.2268  -15.6591   23.3878 N.am    1  UNL1       -0.2742
     16 C          -6.0906  -15.5351   25.5039 C.3     1  UNL1        0.0917
     17 C          -6.0819  -15.5443   25.4688 C.3     1  UNL1        0.0921
     18 N          -6.4380  -15.1669   26.8961 N.3     1  UNL1       -0.2713
     19 C          -5.0160  -15.4800   26.5356 C.3     1  UNL1        0.0722
     20 C          -4.6642  -15.8528   25.1259 C.3     1  UNL1        0.0191
     21 C          -5.7345  -15.9125   24.0766 C.3     1  UNL1        0.0224
     22 C          -5.9757  -15.7033   24.8356 C.3     1  UNL1        0.0191
     23 C          -6.2937  -15.3662   26.1103 C.3     1  UNL1        0.0722
@<TRIPOS>BOND
     1     1     2    2
     2     2     3    1
     3     3     4   ar
     4     4     5   ar
     5     5     6    1
     6     5     7   ar
     7     7     8   ar
     8     8     9   ar
     9     9    10   ar
    10    10    11   ar
    11    11    12   ar
    12    11    13    1
    13    13    14    1
    14    14    15    1
    15    16    15    1
    16    16    17    1
    17    17    18    1
    18    18    19    1
    19    19    20    1
    20    20    21    1
    21    21    22    1
    22    22    23    1
    23    15     2   am
    24    21    16    1
    25    12     3   ar
    26    23    18    1
    27    12     8   ar
@<TRIPOS>MOLECULE
*****
 23 27 0 0 0
SMALL
GASTEIGER

@<TRIPOS>ATOM
      1 O          -6.1767  -19.2239   19.8680 O.2     1  UNL1       -0.2699
      2 C          -6.8836  -18.5600   21.0124 C.2     1  UNL1        0.2506
      3 C          -8.3822  -18.5947   20.9599 C.ar    1  UNL1        0.0731
      4 C          -8.9135  -19.3012   19.7481 C.ar    1  UNL1        0.0357
      5 C         -10.3939  -19.4256   19.5414 C.ar    1  UNL1        0.1404
      6 F         -10.9252  -20.1321   18.3294 F       1  UNL1       -0.2042
      7 C         -11.3432  -18.8434   20.5464 C.ar    1  UNL1        0.0327
      8 C         -10.8119  -18.1369   21.7583 C.ar    1  UNL1        0.0405
      9 C         -11.4988  -17.4678   22.9116 C.ar    1  UNL1        0.1216
     10 N         -10.4429  -16.9298   23.8312 N.ar    1  UNL1       -0.1677
     11 N          -9.1033  -17.2665   23.2462 N.ar    1  UNL1       -0.2490
     12 C          -9.3314  -18.0125   21.9650 C.ar    1  UNL1        0.0839
     13 C          -7.7704  -16.9266   23.8241 C.3     1  UNL1        0.1489
     14 C          -6.3929  -17.2224   23.3093 C.3     1  UNL1        0.1200
     15 N          -5.9982  -17.9493   22.0580 N.am    1  UNL1       -0.2742
     16 C          -3.0359  -18.2099   21.5960 C.3     1  UNL1        0.0917
     17 C          -3.0552  -18.2381   21.6111 C.3     1  UNL1        0.0921
     18 N          -2.2715  -17.0914   20.9969 N.3     1  UNL1       -0.2713
     19 C          -1.5692  -18.3614   21.3764 C.3     1  UNL1        0.0722
     20 C          -2.3432  -19.4940   21.9830 C.3     1  UNL1        0.0191
     21 C          -3.8196  -19.3566   22.2102 C.3     1  UNL1        0.0224
     22 C          -3.4379  -18.7087   21.8749 C.3     1  UNL1        0.0191
     23 C          -2.7380  -17.6847   21.3264 C.3     1  UNL1        0.0722
@<TRIPOS>BOND
     1     1     2    2
     2     2     3    1
     3     3     4   ar
     4     4     5   ar
     5     5     6    1
     6     5     7   ar
     7     7     8   ar
     8     8     9   ar
     9     9    10   ar
    10    10    11   ar
    11    11    12   ar
    12    11    13    1
    13    13    14    1
    14    14    15    1
    15    16    15    1
    16    16    17    1
    17    17    18    1
    18    18    19    1
    19    19    20    1
    20    20    21    1
    21    21    22    1
    22    22    23    1
    23    15     2   am
    24    21    16    1
    25    12     3   ar
    26    23    18    1
    27    12     8   ar
