@<TRIPOS>MOLECULE
*****
 32 36 0 0 0
SMALL
GASTEIGER

@<TRIPOS>ATOM
      1 C          -2.7647  -17.7893   23.2812 C.3     1  UNL1        0.0730
      2 N          -3.4186  -18.6939   22.2791 N.3     1  UNL1       -0.2724
      3 C          -2.7125  -19.6304   21.3440 C.3     1  UNL1        0.0724
      4 C          -3.7509  -20.3360   20.5230 C.3     1  UNL1        0.0214
      5 C          -4.9911  -20.8691   19.8691 C.3     1  UNL1        0.0072
      6 C          -5.0987  -19.8356   20.9508 C.3     1  UNL1        0.0350
      7 C          -4.8933  -18.8207   22.0361 C.3     1  UNL1        0.0761
      8 C          -6.5959  -19.7463   20.9340 C.ar    1  UNL1       -0.0215
      9 C          -7.3719  -19.9194   22.2060 C.ar    1  UNL1       -0.0043
     10 C          -8.8692  -19.8302   22.1892 C.ar    1  UNL1        0.0035
     11 C          -9.5905  -19.5678   20.9004 C.ar    1  UNL1        0.0714
     12 C          -8.8145  -19.3948   19.6284 C.ar    1  UNL1        0.0035
     13 C          -7.3172  -19.4840   19.6452 C.ar    1  UNL1       -0.0043
     14 C         -11.0877  -19.4786   20.8836 C.3     1  UNL1        0.4186
     15 F         -12.5850  -19.3894   20.8668 F       1  UNL1       -0.1659
     16 F         -11.1654  -20.5932   21.8844 F       1  UNL1       -0.1659
     17 F         -11.0100  -18.3640   19.8828 F       1  UNL1       -0.1659
     18 C          -3.6019  -17.0476   24.2806 C.3     1  UNL1        0.0294
     19 C          -4.4114  -15.8614   23.8477 C.3     1  UNL1        0.0666
     20 S          -5.7468  -15.5946   24.4769 S.3     1  UNL1       -0.0756
     21 C          -8.5810  -16.5518   25.7808 C.3     1  UNL1        0.1340
     22 N          -8.3090  -16.3400   24.3209 N.ar    1  UNL1       -0.2884
     23 C          -7.0062  -15.9001   23.7216 C.ar    1  UNL1        0.1932
     24 N          -7.1840  -15.8192   22.2344 N.ar    1  UNL1       -0.1221
     25 N          -8.5966  -16.2091   21.9146 N.ar    1  UNL1       -0.1282
     26 C          -9.2919  -16.5310   23.2042 C.ar    1  UNL1        0.1684
     27 C         -10.7196  -16.9674   23.3511 C.ar    1  UNL1        0.0585
     28 C         -11.0623  -18.1245   24.2419 C.ar    1  UNL1        0.0272
     29 C         -12.4899  -18.5607   24.3888 C.ar    1  UNL1        0.1223
     30 N         -13.5748  -17.8399   23.6448 N.ar    1  UNL1       -0.1464
     31 N         -13.2321  -16.6828   22.7540 N.ar    1  UNL1       -0.1463
     32 C         -11.8045  -16.2465   22.6071 C.ar    1  UNL1        0.1252
@<TRIPOS>BOND
     1    21    22    1
     2    22    23   ar
     3    23    20    1
     4    20    19    1
     5    19    18    1
     6    18     1    1
     7     1     2    1
     8     2     3    1
     9     4     3    1
    10     4     5    1
    11     5     6    1
    12     6     8    1
    13     8     9   ar
    14     9    10   ar
    15    10    11   ar
    16    11    14    1
    17    14    15    1
    18    14    16    1
    19    14    17    1
    20    11    12   ar
    21    12    13   ar
    22     6     7    1
    23    23    24   ar
    24    24    25   ar
    25    25    26   ar
    26    26    27    1
    27    27    28   ar
    28    28    29   ar
    29    29    30   ar
    30    30    31   ar
    31    31    32   ar
    32    26    22   ar
    33    32    27   ar
    34     7     2    1
    35     6     4    1
    36    13     8   ar
@<TRIPOS>MOLECULE
*****
 32 36 0 0 0
SMALL
GASTEIGER

@<TRIPOS>ATOM
      1 C          -8.8603  -19.2720   18.9875 C.3     1  UNL1        0.0730
      2 N          -7.8588  -19.4795   20.0847 N.3     1  UNL1       -0.2724
      3 C          -8.1270  -20.1217   21.4135 C.3     1  UNL1        0.0724
      4 C          -6.8472  -20.1204   22.1958 C.3     1  UNL1        0.0214
      5 C          -5.4502  -19.9786   22.7233 C.3     1  UNL1        0.0072
      6 C          -5.7879  -19.4773   21.3505 C.3     1  UNL1        0.0350
      7 C          -6.4131  -19.0813   20.0458 C.3     1  UNL1        0.0761
      8 C          -4.4129  -18.9743   21.0246 C.ar    1  UNL1       -0.0215
      9 C          -3.4877  -18.5525   22.1273 C.ar    1  UNL1       -0.0043
     10 C          -2.1126  -18.0494   21.8014 C.ar    1  UNL1        0.0035
     11 C          -1.6628  -17.9682   20.3728 C.ar    1  UNL1        0.0714
     12 C          -2.5881  -18.3900   19.2700 C.ar    1  UNL1        0.0035
     13 C          -3.9631  -18.8930   19.5959 C.ar    1  UNL1       -0.0043
     14 C          -0.2878  -17.4651   20.0468 C.3     1  UNL1        0.4186
     15 F           1.0873  -16.9621   19.7209 F       1  UNL1       -0.1659
     16 F           0.1094  -18.8406   19.5994 F       1  UNL1       -0.1659
     17 F          -0.6849  -16.0896   20.4943 F       1  UNL1       -0.1659
     18 C         -10.3270  -19.3909   19.2785 C.3     1  UNL1        0.0294
     19 C         -11.1129  -18.1779   19.6796 C.3     1  UNL1        0.0666
     20 S         -11.1853  -17.7746   21.1226 S.3     1  UNL1       -0.0756
     21 C         -10.2256  -17.8943   24.2393 C.3     1  UNL1        0.1340
     22 N          -9.6329  -17.0290   23.1669 N.ar    1  UNL1       -0.2884
     23 C         -10.0741  -16.9740   21.7343 C.ar    1  UNL1        0.1932
     24 N          -9.2088  -15.9779   21.0208 N.ar    1  UNL1       -0.1221
     25 N          -8.2330  -15.4173   22.0124 N.ar    1  UNL1       -0.1282
     26 C          -8.4951  -16.0670   23.3387 C.ar    1  UNL1        0.1684
     27 C          -7.7500  -15.8012   24.6133 C.ar    1  UNL1        0.0585
     28 C          -8.5001  -15.6555   25.9041 C.ar    1  UNL1        0.0272
     29 C          -7.7550  -15.3897   27.1785 C.ar    1  UNL1        0.1223
     30 N          -6.2599  -15.2696   27.1622 N.ar    1  UNL1       -0.1464
     31 N          -5.5098  -15.4152   25.8714 N.ar    1  UNL1       -0.1463
     32 C          -6.2549  -15.6810   24.5970 C.ar    1  UNL1        0.1252
@<TRIPOS>BOND
     1    21    22    1
     2    22    23   ar
     3    23    20    1
     4    20    19    1
     5    19    18    1
     6    18     1    1
     7     1     2    1
     8     2     3    1
     9     4     3    1
    10     4     5    1
    11     5     6    1
    12     6     8    1
    13     8     9   ar
    14     9    10   ar
    15    10    11   ar
    16    11    14    1
    17    14    15    1
    18    14    16    1
    19    14    17    1
    20    11    12   ar
    21    12    13   ar
    22     6     7    1
    23    23    24   ar
    24    24    25   ar
    25    25    26   ar
    26    26    27    1
    27    27    28   ar
    28    28    29   ar
    29    29    30   ar
    30    30    31   ar
    31    31    32   ar
    32    26    22   ar
    33    32    27   ar
    34     7     2    1
    35     6     4    1
    36    13     8   ar
@<TRIPOS>MOLECULE
*****
 32 36 0 0 0
SMALL
GASTEIGER

@<TRIPOS>ATOM
      1 C         -11.2018  -19.6149   23.6273 C.3     1  UNL1        0.0730
      2 N         -10.5026  -19.6511   22.3008 N.3     1  UNL1       -0.2724
      3 C         -11.1648  -19.7216   20.9567 C.3     1  UNL1        0.0724
      4 C         -10.0899  -19.7373   19.9106 C.3     1  UNL1        0.0214
      5 C          -8.8212  -19.7383   19.1105 C.3     1  UNL1        0.0072
      6 C          -8.7634  -19.6766   20.6081 C.3     1  UNL1        0.0350
      7 C          -9.0184  -19.6233   22.0853 C.3     1  UNL1        0.0761
      8 C          -7.2671  -19.6358   20.7057 C.ar    1  UNL1       -0.0215
      9 C          -6.4641  -18.9547   19.6374 C.ar    1  UNL1       -0.0043
     10 C          -4.9678  -18.9140   19.7350 C.ar    1  UNL1        0.0035
     11 C          -4.2745  -19.5544   20.9010 C.ar    1  UNL1        0.0714
     12 C          -5.0776  -20.2355   21.9693 C.ar    1  UNL1        0.0035
     13 C          -6.5739  -20.2762   21.8716 C.ar    1  UNL1       -0.0043
     14 C          -2.7783  -19.5136   20.9986 C.3     1  UNL1        0.4186
     15 F          -1.2820  -19.4729   21.0962 F       1  UNL1       -0.1659
     16 F          -2.6842  -19.3942   19.5063 F       1  UNL1       -0.1659
     17 F          -2.8724  -19.6331   22.4908 F       1  UNL1       -0.1659
     18 C         -12.2896  -18.6122   23.8746 C.3     1  UNL1        0.0294
     19 C         -12.7435  -17.7093   22.7662 C.3     1  UNL1        0.0666
     20 S         -12.1650  -16.3313   22.6369 S.3     1  UNL1       -0.0756
     21 C          -9.8436  -16.5550   24.9195 C.3     1  UNL1        0.1340
     22 N          -9.6248  -16.2568   23.4658 N.ar    1  UNL1       -0.2884
     23 C         -10.6918  -16.1540   22.4166 C.ar    1  UNL1        0.1932
     24 N         -10.0271  -15.8428   21.1085 N.ar    1  UNL1       -0.1221
     25 N          -8.5494  -15.7533   21.3492 N.ar    1  UNL1       -0.1282
     26 C          -8.3007  -16.0092   22.8061 C.ar    1  UNL1        0.1684
     27 C          -6.9627  -16.0161   23.4843 C.ar    1  UNL1        0.0585
     28 C          -5.9076  -16.9906   23.0516 C.ar    1  UNL1        0.0272
     29 C          -4.5697  -16.9975   23.7298 C.ar    1  UNL1        0.1223
     30 N          -4.2869  -16.0300   24.8406 N.ar    1  UNL1       -0.1464
     31 N          -5.3420  -15.0556   25.2733 N.ar    1  UNL1       -0.1463
     32 C          -6.6799  -15.0486   24.5952 C.ar    1  UNL1        0.1252
@<TRIPOS>BOND
     1    21    22    1
     2    22    23   ar
     3    23    20    1
     4    20    19    1
     5    19    18    1
     6    18     1    1
     7     1     2    1
     8     2     3    1
     9     4     3    1
    10     4     5    1
    11     5     6    1
    12     6     8    1
    13     8     9   ar
    14     9    10   ar
    15    10    11   ar
    16    11    14    1
    17    14    15    1
    18    14    16    1
    19    14    17    1
    20    11    12   ar
    21    12    13   ar
    22     6     7    1
    23    23    24   ar
    24    24    25   ar
    25    25    26   ar
    26    26    27    1
    27    27    28   ar
    28    28    29   ar
    29    29    30   ar
    30    30    31   ar
    31    31    32   ar
    32    26    22   ar
    33    32    27   ar
    34     7     2    1
    35     6     4    1
    36    13     8   ar
@<TRIPOS>MOLECULE
*****
 32 36 0 0 0
SMALL
GASTEIGER

@<TRIPOS>ATOM
      1 C          -8.7483  -15.5051   25.3995 C.3     1  UNL1        0.0730
      2 N          -9.1535  -16.9217   25.1184 N.3     1  UNL1       -0.2724
      3 C          -9.6281  -17.9206   26.1317 C.3     1  UNL1        0.0724
      4 C          -9.9231  -19.2044   25.4142 C.3     1  UNL1        0.0214
      5 C         -10.1279  -20.3285   24.4423 C.3     1  UNL1        0.0072
      6 C          -9.6309  -18.9989   23.9574 C.3     1  UNL1        0.0350
      7 C          -9.1552  -17.5881   23.7745 C.3     1  UNL1        0.0761
      8 C          -9.5288  -19.3874   22.5122 C.ar    1  UNL1       -0.0215
      9 C         -10.7714  -19.6799   21.7245 C.ar    1  UNL1       -0.0043
     10 C         -10.6692  -20.0683   20.2792 C.ar    1  UNL1        0.0035
     11 C          -9.3245  -20.1643   19.6217 C.ar    1  UNL1        0.0714
     12 C          -8.0818  -19.8718   20.4094 C.ar    1  UNL1        0.0035
     13 C          -8.1840  -19.4834   21.8546 C.ar    1  UNL1       -0.0043
     14 C          -9.2223  -20.5528   18.1765 C.3     1  UNL1        0.4186
     15 F          -9.1202  -20.9412   16.7312 F       1  UNL1       -0.1659
     16 F          -7.9088  -21.2237   18.4496 F       1  UNL1       -0.1659
     17 F         -10.5358  -19.8819   17.9033 F       1  UNL1       -0.1659
     18 C          -8.3280  -15.1057   26.7828 C.3     1  UNL1        0.0294
     19 C          -6.9899  -15.5294   27.3119 C.3     1  UNL1        0.0666
     20 S          -5.7339  -15.0402   26.6536 S.3     1  UNL1       -0.0756
     21 C          -3.8673  -17.6388   26.0114 C.3     1  UNL1        0.1340
     22 N          -4.4999  -16.7349   24.9951 N.ar    1  UNL1       -0.2884
     23 C          -5.3579  -15.5404   25.2903 C.ar    1  UNL1        0.1932
     24 N          -5.7738  -14.9340   23.9829 N.ar    1  UNL1       -0.1221
     25 N          -5.1729  -15.7537   22.8798 N.ar    1  UNL1       -0.1282
     26 C          -4.3856  -16.8667   23.5054 C.ar    1  UNL1        0.1684
     27 C          -3.6186  -17.9256   22.7702 C.ar    1  UNL1        0.0585
     28 C          -4.3486  -19.0517   22.1002 C.ar    1  UNL1        0.0272
     29 C          -3.5816  -20.1106   21.3651 C.ar    1  UNL1        0.1223
     30 N          -2.0845  -20.0433   21.2999 N.ar    1  UNL1       -0.1464
     31 N          -1.3544  -18.9172   21.9698 N.ar    1  UNL1       -0.1463
     32 C          -2.1215  -17.8583   22.7050 C.ar    1  UNL1        0.1252
@<TRIPOS>BOND
     1    21    22    1
     2    22    23   ar
     3    23    20    1
     4    20    19    1
     5    19    18    1
     6    18     1    1
     7     1     2    1
     8     2     3    1
     9     4     3    1
    10     4     5    1
    11     5     6    1
    12     6     8    1
    13     8     9   ar
    14     9    10   ar
    15    10    11   ar
    16    11    14    1
    17    14    15    1
    18    14    16    1
    19    14    17    1
    20    11    12   ar
    21    12    13   ar
    22     6     7    1
    23    23    24   ar
    24    24    25   ar
    25    25    26   ar
    26    26    27    1
    27    27    28   ar
    28    28    29   ar
    29    29    30   ar
    30    30    31   ar
    31    31    32   ar
    32    26    22   ar
    33    32    27   ar
    34     7     2    1
    35     6     4    1
    36    13     8   ar
@<TRIPOS>MOLECULE
*****
 32 36 0 0 0
SMALL
GASTEIGER

@<TRIPOS>ATOM
      1 C          -8.3115  -15.3434   25.4791 C.3     1  UNL1        0.0730
      2 N          -8.9046  -16.6946   25.2096 N.3     1  UNL1       -0.2724
      3 C          -9.5498  -17.5924   26.2233 C.3     1  UNL1        0.0724
      4 C         -10.0005  -18.8379   25.5193 C.3     1  UNL1        0.0214
      5 C         -10.3307  -19.9440   24.5614 C.3     1  UNL1        0.0072
      6 C          -9.6338  -18.7099   24.0704 C.3     1  UNL1        0.0350
      7 C          -8.9565  -17.3852   23.8791 C.3     1  UNL1        0.0761
      8 C          -9.5400  -19.1424   22.6372 C.ar    1  UNL1       -0.0215
      9 C         -10.7890  -19.4234   21.8554 C.ar    1  UNL1       -0.0043
     10 C         -10.6952  -19.8560   20.4221 C.ar    1  UNL1        0.0035
     11 C          -9.3525  -20.0076   19.7708 C.ar    1  UNL1        0.0714
     12 C          -8.1036  -19.7267   20.5527 C.ar    1  UNL1        0.0035
     13 C          -8.1974  -19.2941   21.9859 C.ar    1  UNL1       -0.0043
     14 C          -9.2588  -20.4402   18.3376 C.3     1  UNL1        0.4186
     15 F          -9.1650  -20.8728   16.9044 F       1  UNL1       -0.1659
     16 F         -10.6305  -19.8900   18.0818 F       1  UNL1       -0.1659
     17 F          -7.8870  -20.9904   18.5934 F       1  UNL1       -0.1659
     18 C          -7.2197  -15.1930   26.4966 C.3     1  UNL1        0.0294
     19 C          -5.7868  -15.3727   26.0912 C.3     1  UNL1        0.0666
     20 S          -5.4071  -16.4745   25.1467 S.3     1  UNL1       -0.0756
     21 C          -3.6793  -18.6340   23.4144 C.3     1  UNL1        0.1340
     22 N          -3.7828  -17.1632   23.1385 N.ar    1  UNL1       -0.2884
     23 C          -4.5770  -16.1706   23.9348 C.ar    1  UNL1        0.1932
     24 N          -4.3954  -14.8208   23.3063 N.ar    1  UNL1       -0.1221
     25 N          -3.4891  -14.9791   22.1217 N.ar    1  UNL1       -0.1282
     26 C          -3.1105  -16.4268   22.0180 C.ar    1  UNL1        0.1684
     27 C          -2.2164  -17.0319   20.9766 C.ar    1  UNL1        0.0585
     28 C          -0.7342  -16.8106   21.0402 C.ar    1  UNL1        0.0272
     29 C           0.1598  -17.4157   19.9987 C.ar    1  UNL1        0.1223
     30 N          -0.4284  -18.2421   18.8937 N.ar    1  UNL1       -0.1464
     31 N          -1.9105  -18.4634   18.8301 N.ar    1  UNL1       -0.1463
     32 C          -2.8046  -17.8583   19.8715 C.ar    1  UNL1        0.1252
@<TRIPOS>BOND
     1    21    22    1
     2    22    23   ar
     3    23    20    1
     4    20    19    1
     5    19    18    1
     6    18     1    1
     7     1     2    1
     8     2     3    1
     9     4     3    1
    10     4     5    1
    11     5     6    1
    12     6     8    1
    13     8     9   ar
    14     9    10   ar
    15    10    11   ar
    16    11    14    1
    17    14    15    1
    18    14    16    1
    19    14    17    1
    20    11    12   ar
    21    12    13   ar
    22     6     7    1
    23    23    24   ar
    24    24    25   ar
    25    25    26   ar
    26    26    27    1
    27    27    28   ar
    28    28    29   ar
    29    29    30   ar
    30    30    31   ar
    31    31    32   ar
    32    26    22   ar
    33    32    27   ar
    34     7     2    1
    35     6     4    1
    36    13     8   ar
@<TRIPOS>MOLECULE
*****
 32 36 0 0 0
SMALL
GASTEIGER

@<TRIPOS>ATOM
      1 C           1.1043    2.8943   22.8445 C.3     1  UNL1        0.0730
      2 N           1.8677    1.7158   23.3721 N.3     1  UNL1       -0.2724
      3 C           2.2943    1.5069   24.7949 C.3     1  UNL1        0.0724
      4 C           3.0288    0.2013   24.8718 C.3     1  UNL1        0.0214
      5 C           3.7035   -1.1183   24.6410 C.3     1  UNL1        0.0072
      6 C           3.0561   -0.3968   23.4964 C.3     1  UNL1        0.0350
      7 C           2.3385    0.5392   22.5696 C.3     1  UNL1        0.0761
      8 C           3.3915   -1.4225   22.4546 C.ar    1  UNL1       -0.0215
      9 C           2.8239   -1.3001   21.0715 C.ar    1  UNL1       -0.0043
     10 C           3.1594   -2.3258   20.0296 C.ar    1  UNL1        0.0035
     11 C           4.0624   -3.4739   20.3709 C.ar    1  UNL1        0.0714
     12 C           4.6300   -3.5963   21.7540 C.ar    1  UNL1        0.0035
     13 C           4.2946   -2.5706   22.7958 C.ar    1  UNL1       -0.0043
     14 C           4.3979   -4.4996   19.3291 C.3     1  UNL1        0.4186
     15 F           4.7333   -5.5253   18.2873 F       1  UNL1       -0.1659
     16 F           5.8545   -4.3563   19.6570 F       1  UNL1       -0.1659
     17 F           2.9412   -4.6429   19.0011 F       1  UNL1       -0.1659
     18 C          -0.2586    2.6995   22.2491 C.3     1  UNL1        0.0294
     19 C          -0.4027    2.4068   20.7850 C.3     1  UNL1        0.0666
     20 S           0.5991    2.9500   19.8095 S.3     1  UNL1       -0.0756
     21 C           3.8493    3.0680   20.0762 C.3     1  UNL1        0.1340
     22 N           3.0667    2.0794   19.2637 N.ar    1  UNL1       -0.2884
     23 C           1.5727    2.0252   19.1411 C.ar    1  UNL1        0.1932
     24 N           1.2233    0.8837   18.2328 N.ar    1  UNL1       -0.1221
     25 N           2.5013    0.2325   17.7940 N.ar    1  UNL1       -0.1282
     26 C           3.6406    0.9715   18.4312 C.ar    1  UNL1        0.1684
     27 C           5.0980    0.6576   18.2649 C.ar    1  UNL1        0.0585
     28 C           5.8636    0.0309   19.3922 C.ar    1  UNL1        0.0272
     29 C           7.3209   -0.2830   19.2259 C.ar    1  UNL1        0.1223
     30 N           8.0127    0.0300   17.9322 N.ar    1  UNL1       -0.1464
     31 N           7.2471    0.6567   16.8049 N.ar    1  UNL1       -0.1463
     32 C           5.7897    0.9706   16.9712 C.ar    1  UNL1        0.1252
@<TRIPOS>BOND
     1    21    22    1
     2    22    23   ar
     3    23    20    1
     4    20    19    1
     5    19    18    1
     6    18     1    1
     7     1     2    1
     8     2     3    1
     9     4     3    1
    10     4     5    1
    11     5     6    1
    12     6     8    1
    13     8     9   ar
    14     9    10   ar
    15    10    11   ar
    16    11    14    1
    17    14    15    1
    18    14    16    1
    19    14    17    1
    20    11    12   ar
    21    12    13   ar
    22     6     7    1
    23    23    24   ar
    24    24    25   ar
    25    25    26   ar
    26    26    27    1
    27    27    28   ar
    28    28    29   ar
    29    29    30   ar
    30    30    31   ar
    31    31    32   ar
    32    26    22   ar
    33    32    27   ar
    34     7     2    1
    35     6     4    1
    36    13     8   ar
@<TRIPOS>MOLECULE
*****
 32 36 0 0 0
SMALL
GASTEIGER

@<TRIPOS>ATOM
      1 C           0.5537    2.0238   24.0881 C.3     1  UNL1        0.0730
      2 N           1.6589    1.0434   24.3478 N.3     1  UNL1       -0.2724
      3 C           2.4363    0.9088   25.6236 C.3     1  UNL1        0.0724
      4 C           3.4386   -0.1923   25.4416 C.3     1  UNL1        0.0214
      5 C           4.3166   -1.3143   24.9725 C.3     1  UNL1        0.0072
      6 C           3.2806   -0.7382   24.0535 C.3     1  UNL1        0.0350
      7 C           2.1807    0.0255   23.3775 C.3     1  UNL1        0.0761
      8 C           3.5857   -1.6356   22.8910 C.ar    1  UNL1       -0.0215
      9 C           4.4065   -2.8744   23.0951 C.ar    1  UNL1       -0.0043
     10 C           4.7118   -3.7719   21.9325 C.ar    1  UNL1        0.0035
     11 C           4.1961   -3.4306   20.5659 C.ar    1  UNL1        0.0714
     12 C           3.3753   -2.1917   20.3618 C.ar    1  UNL1        0.0035
     13 C           3.0701   -1.2943   21.5243 C.ar    1  UNL1       -0.0043
     14 C           4.5013   -4.3280   19.4034 C.3     1  UNL1        0.4186
     15 F           4.8065   -5.2255   18.2409 F       1  UNL1       -0.1659
     16 F           5.8890   -4.5406   19.9318 F       1  UNL1       -0.1659
     17 F           3.1137   -4.1155   18.8750 F       1  UNL1       -0.1659
     18 C           0.7147    3.0717   23.0270 C.3     1  UNL1        0.0294
     19 C          -0.4265    3.3888   22.1067 C.3     1  UNL1        0.0666
     20 S          -0.2491    3.2665   20.6222 S.3     1  UNL1       -0.0756
     21 C           0.8551    0.3800   19.5744 C.3     1  UNL1        0.1340
     22 N           1.6184    1.6713   19.5674 N.ar    1  UNL1       -0.2884
     23 C           1.1108    2.9981   20.0490 C.ar    1  UNL1        0.1932
     24 N           2.2019    4.0093   19.8567 N.ar    1  UNL1       -0.1221
     25 N           3.3837    3.3075   19.2563 N.ar    1  UNL1       -0.1282
     26 C           3.0231    1.8625   19.0775 C.ar    1  UNL1        0.1684
     27 C           3.9114    0.7960   18.5086 C.ar    1  UNL1        0.0585
     28 C           5.2553    0.5339   19.1209 C.ar    1  UNL1        0.0272
     29 C           6.1435   -0.5326   18.5520 C.ar    1  UNL1        0.1223
     30 N           5.6877   -1.3370   17.3707 N.ar    1  UNL1       -0.1464
     31 N           4.3437   -1.0749   16.7584 N.ar    1  UNL1       -0.1463
     32 C           3.4556   -0.0084   17.3273 C.ar    1  UNL1        0.1252
@<TRIPOS>BOND
     1    21    22    1
     2    22    23   ar
     3    23    20    1
     4    20    19    1
     5    19    18    1
     6    18     1    1
     7     1     2    1
     8     2     3    1
     9     4     3    1
    10     4     5    1
    11     5     6    1
    12     6     8    1
    13     8     9   ar
    14     9    10   ar
    15    10    11   ar
    16    11    14    1
    17    14    15    1
    18    14    16    1
    19    14    17    1
    20    11    12   ar
    21    12    13   ar
    22     6     7    1
    23    23    24   ar
    24    24    25   ar
    25    25    26   ar
    26    26    27    1
    27    27    28   ar
    28    28    29   ar
    29    29    30   ar
    30    30    31   ar
    31    31    32   ar
    32    26    22   ar
    33    32    27   ar
    34     7     2    1
    35     6     4    1
    36    13     8   ar
@<TRIPOS>MOLECULE
*****
 32 36 0 0 0
SMALL
GASTEIGER

@<TRIPOS>ATOM
      1 C          -1.0271    4.0759   17.1625 C.3     1  UNL1        0.0730
      2 N          -2.3983    3.9287   17.7526 N.3     1  UNL1       -0.2724
      3 C          -3.6802    3.8028   16.9839 C.3     1  UNL1        0.0724
      4 C          -4.8025    3.6779   17.9713 C.3     1  UNL1        0.0214
      5 C          -5.6958    3.5749   19.1718 C.3     1  UNL1        0.0072
      6 C          -4.2142    3.7267   19.3502 C.3     1  UNL1        0.0350
      7 C          -2.7284    3.8817   19.2151 C.3     1  UNL1        0.0761
      8 C          -4.2345    3.7114   20.8500 C.ar    1  UNL1       -0.0215
      9 C          -5.5390    3.5946   21.5812 C.ar    1  UNL1       -0.0043
     10 C          -5.5593    3.5793   23.0811 C.ar    1  UNL1        0.0035
     11 C          -4.2752    3.6809   23.8496 C.ar    1  UNL1        0.0714
     12 C          -2.9707    3.7977   23.1183 C.ar    1  UNL1        0.0035
     13 C          -2.9504    3.8130   21.6185 C.ar    1  UNL1       -0.0043
     14 C          -4.2955    3.6656   25.3494 C.3     1  UNL1        0.4186
     15 F          -4.3158    3.6503   26.8491 F       1  UNL1       -0.1659
     16 F          -2.8619    3.2245   25.3643 F       1  UNL1       -0.1659
     17 F          -5.7290    4.1067   25.3345 F       1  UNL1       -0.1659
     18 C           0.1176    4.5166   18.0257 C.3     1  UNL1        0.0294
     19 C           1.1728    3.5313   18.4327 C.3     1  UNL1        0.0666
     20 S           0.8486    2.0680   18.4949 S.3     1  UNL1       -0.0756
     21 C           0.8297   -0.4845   20.5280 C.3     1  UNL1        0.1340
     22 N           1.9409   -0.1111   19.5920 N.ar    1  UNL1       -0.2884
     23 C           1.9495    1.0622   18.6575 C.ar    1  UNL1        0.1932
     24 N           3.2523    1.0531   17.9142 N.ar    1  UNL1       -0.1221
     25 N           4.0488   -0.1258   18.3893 N.ar    1  UNL1       -0.1282
     26 C           3.2382   -0.8453   19.4262 C.ar    1  UNL1        0.1684
     27 C           3.6525   -2.0820   20.1673 C.ar    1  UNL1        0.0585
     28 C           3.9882   -2.0045   21.6272 C.ar    1  UNL1        0.0272
     29 C           4.4024   -3.2411   22.3682 C.ar    1  UNL1        0.1223
     30 N           4.4809   -4.5553   21.6493 N.ar    1  UNL1       -0.1464
     31 N           4.1452   -4.6328   20.1894 N.ar    1  UNL1       -0.1463
     32 C           3.7310   -3.3962   19.4484 C.ar    1  UNL1        0.1252
@<TRIPOS>BOND
     1    21    22    1
     2    22    23   ar
     3    23    20    1
     4    20    19    1
     5    19    18    1
     6    18     1    1
     7     1     2    1
     8     2     3    1
     9     4     3    1
    10     4     5    1
    11     5     6    1
    12     6     8    1
    13     8     9   ar
    14     9    10   ar
    15    10    11   ar
    16    11    14    1
    17    14    15    1
    18    14    16    1
    19    14    17    1
    20    11    12   ar
    21    12    13   ar
    22     6     7    1
    23    23    24   ar
    24    24    25   ar
    25    25    26   ar
    26    26    27    1
    27    27    28   ar
    28    28    29   ar
    29    29    30   ar
    30    30    31   ar
    31    31    32   ar
    32    26    22   ar
    33    32    27   ar
    34     7     2    1
    35     6     4    1
    36    13     8   ar
@<TRIPOS>MOLECULE
*****
 32 36 0 0 0
SMALL
GASTEIGER

@<TRIPOS>ATOM
      1 C           4.1634   -0.4776   27.1429 C.3     1  UNL1        0.0730
      2 N           3.5721   -0.2147   25.7897 N.3     1  UNL1       -0.2724
      3 C           2.6819    0.9361   25.4249 C.3     1  UNL1        0.0724
      4 C           2.3268    0.8056   23.9734 C.3     1  UNL1        0.0214
      5 C           2.1502    0.4174   22.5353 C.3     1  UNL1        0.0072
      6 C           2.9976   -0.4260   23.4411 C.3     1  UNL1        0.0350
      7 C           3.7672   -1.0565   24.5636 C.3     1  UNL1        0.0761
      8 C           3.3699   -1.4441   22.4044 C.ar    1  UNL1       -0.0215
      9 C           4.1955   -2.6366   22.7869 C.ar    1  UNL1       -0.0043
     10 C           4.5678   -3.6548   21.7502 C.ar    1  UNL1        0.0035
     11 C           4.1144   -3.4805   20.3310 C.ar    1  UNL1        0.0714
     12 C           3.2887   -2.2880   19.9485 C.ar    1  UNL1        0.0035
     13 C           2.9165   -1.2698   20.9852 C.ar    1  UNL1       -0.0043
     14 C           4.4867   -4.4987   19.2943 C.3     1  UNL1        0.4186
     15 F           4.8590   -5.5168   18.2576 F       1  UNL1       -0.1659
     16 F           3.0770   -4.4922   18.7817 F       1  UNL1       -0.1659
     17 F           5.8964   -4.5051   19.8068 F       1  UNL1       -0.1659
     18 C           4.1895    0.6112   28.1744 C.3     1  UNL1        0.0294
     19 C           3.5971    0.3727   29.5317 C.3     1  UNL1        0.0666
     20 S           2.3600    1.1107   29.9503 S.3     1  UNL1       -0.0756
     21 C           1.5018    3.5080   27.9093 C.3     1  UNL1        0.1340
     22 N           0.7596    2.2215   28.1200 N.ar    1  UNL1       -0.2884
     23 C           1.1541    1.1196   29.0582 C.ar    1  UNL1        0.1932
     24 N           0.1311    0.0283   28.9476 N.ar    1  UNL1       -0.1221
     25 N          -0.8957    0.4557   27.9411 N.ar    1  UNL1       -0.1282
     26 C          -0.5072    1.8112   27.4297 C.ar    1  UNL1        0.1684
     27 C          -1.2545    2.6153   26.4073 C.ar    1  UNL1        0.0585
     28 C          -2.4665    3.4014   26.8109 C.ar    1  UNL1        0.0272
     29 C          -3.2137    4.2053   25.7885 C.ar    1  UNL1        0.1223
     30 N          -2.7489    4.2232   24.3625 N.ar    1  UNL1       -0.1464
     31 N          -1.5368    3.4371   23.9588 N.ar    1  UNL1       -0.1463
     32 C          -0.7896    2.6332   24.9812 C.ar    1  UNL1        0.1252
@<TRIPOS>BOND
     1    21    22    1
     2    22    23   ar
     3    23    20    1
     4    20    19    1
     5    19    18    1
     6    18     1    1
     7     1     2    1
     8     2     3    1
     9     4     3    1
    10     4     5    1
    11     5     6    1
    12     6     8    1
    13     8     9   ar
    14     9    10   ar
    15    10    11   ar
    16    11    14    1
    17    14    15    1
    18    14    16    1
    19    14    17    1
    20    11    12   ar
    21    12    13   ar
    22     6     7    1
    23    23    24   ar
    24    24    25   ar
    25    25    26   ar
    26    26    27    1
    27    27    28   ar
    28    28    29   ar
    29    29    30   ar
    30    30    31   ar
    31    31    32   ar
    32    26    22   ar
    33    32    27   ar
    34     7     2    1
    35     6     4    1
    36    13     8   ar
