@<TRIPOS>MOLECULE
*****
 38 43 0 0 0
SMALL
GASTEIGER

@<TRIPOS>ATOM
      1 C           5.8748   -1.6690   21.3218 C.3     1  UNL1        0.1412
      2 N           6.7867   -2.4633   22.2092 N.3     1  UNL1       -0.2630
      3 C           7.9075   -1.6953   22.8449 C.3     1  UNL1        0.0742
      4 C           8.9757   -2.1949   23.7720 C.3     1  UNL1        0.0347
      5 C           9.1869   -3.5857   24.2923 C.3     1  UNL1        0.0735
      6 N           8.3821   -4.8206   24.0141 N.3     1  UNL1       -0.2727
      7 C           7.1673   -4.9696   23.1468 C.3     1  UNL1        0.0896
      8 C           6.4574   -3.9204   22.3436 C.3     1  UNL1        0.0902
      9 C           8.8545   -6.0720   24.6929 C.3     1  UNL1        0.0575
     10 C           9.4791   -6.3880   26.0196 C.3     1  UNL1        0.0160
     11 C           9.5227   -7.8418   25.6529 C.3     1  UNL1        0.0028
     12 C           8.8982   -7.5259   24.3262 C.3     1  UNL1        0.0160
     13 C           2.7896    1.0610   23.1324 C.ar    1  UNL1       -0.0062
     14 C           3.8001    1.6067   22.1676 C.ar    1  UNL1       -0.0032
     15 C           4.8285    0.6968   21.5640 C.ar    1  UNL1       -0.0028
     16 C           4.8464   -0.7590   21.9254 C.ar    1  UNL1       -0.0005
     17 C           3.8359   -1.3047   22.8902 C.ar    1  UNL1       -0.0028
     18 C           2.8075   -0.3946   23.4938 C.ar    1  UNL1       -0.0032
     19 C           1.7612    1.9711   23.7360 C.3     1  UNL1        0.0992
     20 C           0.1592    1.2969   29.4787 C.3     1  UNL1        0.0897
     21 N           0.5597    1.4654   28.0430 N.3     1  UNL1       -0.2691
     22 C          -0.4646    1.3211   26.9568 C.3     1  UNL1        0.0897
     23 C          -0.0642    1.4897   25.5210 C.3     1  UNL1        0.0899
     24 N           1.3607    1.8025   25.1717 N.3     1  UNL1       -0.2665
     25 C           2.3850    1.9468   26.2579 C.3     1  UNL1        0.0899
     26 C           1.9845    1.7783   27.6936 C.3     1  UNL1        0.0897
     27 C           5.9913   -1.7846   19.8308 C.ar    1  UNL1        0.1798
     28 N           7.2615   -1.7040   19.0368 N.ar    1  UNL1       -0.1110
     29 N           6.9133   -1.8708   17.5874 N.ar    1  UNL1       -0.0229
     30 N           5.4281   -2.0545   17.4855 N.ar    1  UNL1       -0.0428
     31 N           4.8583   -2.0013   18.8720 N.ar    1  UNL1       -0.2108
     32 C           3.4098   -2.1403   19.2359 C.3     1  UNL1        0.1570
     33 C           2.5328   -0.9250   19.3008 C.ar    1  UNL1        0.0022
     34 C           1.3290   -0.9158   20.1956 C.ar    1  UNL1       -0.0023
     35 C           0.4520    0.2993   20.2606 C.ar    1  UNL1       -0.0003
     36 C           0.7790    1.5054   19.4306 C.ar    1  UNL1       -0.0000
     37 C           1.9828    1.4961   18.5358 C.ar    1  UNL1       -0.0003
     38 C           2.8598    0.2809   18.4709 C.ar    1  UNL1       -0.0023
@<TRIPOS>BOND
     1    20    21    1
     2    21    22    1
     3    22    23    1
     4    23    24    1
     5    24    19    1
     6    19    13    1
     7    13    14   ar
     8    14    15   ar
     9    15    16   ar
    10    16     1    1
    11     1    27    1
    12    27    28   ar
    13    28    29   ar
    14    29    30   ar
    15    30    31   ar
    16    31    32    1
    17    32    33    1
    18    33    34   ar
    19    34    35   ar
    20    35    36   ar
    21    36    37   ar
    22    37    38   ar
    23     1     2    1
    24     2     3    1
    25     3     4    1
    26     4     5    1
    27     5     6    1
    28     6     9    1
    29     9    10    1
    30    10    11    1
    31    11    12    1
    32     6     7    1
    33     7     8    1
    34    16    17   ar
    35    17    18   ar
    36    24    25    1
    37    25    26    1
    38    26    21    1
    39    18    13   ar
    40    31    27   ar
    41    38    33   ar
    42     8     2    1
    43    12     9    1
@<TRIPOS>MOLECULE
*****
 38 43 0 0 0
SMALL
GASTEIGER

@<TRIPOS>ATOM
      1 C           5.7746   -1.6690   21.4633 C.3     1  UNL1        0.1412
      2 N           4.7821   -0.6543   21.9486 N.3     1  UNL1       -0.2630
      3 C           4.9470    0.7317   21.3991 C.3     1  UNL1        0.0742
      4 C           4.1265    1.9546   21.6845 C.3     1  UNL1        0.0347
      5 C           2.9387    2.0935   22.5898 C.3     1  UNL1        0.0735
      6 N           2.2778    1.0439   23.4333 N.3     1  UNL1       -0.2727
      7 C           2.6416   -0.4039   23.5799 C.3     1  UNL1        0.0896
      8 C           3.7562   -1.1596   22.9191 C.3     1  UNL1        0.0902
      9 C           1.0970    1.5027   24.2365 C.3     1  UNL1        0.0575
     10 C           0.5792    1.2226   25.6162 C.3     1  UNL1        0.0160
     11 C          -0.5730    2.1516   25.3724 C.3     1  UNL1        0.0028
     12 C          -0.0553    2.4317   23.9928 C.3     1  UNL1        0.0160
     13 C           8.2619   -3.9763   24.4195 C.ar    1  UNL1       -0.0062
     14 C           8.3464   -2.4793   24.3751 C.ar    1  UNL1       -0.0032
     15 C           7.5173   -1.7102   23.3897 C.ar    1  UNL1       -0.0028
     16 C           6.6036   -2.4381   22.4486 C.ar    1  UNL1       -0.0005
     17 C           6.5191   -3.9350   22.4930 C.ar    1  UNL1       -0.0028
     18 C           7.3483   -4.7041   23.4785 C.ar    1  UNL1       -0.0032
     19 C           9.0911   -4.7454   25.4049 C.3     1  UNL1        0.0992
     20 C           7.0215   -5.7212   30.9514 C.3     1  UNL1        0.0897
     21 N           7.5389   -5.4773   29.5648 N.3     1  UNL1       -0.2691
     22 C           8.9021   -5.9675   29.1759 C.3     1  UNL1        0.0897
     23 C           9.4196   -5.7235   27.7893 C.3     1  UNL1        0.0899
     24 N           8.5737   -4.9894   26.7915 N.3     1  UNL1       -0.2665
     25 C           7.2105   -4.4991   27.1803 C.3     1  UNL1        0.0899
     26 C           6.6931   -4.7431   28.5670 C.3     1  UNL1        0.0897
     27 C           5.9378   -1.9145   19.9926 C.ar    1  UNL1        0.1798
     28 N           7.2363   -1.9411   19.2419 N.ar    1  UNL1       -0.1110
     29 N           6.9323   -2.2196   17.7997 N.ar    1  UNL1       -0.0229
     30 N           5.4460   -2.3650   17.6590 N.ar    1  UNL1       -0.0428
     31 N           4.8314   -2.1765   19.0142 N.ar    1  UNL1       -0.2108
     32 C           3.3674   -2.2390   19.3349 C.3     1  UNL1        0.1570
     33 C           2.5406   -0.9876   19.3127 C.ar    1  UNL1        0.0022
     34 C           2.9183    0.1448   18.4043 C.ar    1  UNL1       -0.0023
     35 C           2.0916    1.3962   18.3821 C.ar    1  UNL1       -0.0003
     36 C           0.8872    1.5152   19.2683 C.ar    1  UNL1       -0.0000
     37 C           0.5095    0.3828   20.1766 C.ar    1  UNL1       -0.0003
     38 C           1.3363   -0.8686   20.1988 C.ar    1  UNL1       -0.0023
@<TRIPOS>BOND
     1    20    21    1
     2    21    22    1
     3    22    23    1
     4    23    24    1
     5    24    19    1
     6    19    13    1
     7    13    14   ar
     8    14    15   ar
     9    15    16   ar
    10    16     1    1
    11     1    27    1
    12    27    28   ar
    13    28    29   ar
    14    29    30   ar
    15    30    31   ar
    16    31    32    1
    17    32    33    1
    18    33    34   ar
    19    34    35   ar
    20    35    36   ar
    21    36    37   ar
    22    37    38   ar
    23     1     2    1
    24     2     3    1
    25     3     4    1
    26     4     5    1
    27     5     6    1
    28     6     9    1
    29     9    10    1
    30    10    11    1
    31    11    12    1
    32     6     7    1
    33     7     8    1
    34    16    17   ar
    35    17    18   ar
    36    24    25    1
    37    25    26    1
    38    26    21    1
    39    18    13   ar
    40    31    27   ar
    41    38    33   ar
    42     8     2    1
    43    12     9    1
@<TRIPOS>MOLECULE
*****
 38 43 0 0 0
SMALL
GASTEIGER

@<TRIPOS>ATOM
      1 C           4.0188    0.1780   22.2890 C.3     1  UNL1        0.1412
      2 N           3.0143    0.4881   23.3589 N.3     1  UNL1       -0.2630
      3 C           1.6702    0.9470   22.8763 C.3     1  UNL1        0.0742
      4 C           0.4664    1.3294   23.6856 C.3     1  UNL1        0.0347
      5 C           0.3096    1.3474   25.1771 C.3     1  UNL1        0.0735
      6 N           1.3176    0.9875   26.2281 N.3     1  UNL1       -0.2727
      7 C           2.7315    0.5206   26.0468 C.3     1  UNL1        0.0896
      8 C           3.4866    0.2984   24.7698 C.3     1  UNL1        0.0902
      9 C           0.8499    1.1107   27.6479 C.3     1  UNL1        0.0575
     10 C           0.1899    2.1872   28.4576 C.3     1  UNL1        0.0160
     11 C           0.1884    1.2850   29.6559 C.3     1  UNL1        0.0028
     12 C           0.8484    0.2085   28.8463 C.3     1  UNL1        0.0160
     13 C           6.6244   -3.4741   22.6394 C.ar    1  UNL1       -0.0062
     14 C           5.1344   -3.6019   22.7553 C.ar    1  UNL1       -0.0032
     15 C           4.2659   -2.3846   22.6385 C.ar    1  UNL1       -0.0028
     16 C           4.8874   -1.0393   22.4058 C.ar    1  UNL1       -0.0005
     17 C           6.3774   -0.9115   22.2898 C.ar    1  UNL1       -0.0028
     18 C           7.2459   -2.1290   22.4066 C.ar    1  UNL1       -0.0032
     19 C           7.4930   -4.6915   22.7562 C.3     1  UNL1        0.0992
     20 C           8.2324   -7.3494   28.0842 C.3     1  UNL1        0.0897
     21 N           8.0476   -6.6850   26.7522 N.3     1  UNL1       -0.2691
     22 C           8.2219   -7.4751   25.4892 C.3     1  UNL1        0.0897
     23 C           8.0371   -6.8107   24.1571 C.3     1  UNL1        0.0899
     24 N           7.6779   -5.3560   24.0882 N.3     1  UNL1       -0.2665
     25 C           7.5035   -4.5657   25.3511 C.3     1  UNL1        0.0899
     26 C           7.6883   -5.2302   26.6831 C.3     1  UNL1        0.0897
     27 C           4.1548    1.0853   21.1023 C.ar    1  UNL1        0.1798
     28 N           4.8041    2.4375   21.0960 N.ar    1  UNL1       -0.1110
     29 N           4.7158    2.9876   19.7033 N.ar    1  UNL1       -0.0229
     30 N           4.0120    1.9754   18.8489 N.ar    1  UNL1       -0.0428
     31 N           3.6653    0.7997   19.7134 N.ar    1  UNL1       -0.2108
     32 C           2.9539   -0.4433   19.2675 C.3     1  UNL1        0.1570
     33 C           3.7045   -1.7370   19.1534 C.ar    1  UNL1        0.0022
     34 C           2.9895   -3.0396   19.3581 C.ar    1  UNL1       -0.0023
     35 C           3.7400   -4.3332   19.2440 C.ar    1  UNL1       -0.0003
     36 C           5.2057   -4.3243   18.9251 C.ar    1  UNL1       -0.0000
     37 C           5.9208   -3.0217   18.7204 C.ar    1  UNL1       -0.0003
     38 C           5.1702   -1.7280   18.8345 C.ar    1  UNL1       -0.0023
@<TRIPOS>BOND
     1    20    21    1
     2    21    22    1
     3    22    23    1
     4    23    24    1
     5    24    19    1
     6    19    13    1
     7    13    14   ar
     8    14    15   ar
     9    15    16   ar
    10    16     1    1
    11     1    27    1
    12    27    28   ar
    13    28    29   ar
    14    29    30   ar
    15    30    31   ar
    16    31    32    1
    17    32    33    1
    18    33    34   ar
    19    34    35   ar
    20    35    36   ar
    21    36    37   ar
    22    37    38   ar
    23     1     2    1
    24     2     3    1
    25     3     4    1
    26     4     5    1
    27     5     6    1
    28     6     9    1
    29     9    10    1
    30    10    11    1
    31    11    12    1
    32     6     7    1
    33     7     8    1
    34    16    17   ar
    35    17    18   ar
    36    24    25    1
    37    25    26    1
    38    26    21    1
    39    18    13   ar
    40    31    27   ar
    41    38    33   ar
    42     8     2    1
    43    12     9    1
@<TRIPOS>MOLECULE
*****
 38 43 0 0 0
SMALL
GASTEIGER

@<TRIPOS>ATOM
      1 C           5.8809   -1.2348   21.2105 C.3     1  UNL1        0.1412
      2 N           6.5672   -2.1175   22.2104 N.3     1  UNL1       -0.2630
      3 C           7.5964   -1.4474   23.0717 C.3     1  UNL1        0.0742
      4 C           8.4462   -2.0479   24.1522 C.3     1  UNL1        0.0347
      5 C           8.4765   -3.4666   24.6382 C.3     1  UNL1        0.0735
      6 N           7.6647   -4.6353   24.1639 N.3     1  UNL1       -0.2727
      7 C           6.6220   -4.6740   23.0863 C.3     1  UNL1        0.0896
      8 C           6.1336   -3.5534   22.2170 C.3     1  UNL1        0.0902
      9 C           7.9308   -5.9376   24.8590 C.3     1  UNL1        0.0575
     10 C           8.3315   -7.3137   24.4164 C.3     1  UNL1        0.0160
     11 C           8.3071   -7.7794   25.8421 C.3     1  UNL1        0.0028
     12 C           7.9065   -6.4033   26.2848 C.3     1  UNL1        0.0160
     13 C           3.3951    2.2444   22.6123 C.ar    1  UNL1       -0.0062
     14 C           4.3720    2.4252   21.4885 C.ar    1  UNL1       -0.0032
     15 C           5.2006    1.2655   21.0212 C.ar    1  UNL1       -0.0028
     16 C           5.0523   -0.0751   21.6778 C.ar    1  UNL1       -0.0005
     17 C           4.0754   -0.2559   22.8015 C.ar    1  UNL1       -0.0028
     18 C           3.2468    0.9040   23.2688 C.ar    1  UNL1       -0.0032
     19 C           2.5664    3.4042   23.0796 C.3     1  UNL1        0.0992
     20 C          -2.6319    4.6654   20.3618 C.3     1  UNL1        0.0897
     21 N          -1.3323    4.3501   21.0413 N.3     1  UNL1       -0.2691
     22 C          -1.2968    3.3651   22.1720 C.3     1  UNL1        0.0897
     23 C           0.0028    3.0498   22.8515 C.3     1  UNL1        0.0899
     24 N           1.2668    3.7195   22.4002 N.3     1  UNL1       -0.2665
     25 C           1.2314    4.7044   21.2695 C.3     1  UNL1        0.0899
     26 C          -0.0682    5.0197   20.5900 C.3     1  UNL1        0.0897
     27 C           6.0233   -1.5120   19.7432 C.ar    1  UNL1        0.1798
     28 N           7.2966   -1.4460   18.9530 N.ar    1  UNL1       -0.1110
     29 N           6.9777   -1.7970   17.5299 N.ar    1  UNL1       -0.0229
     30 N           5.5073   -2.0798   17.4406 N.ar    1  UNL1       -0.0428
     31 N           4.9175   -1.9036   18.8085 N.ar    1  UNL1       -0.2108
     32 C           3.4750   -2.0870   19.1770 C.3     1  UNL1        0.1570
     33 C           2.5737   -0.8938   19.2956 C.ar    1  UNL1        0.0022
     34 C           1.4475   -0.9001   20.2864 C.ar    1  UNL1       -0.0023
     35 C           0.5463    0.2930   20.4051 C.ar    1  UNL1       -0.0003
     36 C           0.7712    1.4925   19.5330 C.ar    1  UNL1       -0.0000
     37 C           1.8975    1.4989   18.5422 C.ar    1  UNL1       -0.0003
     38 C           2.7988    0.3057   18.4235 C.ar    1  UNL1       -0.0023
@<TRIPOS>BOND
     1    20    21    1
     2    21    22    1
     3    22    23    1
     4    23    24    1
     5    24    19    1
     6    19    13    1
     7    13    14   ar
     8    14    15   ar
     9    15    16   ar
    10    16     1    1
    11     1    27    1
    12    27    28   ar
    13    28    29   ar
    14    29    30   ar
    15    30    31   ar
    16    31    32    1
    17    32    33    1
    18    33    34   ar
    19    34    35   ar
    20    35    36   ar
    21    36    37   ar
    22    37    38   ar
    23     1     2    1
    24     2     3    1
    25     3     4    1
    26     4     5    1
    27     5     6    1
    28     6     9    1
    29     9    10    1
    30    10    11    1
    31    11    12    1
    32     6     7    1
    33     7     8    1
    34    16    17   ar
    35    17    18   ar
    36    24    25    1
    37    25    26    1
    38    26    21    1
    39    18    13   ar
    40    31    27   ar
    41    38    33   ar
    42     8     2    1
    43    12     9    1
@<TRIPOS>MOLECULE
*****
 38 43 0 0 0
SMALL
GASTEIGER

@<TRIPOS>ATOM
      1 C           6.0527   -2.3965   21.1486 C.3     1  UNL1        0.1412
      2 N           6.7700   -3.5602   21.7662 N.3     1  UNL1       -0.2630
      3 C           7.8037   -4.2202   20.9026 C.3     1  UNL1        0.0742
      4 C           8.6815   -5.3931   21.2253 C.3     1  UNL1        0.0347
      5 C           8.7423   -6.1954   22.4911 C.3     1  UNL1        0.0735
      6 N           7.9403   -6.0233   23.7470 N.3     1  UNL1       -0.2727
      7 C           6.8795   -5.0061   24.0472 C.3     1  UNL1        0.0896
      8 C           6.3587   -3.9099   23.1656 C.3     1  UNL1        0.0902
      9 C           8.2386   -6.9969   24.8483 C.3     1  UNL1        0.0575
     10 C           7.4803   -7.5286   26.0283 C.3     1  UNL1        0.0160
     11 C           8.6605   -8.3740   26.4059 C.3     1  UNL1        0.0028
     12 C           9.4188   -7.8424   25.2259 C.3     1  UNL1        0.0160
     13 C           3.8600    0.5390   23.7610 C.ar    1  UNL1       -0.0062
     14 C           3.2926   -0.8304   23.5316 C.ar    1  UNL1       -0.0032
     15 C           4.0234   -1.8089   22.6608 C.ar    1  UNL1       -0.0028
     16 C           5.3219   -1.4180   22.0194 C.ar    1  UNL1       -0.0005
     17 C           5.8893   -0.0486   22.2488 C.ar    1  UNL1       -0.0028
     18 C           5.1584    0.9299   23.1196 C.ar    1  UNL1       -0.0032
     19 C           3.1291    1.5176   24.6318 C.3     1  UNL1        0.0992
     20 C          -1.0646    5.0940   22.2609 C.3     1  UNL1        0.0897
     21 N          -0.0162    4.1999   22.8536 N.3     1  UNL1       -0.2691
     22 C           1.4329    4.5742   22.7531 C.3     1  UNL1        0.0897
     23 C           2.4814    3.6801   23.3459 C.3     1  UNL1        0.0899
     24 N           2.0807    2.4117   24.0391 N.3     1  UNL1       -0.2665
     25 C           0.6317    2.0373   24.1396 C.3     1  UNL1        0.0899
     26 C          -0.4167    2.9314   23.5468 C.3     1  UNL1        0.0897
     27 C           6.0664   -2.2114   19.6601 C.ar    1  UNL1        0.1798
     28 N           7.2879   -2.1039   18.7962 N.ar    1  UNL1       -0.1110
     29 N           6.8374   -1.9274   17.3764 N.ar    1  UNL1       -0.0229
     30 N           5.3375   -1.9259   17.3628 N.ar    1  UNL1       -0.0428
     31 N           4.8610   -2.1014   18.7742 N.ar    1  UNL1       -0.2108
     32 C           3.4302   -2.1571   19.2213 C.3     1  UNL1        0.1570
     33 C           2.7242   -0.9000   19.6351 C.ar    1  UNL1        0.0022
     34 C           3.4177    0.4245   19.5132 C.ar    1  UNL1       -0.0023
     35 C           2.7118    1.6816   19.9270 C.ar    1  UNL1       -0.0003
     36 C           1.3123    1.6142   20.4628 C.ar    1  UNL1       -0.0000
     37 C           0.6189    0.2897   20.5848 C.ar    1  UNL1       -0.0003
     38 C           1.3248   -0.9674   20.1709 C.ar    1  UNL1       -0.0023
@<TRIPOS>BOND
     1    20    21    1
     2    21    22    1
     3    22    23    1
     4    23    24    1
     5    24    19    1
     6    19    13    1
     7    13    14   ar
     8    14    15   ar
     9    15    16   ar
    10    16     1    1
    11     1    27    1
    12    27    28   ar
    13    28    29   ar
    14    29    30   ar
    15    30    31   ar
    16    31    32    1
    17    32    33    1
    18    33    34   ar
    19    34    35   ar
    20    35    36   ar
    21    36    37   ar
    22    37    38   ar
    23     1     2    1
    24     2     3    1
    25     3     4    1
    26     4     5    1
    27     5     6    1
    28     6     9    1
    29     9    10    1
    30    10    11    1
    31    11    12    1
    32     6     7    1
    33     7     8    1
    34    16    17   ar
    35    17    18   ar
    36    24    25    1
    37    25    26    1
    38    26    21    1
    39    18    13   ar
    40    31    27   ar
    41    38    33   ar
    42     8     2    1
    43    12     9    1
@<TRIPOS>MOLECULE
*****
 38 43 0 0 0
SMALL
GASTEIGER

@<TRIPOS>ATOM
      1 C           4.2801   -2.5331   21.4762 C.3     1  UNL1        0.1412
      2 N           4.7514   -2.5452   22.9001 N.3     1  UNL1       -0.2630
      3 C           4.0602   -1.5853   23.8226 C.3     1  UNL1        0.0742
      4 C           4.2985   -1.3586   25.2862 C.3     1  UNL1        0.0347
      5 C           5.2868   -2.0358   26.1886 C.3     1  UNL1        0.0735
      6 N           6.2810   -3.1070   25.8505 N.3     1  UNL1       -0.2727
      7 C           6.5323   -3.7655   24.5264 C.3     1  UNL1        0.0896
      8 C           5.8516   -3.5153   23.2134 C.3     1  UNL1        0.0902
      9 C           7.1369   -3.5825   26.9868 C.3     1  UNL1        0.0575
     10 C           7.3787   -3.1273   28.3955 C.3     1  UNL1        0.0160
     11 C           8.3475   -4.2551   28.5937 C.3     1  UNL1        0.0028
     12 C           8.1058   -4.7105   27.1851 C.3     1  UNL1        0.0160
     13 C           2.6670    1.2607   19.6721 C.ar    1  UNL1       -0.0062
     14 C           4.0170    1.2560   20.3260 C.ar    1  UNL1       -0.0032
     15 C           4.5547   -0.0085   20.9273 C.ar    1  UNL1       -0.0028
     16 C           3.7423   -1.2685   20.8748 C.ar    1  UNL1       -0.0005
     17 C           2.3924   -1.2639   20.2210 C.ar    1  UNL1       -0.0028
     18 C           1.8547    0.0008   19.6196 C.ar    1  UNL1       -0.0032
     19 C           2.1293    2.5254   19.0707 C.3     1  UNL1        0.0992
     20 C          -3.6351    4.0001   19.8430 C.3     1  UNL1        0.0897
     21 N          -2.1940    3.6314   19.6499 N.3     1  UNL1       -0.2691
     22 C          -1.3737    3.1740   20.8194 C.3     1  UNL1        0.0897
     23 C           0.0674    2.8053   20.6264 C.3     1  UNL1        0.0899
     24 N           0.6882    2.8941   19.2638 N.3     1  UNL1       -0.2665
     25 C          -0.1321    3.3515   18.0943 C.3     1  UNL1        0.0899
     26 C          -1.5732    3.7201   18.2873 C.3     1  UNL1        0.0897
     27 C           4.3464   -3.7857   20.6536 C.ar    1  UNL1        0.1798
     28 N           3.4292   -4.9668   20.7704 N.ar    1  UNL1       -0.1110
     29 N           3.8575   -5.9882   19.7588 N.ar    1  UNL1       -0.0229
     30 N           5.0395   -5.4383   19.0168 N.ar    1  UNL1       -0.0428
     31 N           5.3417   -4.0771   19.5698 N.ar    1  UNL1       -0.2108
     32 C           6.4452   -3.1670   19.1183 C.3     1  UNL1        0.1570
     33 C           6.1219   -1.9198   18.3502 C.ar    1  UNL1        0.0022
     34 C           4.7995   -1.7890   17.6546 C.ar    1  UNL1       -0.0023
     35 C           4.4761   -0.5419   16.8865 C.ar    1  UNL1       -0.0003
     36 C           5.4754    0.5745   16.8140 C.ar    1  UNL1       -0.0000
     37 C           6.7979    0.4437   17.5096 C.ar    1  UNL1       -0.0003
     38 C           7.1212   -0.8035   18.2778 C.ar    1  UNL1       -0.0023
@<TRIPOS>BOND
     1    20    21    1
     2    21    22    1
     3    22    23    1
     4    23    24    1
     5    24    19    1
     6    19    13    1
     7    13    14   ar
     8    14    15   ar
     9    15    16   ar
    10    16     1    1
    11     1    27    1
    12    27    28   ar
    13    28    29   ar
    14    29    30   ar
    15    30    31   ar
    16    31    32    1
    17    32    33    1
    18    33    34   ar
    19    34    35   ar
    20    35    36   ar
    21    36    37   ar
    22    37    38   ar
    23     1     2    1
    24     2     3    1
    25     3     4    1
    26     4     5    1
    27     5     6    1
    28     6     9    1
    29     9    10    1
    30    10    11    1
    31    11    12    1
    32     6     7    1
    33     7     8    1
    34    16    17   ar
    35    17    18   ar
    36    24    25    1
    37    25    26    1
    38    26    21    1
    39    18    13   ar
    40    31    27   ar
    41    38    33   ar
    42     8     2    1
    43    12     9    1
@<TRIPOS>MOLECULE
*****
 38 43 0 0 0
SMALL
GASTEIGER

@<TRIPOS>ATOM
      1 C           1.8362    2.4172   23.1079 C.3     1  UNL1        0.1412
      2 N           1.9988    1.2518   22.1776 N.3     1  UNL1       -0.2630
      3 C           0.8826    1.0403   21.1980 C.3     1  UNL1        0.0742
      4 C           0.7480   -0.0232   20.1488 C.3     1  UNL1        0.0347
      5 C           1.6963   -1.1379   19.8200 C.3     1  UNL1        0.0735
      6 N           3.0134   -1.4644   20.4592 N.3     1  UNL1       -0.2727
      7 C           3.7075   -0.7569   21.5851 C.3     1  UNL1        0.0896
      8 C           3.2559    0.4520   22.3498 C.3     1  UNL1        0.0902
      9 C           3.7313   -2.6560   19.8984 C.3     1  UNL1        0.0575
     10 C           3.3124   -3.9108   19.1912 C.3     1  UNL1        0.0160
     11 C           4.7467   -4.3413   19.1052 C.3     1  UNL1        0.0028
     12 C           5.1657   -3.0866   19.8124 C.3     1  UNL1        0.0160
     13 C           0.4720    1.7426   27.3427 C.ar    1  UNL1       -0.0062
     14 C           1.6336    2.6499   27.0645 C.ar    1  UNL1       -0.0032
     15 C           2.0884    2.8748   25.6529 C.ar    1  UNL1       -0.0028
     16 C           1.3814    2.1923   24.5194 C.ar    1  UNL1       -0.0005
     17 C           0.2198    1.2849   24.7977 C.ar    1  UNL1       -0.0028
     18 C          -0.2348    1.0601   26.2094 C.ar    1  UNL1       -0.0032
     19 C           0.0173    1.5177   28.7544 C.3     1  UNL1        0.0992
     20 C           3.9365   -0.3097   32.9137 C.3     1  UNL1        0.0897
     21 N           2.9567    0.1471   31.8738 N.3     1  UNL1       -0.2691
     22 C           2.7575   -0.6597   30.6251 C.3     1  UNL1        0.0897
     23 C           1.7777   -0.2029   29.5852 C.3     1  UNL1        0.0899
     24 N           0.9971    1.0608   29.7942 N.3     1  UNL1       -0.2665
     25 C           1.1962    1.8677   31.0428 C.3     1  UNL1        0.0899
     26 C           2.1761    1.4108   32.0827 C.3     1  UNL1        0.0897
     27 C           2.1283    3.8074   22.6265 C.ar    1  UNL1        0.1798
     28 N           3.4885    4.3798   22.3575 N.ar    1  UNL1       -0.1110
     29 N           3.3124    5.7955   21.8943 N.ar    1  UNL1       -0.0229
     30 N           1.8433    6.0982   21.8770 N.ar    1  UNL1       -0.0428
     31 N           1.1115    4.8695   22.3295 N.ar    1  UNL1       -0.2108
     32 C          -0.3759    4.7278   22.4618 C.3     1  UNL1        0.1570
     33 C          -1.0000    4.6083   23.8206 C.ar    1  UNL1        0.0022
     34 C          -0.4044    5.3404   24.9865 C.ar    1  UNL1       -0.0023
     35 C          -1.0284    5.2210   26.3453 C.ar    1  UNL1       -0.0003
     36 C          -2.2482    4.3694   26.5381 C.ar    1  UNL1       -0.0000
     37 C          -2.8438    3.6373   25.3722 C.ar    1  UNL1       -0.0003
     38 C          -2.2197    3.7567   24.0134 C.ar    1  UNL1       -0.0023
@<TRIPOS>BOND
     1    20    21    1
     2    21    22    1
     3    22    23    1
     4    23    24    1
     5    24    19    1
     6    19    13    1
     7    13    14   ar
     8    14    15   ar
     9    15    16   ar
    10    16     1    1
    11     1    27    1
    12    27    28   ar
    13    28    29   ar
    14    29    30   ar
    15    30    31   ar
    16    31    32    1
    17    32    33    1
    18    33    34   ar
    19    34    35   ar
    20    35    36   ar
    21    36    37   ar
    22    37    38   ar
    23     1     2    1
    24     2     3    1
    25     3     4    1
    26     4     5    1
    27     5     6    1
    28     6     9    1
    29     9    10    1
    30    10    11    1
    31    11    12    1
    32     6     7    1
    33     7     8    1
    34    16    17   ar
    35    17    18   ar
    36    24    25    1
    37    25    26    1
    38    26    21    1
    39    18    13   ar
    40    31    27   ar
    41    38    33   ar
    42     8     2    1
    43    12     9    1
@<TRIPOS>MOLECULE
*****
 38 43 0 0 0
SMALL
GASTEIGER

@<TRIPOS>ATOM
      1 C           4.9309   -0.2481   20.4163 C.3     1  UNL1        0.1412
      2 N           3.5166    0.2485   20.3606 N.3     1  UNL1       -0.2630
      3 C           2.4559   -0.8113   20.3186 C.3     1  UNL1        0.0742
      4 C           0.9665   -0.6421   20.2599 C.3     1  UNL1        0.0347
      5 C           0.1703    0.6286   20.2285 C.3     1  UNL1        0.0735
      6 N           0.6664    2.0441   20.2482 N.3     1  UNL1       -0.2727
      7 C           2.0816    2.5383   20.3041 C.3     1  UNL1        0.0896
      8 C           3.3500    1.7391   20.3541 C.3     1  UNL1        0.0902
      9 C          -0.3925    3.1056   20.2065 C.3     1  UNL1        0.0575
     10 C          -0.4353    4.5452   19.7870 C.3     1  UNL1        0.0160
     11 C          -1.8900    4.6069   20.1475 C.3     1  UNL1        0.0028
     12 C          -1.8473    3.1674   20.5669 C.3     1  UNL1        0.0160
     13 C           7.0714   -0.5052   24.3663 C.ar    1  UNL1       -0.0062
     14 C           7.8498   -0.5710   23.0857 C.ar    1  UNL1       -0.0032
     15 C           7.1363   -0.4853   21.7691 C.ar    1  UNL1       -0.0028
     16 C           5.6443   -0.3338   21.7330 C.ar    1  UNL1       -0.0005
     17 C           4.8660   -0.2681   23.0135 C.ar    1  UNL1       -0.0028
     18 C           5.5795   -0.3538   24.3302 C.ar    1  UNL1       -0.0032
     19 C           7.7849   -0.5909   25.6830 C.3     1  UNL1        0.0992
     20 C           6.7779   -5.2365   29.3441 C.3     1  UNL1        0.0897
     21 N           7.0296   -4.0751   28.4288 N.3     1  UNL1       -0.2691
     22 C           8.1026   -4.1622   27.3843 C.3     1  UNL1        0.0897
     23 C           8.3544   -3.0008   26.4689 C.3     1  UNL1        0.0899
     24 N           7.5331   -1.7523   26.5983 N.3     1  UNL1       -0.2665
     25 C           6.4602   -1.6651   27.6428 C.3     1  UNL1        0.0899
     26 C           6.2084   -2.8265   28.5581 C.3     1  UNL1        0.0897
     27 C           5.6317   -0.6591   19.1554 C.ar    1  UNL1        0.1798
     28 N           6.2604    0.2648   18.1548 N.ar    1  UNL1       -0.1110
     29 N           6.8441   -0.5712   17.0547 N.ar    1  UNL1       -0.0229
     30 N           6.5761   -2.0118   17.3753 N.ar    1  UNL1       -0.0428
     31 N           5.8268   -2.0662   18.6736 N.ar    1  UNL1       -0.2108
     32 C           5.3554   -3.3093   19.3681 C.3     1  UNL1        0.1570
     33 C           5.9109   -3.6735   20.7131 C.ar    1  UNL1        0.0022
     34 C           5.0153   -3.6852   21.9163 C.ar    1  UNL1       -0.0023
     35 C           5.5708   -4.0495   23.2612 C.ar    1  UNL1       -0.0003
     36 C           7.0220   -4.4020   23.4028 C.ar    1  UNL1       -0.0000
     37 C           7.9175   -4.3903   22.1995 C.ar    1  UNL1       -0.0003
     38 C           7.3620   -4.0260   20.8546 C.ar    1  UNL1       -0.0023
@<TRIPOS>BOND
     1    20    21    1
     2    21    22    1
     3    22    23    1
     4    23    24    1
     5    24    19    1
     6    19    13    1
     7    13    14   ar
     8    14    15   ar
     9    15    16   ar
    10    16     1    1
    11     1    27    1
    12    27    28   ar
    13    28    29   ar
    14    29    30   ar
    15    30    31   ar
    16    31    32    1
    17    32    33    1
    18    33    34   ar
    19    34    35   ar
    20    35    36   ar
    21    36    37   ar
    22    37    38   ar
    23     1     2    1
    24     2     3    1
    25     3     4    1
    26     4     5    1
    27     5     6    1
    28     6     9    1
    29     9    10    1
    30    10    11    1
    31    11    12    1
    32     6     7    1
    33     7     8    1
    34    16    17   ar
    35    17    18   ar
    36    24    25    1
    37    25    26    1
    38    26    21    1
    39    18    13   ar
    40    31    27   ar
    41    38    33   ar
    42     8     2    1
    43    12     9    1
@<TRIPOS>MOLECULE
*****
 38 43 0 0 0
SMALL
GASTEIGER

@<TRIPOS>ATOM
      1 C           1.9971    2.3810   21.5537 C.3     1  UNL1        0.1412
      2 N           2.4672    1.2574   20.6782 N.3     1  UNL1       -0.2630
      3 C           2.6602    1.5978   19.2301 C.3     1  UNL1        0.0742
      4 C           3.1159    0.7068   18.1127 C.3     1  UNL1        0.0347
      5 C           3.4911   -0.7444   18.1674 C.3     1  UNL1        0.0735
      6 N           3.5033   -1.6632   19.3530 N.3     1  UNL1       -0.2727
      7 C           3.1433   -1.3577   20.7767 C.3     1  UNL1        0.0896
      8 C           2.6822   -0.0578   21.3665 C.3     1  UNL1        0.0902
      9 C           3.9321   -3.0741   19.0786 C.3     1  UNL1        0.0575
     10 C           5.1794   -3.7203   18.5523 C.3     1  UNL1        0.0160
     11 C           4.5387   -5.0695   18.6905 C.3     1  UNL1        0.0028
     12 C           3.2914   -4.4235   19.2167 C.3     1  UNL1        0.0160
     13 C          -1.8189    4.5541   20.5708 C.ar    1  UNL1       -0.0062
     14 C          -0.6034    5.3258   20.9916 C.ar    1  UNL1       -0.0032
     15 C           0.6686    4.6015   21.3193 C.ar    1  UNL1       -0.0028
     16 C           0.7251    3.1054   21.2261 C.ar    1  UNL1       -0.0005
     17 C          -0.4904    2.3337   20.8052 C.ar    1  UNL1       -0.0028
     18 C          -1.7624    3.0581   20.4776 C.ar    1  UNL1       -0.0032
     19 C          -3.0909    5.2785   20.2431 C.3     1  UNL1        0.0992
     20 C          -7.9329    4.5573   23.7122 C.3     1  UNL1        0.0897
     21 N          -6.7224    4.7376   22.8449 N.3     1  UNL1       -0.2691
     22 C          -6.8625    4.7345   21.3515 C.3     1  UNL1        0.0897
     23 C          -5.6521    4.9148   20.4842 C.3     1  UNL1        0.0899
     24 N          -4.3014    5.0982   21.1104 N.3     1  UNL1       -0.2665
     25 C          -4.1612    5.1012   22.6038 C.3     1  UNL1        0.0899
     26 C          -5.3717    4.9209   23.4710 C.3     1  UNL1        0.0897
     27 C           2.7990    2.7803   22.7568 C.ar    1  UNL1        0.1798
     28 N           3.9904    3.6917   22.7596 N.ar    1  UNL1       -0.1110
     29 N           4.4780    3.8130   24.1729 N.ar    1  UNL1       -0.0229
     30 N           3.5880    2.9765   25.0436 N.ar    1  UNL1       -0.0428
     31 N           2.5503    2.3383   24.1685 N.ar    1  UNL1       -0.2108
     32 C           1.4561    1.4194   24.6249 C.3     1  UNL1        0.1570
     33 C           0.2252    1.9821   25.2717 C.ar    1  UNL1        0.0022
     34 C          -0.0852    1.6575   26.7028 C.ar    1  UNL1       -0.0023
     35 C          -1.3160    2.2201   27.3496 C.ar    1  UNL1       -0.0003
     36 C          -2.2366    3.1075   26.5652 C.ar    1  UNL1       -0.0000
     37 C          -1.9262    3.4321   25.1340 C.ar    1  UNL1       -0.0003
     38 C          -0.6953    2.8694   24.4872 C.ar    1  UNL1       -0.0023
@<TRIPOS>BOND
     1    20    21    1
     2    21    22    1
     3    22    23    1
     4    23    24    1
     5    24    19    1
     6    19    13    1
     7    13    14   ar
     8    14    15   ar
     9    15    16   ar
    10    16     1    1
    11     1    27    1
    12    27    28   ar
    13    28    29   ar
    14    29    30   ar
    15    30    31   ar
    16    31    32    1
    17    32    33    1
    18    33    34   ar
    19    34    35   ar
    20    35    36   ar
    21    36    37   ar
    22    37    38   ar
    23     1     2    1
    24     2     3    1
    25     3     4    1
    26     4     5    1
    27     5     6    1
    28     6     9    1
    29     9    10    1
    30    10    11    1
    31    11    12    1
    32     6     7    1
    33     7     8    1
    34    16    17   ar
    35    17    18   ar
    36    24    25    1
    37    25    26    1
    38    26    21    1
    39    18    13   ar
    40    31    27   ar
    41    38    33   ar
    42     8     2    1
    43    12     9    1
