@<TRIPOS>MOLECULE
*****
 23 25 0 0 0
SMALL
GASTEIGER

@<TRIPOS>ATOM
      1 C          -7.1881  -18.0567   22.0249 C.3     1  UNL1        0.1895
      2 C          -8.5057  -18.7729   22.0575 C.ar    1  UNL1        0.0172
      3 C          -9.4193  -18.7171   20.8692 C.ar    1  UNL1       -0.0008
      4 C         -10.7369  -19.4333   20.9018 C.ar    1  UNL1       -0.0002
      5 C         -11.1408  -20.2054   22.1227 C.ar    1  UNL1       -0.0000
      6 C         -10.2272  -20.2612   23.3111 C.ar    1  UNL1       -0.0002
      7 C          -8.9096  -19.5450   23.2785 C.ar    1  UNL1       -0.0008
      8 C          -5.9399  -18.7993   21.6499 C.3     1  UNL1        0.0615
      9 C          -5.6843  -19.4911   20.3438 C.3     1  UNL1        0.0224
     10 C          -4.3146  -20.0998   20.4019 C.3     1  UNL1        0.0687
     11 N          -3.7236  -19.7842   21.7440 N.3     1  UNL1       -0.2973
     12 C          -4.7282  -18.9804   22.5154 C.3     1  UNL1        0.0725
     13 H          -2.8657  -19.2451   21.6264 H       1  UNL1        0.1232
     14 O          -7.1188  -16.5980   22.3673 O.3     1  UNL1       -0.4715
     15 F          -8.8194  -15.3499   27.1160 F       1  UNL1       -0.2032
     16 C          -7.6875  -15.5471   26.1517 C.ar    1  UNL1        0.1537
     17 C          -6.2738  -15.3174   26.5976 C.ar    1  UNL1        0.0330
     18 C          -5.1418  -15.5146   25.6334 C.ar    1  UNL1        0.0351
     19 C          -5.4235  -15.9414   24.2233 C.ar    1  UNL1        0.1748
     20 F          -4.7139  -15.9944   23.8639 F       1  UNL1       -0.2009
     21 C          -6.8371  -16.1711   23.7774 C.ar    1  UNL1        0.1787
     22 C          -7.9691  -15.9739   24.7416 C.ar    1  UNL1        0.1211
     23 CL         -9.3828  -16.2036   24.2957 Cl      1  UNL1       -0.0766
@<TRIPOS>BOND
     1    15    16    1
     2    16    17   ar
     3    17    18   ar
     4    18    19   ar
     5    19    20    1
     6    19    21   ar
     7    21    14    1
     8     1    14    1
     9     1     2    1
    10     2     3   ar
    11     3     4   ar
    12     4     5   ar
    13     5     6   ar
    14     6     7   ar
    15     1     8    1
    16     8     9    1
    17     9    10    1
    18    10    11    1
    19    11    12    1
    20    21    22   ar
    21    22    23    1
    22    22    16   ar
    23     7     2   ar
    24    12     8    1
    25    11    13    1
@<TRIPOS>MOLECULE
*****
 23 25 0 0 0
SMALL
GASTEIGER

@<TRIPOS>ATOM
      1 C          -7.3059  -17.9408   22.1810 C.3     1  UNL1        0.1895
      2 C          -6.1045  -18.7001   21.7013 C.ar    1  UNL1        0.0172
      3 C          -6.1440  -19.4098   20.3805 C.ar    1  UNL1       -0.0008
      4 C          -4.9426  -20.1691   19.9008 C.ar    1  UNL1       -0.0002
      5 C          -3.7016  -20.2185   20.7419 C.ar    1  UNL1       -0.0000
      6 C          -3.6621  -19.5087   22.0628 C.ar    1  UNL1       -0.0002
      7 C          -4.8635  -18.7495   22.5425 C.ar    1  UNL1       -0.0008
      8 C          -8.6281  -18.6364   22.3156 C.3     1  UNL1        0.0615
      9 C          -8.9446  -19.7522   23.2668 C.3     1  UNL1        0.0224
     10 C         -10.3780  -20.1437   23.0617 C.3     1  UNL1        0.0687
     11 N         -10.9475  -19.2697   21.9837 N.3     1  UNL1       -0.2973
     12 C          -9.8660  -18.3381   21.5226 C.3     1  UNL1        0.0725
     13 H         -11.7328  -18.7330   22.3520 H       1  UNL1        0.1232
     14 O          -7.1852  -16.4861   22.5261 O.3     1  UNL1       -0.4715
     15 F          -8.7947  -15.3914   27.3439 F       1  UNL1       -0.2032
     16 C          -7.6846  -15.5250   26.3441 C.ar    1  UNL1        0.1537
     17 C          -6.2689  -15.2449   26.7534 C.ar    1  UNL1        0.0330
     18 C          -5.1587  -15.3785   25.7536 C.ar    1  UNL1        0.0351
     19 C          -5.4642  -15.7922   24.3445 C.ar    1  UNL1        0.1748
     20 F          -4.7639  -15.8096   23.9639 F       1  UNL1       -0.2009
     21 C          -6.8798  -16.0723   23.9352 C.ar    1  UNL1        0.1787
     22 C          -7.9900  -15.9387   24.9350 C.ar    1  UNL1        0.1211
     23 CL         -9.4056  -16.2188   24.5257 Cl      1  UNL1       -0.0766
@<TRIPOS>BOND
     1    15    16    1
     2    16    17   ar
     3    17    18   ar
     4    18    19   ar
     5    19    20    1
     6    19    21   ar
     7    21    14    1
     8     1    14    1
     9     1     2    1
    10     2     3   ar
    11     3     4   ar
    12     4     5   ar
    13     5     6   ar
    14     6     7   ar
    15     1     8    1
    16     8     9    1
    17     9    10    1
    18    10    11    1
    19    11    12    1
    20    21    22   ar
    21    22    23    1
    22    22    16   ar
    23     7     2   ar
    24    12     8    1
    25    11    13    1
@<TRIPOS>MOLECULE
*****
 23 25 0 0 0
SMALL
GASTEIGER

@<TRIPOS>ATOM
      1 C          -7.3099  -18.1023   21.9587 C.3     1  UNL1        0.1895
      2 C          -8.6197  -18.8330   21.9359 C.ar    1  UNL1        0.0172
      3 C          -9.4672  -18.8149   20.6984 C.ar    1  UNL1       -0.0008
      4 C         -10.7770  -19.5456   20.6756 C.ar    1  UNL1       -0.0002
      5 C         -11.2392  -20.2945   21.8903 C.ar    1  UNL1       -0.0000
      6 C         -10.3917  -20.3127   23.1278 C.ar    1  UNL1       -0.0002
      7 C          -9.0819  -19.5820   23.1506 C.ar    1  UNL1       -0.0008
      8 C          -6.0416  -18.8254   21.6144 C.3     1  UNL1        0.0615
      9 C          -5.7787  -19.5925   20.3525 C.3     1  UNL1        0.0224
     10 C          -4.3881  -20.1495   20.4298 C.3     1  UNL1        0.0687
     11 N          -3.7915  -19.7266   21.7395 N.3     1  UNL1       -0.2973
     12 C          -4.8135  -18.9083   22.4717 C.3     1  UNL1        0.0725
     13 H          -2.9543  -19.1678   21.5743 H       1  UNL1        0.1232
     14 O          -7.2685  -16.6485   22.3258 O.3     1  UNL1       -0.4715
     15 F          -4.7455  -14.7864   26.4692 F       1  UNL1       -0.2032
     16 C          -6.0035  -15.3081   25.8406 C.ar    1  UNL1        0.1537
     17 C          -7.2582  -15.4205   26.6550 C.ar    1  UNL1        0.0330
     18 C          -8.5162  -15.9421   26.0264 C.ar    1  UNL1        0.0351
     19 C          -8.5196  -16.3515   24.5833 C.ar    1  UNL1        0.1748
     20 F          -9.2613  -16.5985   24.4267 F       1  UNL1       -0.2009
     21 C          -7.2651  -16.2392   23.7689 C.ar    1  UNL1        0.1787
     22 C          -6.0070  -15.7175   24.3975 C.ar    1  UNL1        0.1211
     23 CL         -4.7524  -15.6051   23.5831 Cl      1  UNL1       -0.0766
@<TRIPOS>BOND
     1    15    16    1
     2    16    17   ar
     3    17    18   ar
     4    18    19   ar
     5    19    20    1
     6    19    21   ar
     7    21    14    1
     8     1    14    1
     9     1     2    1
    10     2     3   ar
    11     3     4   ar
    12     4     5   ar
    13     5     6   ar
    14     6     7   ar
    15     1     8    1
    16     8     9    1
    17     9    10    1
    18    10    11    1
    19    11    12    1
    20    21    22   ar
    21    22    23    1
    22    22    16   ar
    23     7     2   ar
    24    12     8    1
    25    11    13    1
@<TRIPOS>MOLECULE
*****
 23 25 0 0 0
SMALL
GASTEIGER

@<TRIPOS>ATOM
      1 C          -7.7412  -18.2424   22.6550 C.3     1  UNL1        0.1895
      2 C          -6.4279  -18.6818   22.0785 C.ar    1  UNL1        0.0172
      3 C          -5.1492  -18.3562   22.7919 C.ar    1  UNL1       -0.0008
      4 C          -3.8359  -18.7955   22.2154 C.ar    1  UNL1       -0.0002
      5 C          -3.8014  -19.5604   20.9255 C.ar    1  UNL1       -0.0000
      6 C          -5.0801  -19.8860   20.2121 C.ar    1  UNL1       -0.0002
      7 C          -6.3934  -19.4467   20.7886 C.ar    1  UNL1       -0.0008
      8 C          -7.8608  -16.8980   23.3094 C.3     1  UNL1        0.0615
      9 C          -8.2813  -16.6413   24.7262 C.3     1  UNL1        0.0224
     10 C          -8.2612  -15.1589   24.9543 C.3     1  UNL1        0.0687
     11 N          -7.8284  -14.4993   23.6785 N.3     1  UNL1       -0.2973
     12 C          -7.5808  -15.5742   22.6618 C.3     1  UNL1        0.0725
     13 H          -6.9718  -13.9685   23.8365 H       1  UNL1        0.1232
     14 O          -8.9348  -19.1475   22.5771 O.3     1  UNL1       -0.4715
     15 F         -13.7829  -17.9155   23.9835 F       1  UNL1       -0.2032
     16 C         -12.7066  -17.9678   22.9401 C.ar    1  UNL1        0.1537
     17 C         -12.9780  -17.4563   21.5563 C.ar    1  UNL1        0.0330
     18 C         -11.9017  -17.5086   20.5128 C.ar    1  UNL1        0.0351
     19 C         -10.5540  -18.0724   20.8531 C.ar    1  UNL1        0.1748
     20 F         -10.1192  -18.0195   20.1871 F       1  UNL1       -0.2009
     21 C         -10.2825  -18.5838   22.2368 C.ar    1  UNL1        0.1787
     22 C         -11.3588  -18.5315   23.2804 C.ar    1  UNL1        0.1211
     23 CL        -11.0874  -19.0429   24.6641 Cl      1  UNL1       -0.0766
@<TRIPOS>BOND
     1    15    16    1
     2    16    17   ar
     3    17    18   ar
     4    18    19   ar
     5    19    20    1
     6    19    21   ar
     7    21    14    1
     8     1    14    1
     9     1     2    1
    10     2     3   ar
    11     3     4   ar
    12     4     5   ar
    13     5     6   ar
    14     6     7   ar
    15     1     8    1
    16     8     9    1
    17     9    10    1
    18    10    11    1
    19    11    12    1
    20    21    22   ar
    21    22    23    1
    22    22    16   ar
    23     7     2   ar
    24    12     8    1
    25    11    13    1
@<TRIPOS>MOLECULE
*****
 23 25 0 0 0
SMALL
GASTEIGER

@<TRIPOS>ATOM
      1 C          -7.4900  -18.0381   22.0133 C.3     1  UNL1        0.1895
      2 C          -6.2100  -18.7228   21.6355 C.ar    1  UNL1        0.0172
      3 C          -5.0304  -18.6710   22.5605 C.ar    1  UNL1       -0.0008
      4 C          -3.7504  -19.3557   22.1827 C.ar    1  UNL1       -0.0002
      5 C          -3.6500  -20.0922   20.8798 C.ar    1  UNL1       -0.0000
      6 C          -4.8297  -20.1440   19.9547 C.ar    1  UNL1       -0.0002
      7 C          -6.1097  -19.4593   20.3326 C.ar    1  UNL1       -0.0008
      8 C          -8.7841  -18.7960   21.9804 C.3     1  UNL1        0.0615
      9 C          -9.7797  -18.7923   20.8585 C.3     1  UNL1        0.0224
     10 C         -10.9206  -19.6847   21.2483 C.3     1  UNL1        0.0687
     11 N         -10.6301  -20.2399   22.6112 N.3     1  UNL1       -0.2973
     12 C          -9.3096  -19.6906   23.0637 C.3     1  UNL1        0.0725
     13 H         -10.5850  -21.2580   22.5678 H       1  UNL1        0.1232
     14 O          -7.4760  -16.5955   22.4241 O.3     1  UNL1       -0.4715
     15 F          -4.8112  -14.6486   26.4377 F       1  UNL1       -0.2032
     16 C          -6.0654  -15.2566   25.8836 C.ar    1  UNL1        0.1537
     17 C          -7.2418  -15.4992   26.7822 C.ar    1  UNL1        0.0330
     18 C          -8.4961  -16.1072   26.2282 C.ar    1  UNL1        0.0351
     19 C          -8.5741  -16.4726   24.7755 C.ar    1  UNL1        0.1748
     20 F          -9.3025  -16.7770   24.6643 F       1  UNL1       -0.2009
     21 C          -7.3979  -16.2301   23.8768 C.ar    1  UNL1        0.1787
     22 C          -6.1435  -15.6221   24.4309 C.ar    1  UNL1        0.1211
     23 CL         -4.9673  -15.3795   23.5322 Cl      1  UNL1       -0.0766
@<TRIPOS>BOND
     1    15    16    1
     2    16    17   ar
     3    17    18   ar
     4    18    19   ar
     5    19    20    1
     6    19    21   ar
     7    21    14    1
     8     1    14    1
     9     1     2    1
    10     2     3   ar
    11     3     4   ar
    12     4     5   ar
    13     5     6   ar
    14     6     7   ar
    15     1     8    1
    16     8     9    1
    17     9    10    1
    18    10    11    1
    19    11    12    1
    20    21    22   ar
    21    22    23    1
    22    22    16   ar
    23     7     2   ar
    24    12     8    1
    25    11    13    1
@<TRIPOS>MOLECULE
*****
 23 25 0 0 0
SMALL
GASTEIGER

@<TRIPOS>ATOM
      1 C         -10.1912  -16.8243   23.6259 C.3     1  UNL1        0.1895
      2 C         -10.8443  -16.5300   22.3080 C.ar    1  UNL1        0.0172
      3 C         -12.2769  -16.9112   22.0791 C.ar    1  UNL1       -0.0008
      4 C         -12.9300  -16.6168   20.7612 C.ar    1  UNL1       -0.0002
      5 C         -12.1505  -15.9412   19.6722 C.ar    1  UNL1       -0.0000
      6 C         -10.7179  -15.5599   19.9011 C.ar    1  UNL1       -0.0002
      7 C         -10.0648  -15.8543   21.2189 C.ar    1  UNL1       -0.0008
      8 C          -9.9610  -18.2452   24.0480 C.3     1  UNL1        0.0615
      9 C          -9.2702  -19.3040   23.2407 C.3     1  UNL1        0.0224
     10 C          -9.2634  -20.5699   24.0453 C.3     1  UNL1        0.0687
     11 N          -9.9501  -20.2935   25.3500 N.3     1  UNL1       -0.2973
     12 C         -10.3812  -18.8567   25.3517 C.3     1  UNL1        0.0725
     13 H          -9.3061  -20.4625   26.1227 H       1  UNL1        0.1232
     14 O          -9.7684  -15.6979   24.5216 O.3     1  UNL1       -0.4715
     15 F          -4.6348  -15.1429   23.9396 F       1  UNL1       -0.2032
     16 C          -5.8215  -15.4070   24.8182 C.ar    1  UNL1        0.1537
     17 C          -5.6283  -15.6577   26.2845 C.ar    1  UNL1        0.0330
     18 C          -6.8150  -15.9218   27.1630 C.ar    1  UNL1        0.0351
     19 C          -8.1950  -15.9352   26.5754 C.ar    1  UNL1        0.1748
     20 F          -8.6902  -16.0890   27.1809 F       1  UNL1       -0.2009
     21 C          -8.3883  -15.6845   25.1092 C.ar    1  UNL1        0.1787
     22 C          -7.2016  -15.4204   24.2306 C.ar    1  UNL1        0.1211
     23 CL         -7.3949  -15.1697   22.7644 Cl      1  UNL1       -0.0766
@<TRIPOS>BOND
     1    15    16    1
     2    16    17   ar
     3    17    18   ar
     4    18    19   ar
     5    19    20    1
     6    19    21   ar
     7    21    14    1
     8     1    14    1
     9     1     2    1
    10     2     3   ar
    11     3     4   ar
    12     4     5   ar
    13     5     6   ar
    14     6     7   ar
    15     1     8    1
    16     8     9    1
    17     9    10    1
    18    10    11    1
    19    11    12    1
    20    21    22   ar
    21    22    23    1
    22    22    16   ar
    23     7     2   ar
    24    12     8    1
    25    11    13    1
@<TRIPOS>MOLECULE
*****
 23 25 0 0 0
SMALL
GASTEIGER

@<TRIPOS>ATOM
      1 C          -8.3889  -16.5399   23.7177 C.3     1  UNL1        0.1895
      2 C          -9.7888  -17.0749   23.6527 C.ar    1  UNL1        0.0172
      3 C         -10.1314  -18.3644   24.3381 C.ar    1  UNL1       -0.0008
      4 C         -11.5313  -18.8994   24.2731 C.ar    1  UNL1       -0.0002
      5 C         -12.5885  -18.1449   23.5229 C.ar    1  UNL1       -0.0000
      6 C         -12.2459  -16.8553   22.8375 C.ar    1  UNL1       -0.0002
      7 C         -10.8460  -16.3203   22.9024 C.ar    1  UNL1       -0.0008
      8 C          -7.8592  -15.9793   25.0043 C.3     1  UNL1        0.0615
      9 C          -8.4753  -16.1517   26.3610 C.3     1  UNL1        0.0224
     10 C          -7.6172  -15.4268   27.3552 C.3     1  UNL1        0.0687
     11 N          -6.4708  -14.8065   26.6128 N.3     1  UNL1       -0.2973
     12 C          -6.6204  -15.1480   25.1598 C.3     1  UNL1        0.0725
     13 H          -5.5886  -15.1767   26.9664 H       1  UNL1        0.1232
     14 O          -7.5188  -16.5655   22.4962 O.3     1  UNL1       -0.4715
     15 F          -3.5758  -19.9470   22.3598 F       1  UNL1       -0.2032
     16 C          -4.9638  -19.5527   21.9498 C.ar    1  UNL1        0.1537
     17 C          -5.7683  -20.4550   21.0617 C.ar    1  UNL1        0.0330
     18 C          -7.1562  -20.0608   20.6517 C.ar    1  UNL1        0.0351
     19 C          -7.7398  -18.7643   21.1299 C.ar    1  UNL1        0.1748
     20 F          -8.4719  -18.7242   20.8171 F       1  UNL1       -0.2009
     21 C          -6.9353  -17.8620   22.0180 C.ar    1  UNL1        0.1787
     22 C          -5.5473  -18.2562   22.4280 C.ar    1  UNL1        0.1211
     23 CL         -4.7428  -17.3540   23.3161 Cl      1  UNL1       -0.0766
@<TRIPOS>BOND
     1    15    16    1
     2    16    17   ar
     3    17    18   ar
     4    18    19   ar
     5    19    20    1
     6    19    21   ar
     7    21    14    1
     8     1    14    1
     9     1     2    1
    10     2     3   ar
    11     3     4   ar
    12     4     5   ar
    13     5     6   ar
    14     6     7   ar
    15     1     8    1
    16     8     9    1
    17     9    10    1
    18    10    11    1
    19    11    12    1
    20    21    22   ar
    21    22    23    1
    22    22    16   ar
    23     7     2   ar
    24    12     8    1
    25    11    13    1
@<TRIPOS>MOLECULE
*****
 23 25 0 0 0
SMALL
GASTEIGER

@<TRIPOS>ATOM
      1 C          -7.7941  -17.9062   22.5750 C.3     1  UNL1        0.1895
      2 C          -8.8691  -18.1384   21.5550 C.ar    1  UNL1        0.0172
      3 C         -10.0563  -17.2236   21.4950 C.ar    1  UNL1       -0.0008
      4 C         -11.1313  -17.4558   20.4751 C.ar    1  UNL1       -0.0002
      5 C         -11.0192  -18.6029   19.5151 C.ar    1  UNL1       -0.0000
      6 C          -9.8321  -19.5178   19.5751 C.ar    1  UNL1       -0.0002
      7 C          -8.7570  -19.2856   20.5950 C.ar    1  UNL1       -0.0008
      8 C          -7.8244  -16.6736   23.4293 C.3     1  UNL1        0.0615
      9 C          -8.4244  -16.5654   24.7999 C.3     1  UNL1        0.0224
     10 C          -8.2309  -15.1578   25.2807 C.3     1  UNL1        0.0687
     11 N          -7.5113  -14.3960   24.2073 N.3     1  UNL1       -0.2973
     12 C          -7.2601  -15.3330   23.0630 C.3     1  UNL1        0.0725
     13 H          -6.6244  -14.0443   24.5678 H       1  UNL1        0.1232
     14 O          -6.6887  -18.9065   22.7406 O.3     1  UNL1       -0.4715
     15 F          -2.8326  -19.3725   19.2890 F       1  UNL1       -0.2032
     16 C          -3.3695  -18.8009   20.5676 C.ar    1  UNL1        0.1537
     17 C          -2.5151  -17.8906   21.3993 C.ar    1  UNL1        0.0330
     18 C          -3.0519  -17.3190   22.6780 C.ar    1  UNL1        0.0351
     19 C          -4.4431  -17.6577   23.1251 C.ar    1  UNL1        0.1748
     20 F          -4.5533  -17.2702   23.8130 F       1  UNL1       -0.2009
     21 C          -5.2975  -18.5679   22.2935 C.ar    1  UNL1        0.1787
     22 C          -4.7606  -19.1395   21.0148 C.ar    1  UNL1        0.1211
     23 CL         -5.6150  -20.0498   20.1832 Cl      1  UNL1       -0.0766
@<TRIPOS>BOND
     1    15    16    1
     2    16    17   ar
     3    17    18   ar
     4    18    19   ar
     5    19    20    1
     6    19    21   ar
     7    21    14    1
     8     1    14    1
     9     1     2    1
    10     2     3   ar
    11     3     4   ar
    12     4     5   ar
    13     5     6   ar
    14     6     7   ar
    15     1     8    1
    16     8     9    1
    17     9    10    1
    18    10    11    1
    19    11    12    1
    20    21    22   ar
    21    22    23    1
    22    22    16   ar
    23     7     2   ar
    24    12     8    1
    25    11    13    1
@<TRIPOS>MOLECULE
*****
 23 25 0 0 0
SMALL
GASTEIGER

@<TRIPOS>ATOM
      1 C          -8.8495  -16.9270   23.7236 C.3     1  UNL1        0.1895
      2 C          -7.9765  -16.3094   24.7755 C.ar    1  UNL1        0.0172
      3 C          -6.5776  -15.8876   24.4363 C.ar    1  UNL1       -0.0008
      4 C          -5.7046  -15.2700   25.4882 C.ar    1  UNL1       -0.0002
      5 C          -6.2305  -15.0743   26.8793 C.ar    1  UNL1       -0.0000
      6 C          -7.6294  -15.4962   27.2185 C.ar    1  UNL1       -0.0002
      7 C          -8.5024  -16.1138   26.1666 C.ar    1  UNL1       -0.0008
      8 C         -10.0015  -17.8008   24.1232 C.3     1  UNL1        0.0615
      9 C         -11.4405  -17.5834   23.7598 C.3     1  UNL1        0.0224
     10 C         -12.2449  -18.6936   24.3683 C.3     1  UNL1        0.0687
     11 N         -11.3031  -19.5972   25.1077 N.3     1  UNL1       -0.2973
     12 C          -9.9165  -19.0453   24.9562 C.3     1  UNL1        0.0725
     13 H         -11.3461  -20.5377   24.7154 H       1  UNL1        0.1232
     14 O          -8.5706  -16.6708   22.2722 O.3     1  UNL1       -0.4715
     15 F          -6.6004  -20.8300   19.8599 F       1  UNL1       -0.2032
     16 C          -7.7264  -19.8611   20.0678 C.ar    1  UNL1        0.1537
     17 C          -8.9935  -20.0028   19.2774 C.ar    1  UNL1        0.0330
     18 C         -10.1194  -19.0338   19.4853 C.ar    1  UNL1        0.0351
     19 C          -9.9785  -17.9232   20.4836 C.ar    1  UNL1        0.1748
     20 F         -10.6637  -17.5165   20.4580 F       1  UNL1       -0.2009
     21 C          -8.7116  -17.7814   21.2740 C.ar    1  UNL1        0.1787
     22 C          -7.5855  -18.7504   21.0661 C.ar    1  UNL1        0.1211
     23 CL         -6.3186  -18.6087   21.8565 Cl      1  UNL1       -0.0766
@<TRIPOS>BOND
     1    15    16    1
     2    16    17   ar
     3    17    18   ar
     4    18    19   ar
     5    19    20    1
     6    19    21   ar
     7    21    14    1
     8     1    14    1
     9     1     2    1
    10     2     3   ar
    11     3     4   ar
    12     4     5   ar
    13     5     6   ar
    14     6     7   ar
    15     1     8    1
    16     8     9    1
    17     9    10    1
    18    10    11    1
    19    11    12    1
    20    21    22   ar
    21    22    23    1
    22    22    16   ar
    23     7     2   ar
    24    12     8    1
    25    11    13    1
