@<TRIPOS>MOLECULE
*****
 38 41 0 0 0
SMALL
GASTEIGER

@<TRIPOS>ATOM
      1 O          -6.6042  -20.2982   22.0820 O.2     1  UNL1       -0.2701
      2 C          -6.0832  -19.3993   21.0001 C.2     1  UNL1        0.2474
      3 N          -7.0307  -18.5357   20.2215 N.am    1  UNL1       -0.2986
      4 H          -6.6888  -17.9457   19.5114 H       1  UNL1        0.1498
      5 C          -8.4994  -18.5710   20.5248 C.3     1  UNL1        0.1200
      6 C          -9.4675  -19.0606   19.4890 C.3     1  UNL1        0.2250
      7 O         -10.9361  -19.0959   19.7923 O.3     1  UNL1       -0.4740
      8 C         -11.4365  -18.6415   21.1314 C.ar    1  UNL1        0.1346
      9 C         -12.9052  -18.6768   21.4347 C.ar    1  UNL1        0.0366
     10 C         -13.4056  -18.2224   22.7738 C.ar    1  UNL1        0.0031
     11 C         -12.4373  -17.7328   23.8096 C.ar    1  UNL1       -0.0001
     12 C         -10.9687  -17.6975   23.5062 C.ar    1  UNL1        0.0005
     13 C         -10.4683  -18.1519   22.1672 C.ar    1  UNL1        0.0136
     14 C          -8.9998  -18.1166   21.8639 C.3     1  UNL1        0.0528
     15 C         -10.0006  -17.2078   24.5420 C.ar    1  UNL1        0.0190
     16 C          -9.3507  -15.8650   24.3859 C.ar    1  UNL1        0.0028
     17 C          -8.3825  -15.3753   25.4217 C.ar    1  UNL1        0.0172
     18 CA         -8.0642  -16.2285   26.6136 C.ar    1  UNL1        0.0885
     19 N          -8.7141  -17.5714   26.7698 N.ar    1  UNL1       -0.2457
     20 C          -9.6823  -18.0610   25.7340 C.ar    1  UNL1        0.0985
     21 C          -7.0960  -15.7389   27.6495 C.3     1  UNL1        0.1829
     22 O          -6.6271  -14.3143   27.6238 O.3     1  UNL1       -0.3760
     23 H          -6.0999  -14.1618   26.8240 H       1  UNL1        0.2110
     24 C          -4.6145  -19.3640   20.6968 C.ar    1  UNL1        0.0727
     25 C          -4.1145  -18.6183   19.4952 C.ar    1  UNL1        0.0109
     26 C          -2.6460  -18.5830   19.1920 C.ar    1  UNL1        0.0579
     27 C          -1.6774  -19.2935   20.0904 C.ar    1  UNL1        0.2249
     28 N          -2.1773  -20.0392   21.2920 N.ar    1  UNL1       -0.2100
     29 C          -3.6459  -20.0744   21.5952 C.ar    1  UNL1        0.1065
     30 O          -0.2087  -19.2582   19.7871 O.3     1  UNL1       -0.4575
     31 C           0.5413  -17.9612   19.8603 C.3     1  UNL1        0.2390
     32 C          -0.1925  -16.6861   20.1529 C.3     1  UNL1        0.1897
     33 O          -0.7258  -16.4270   21.5308 O.3     1  UNL1       -0.3417
     34 C          -2.1777  -16.1039   21.7246 C.3     1  UNL1        0.2459
     35 C          -2.9427  -16.7347   22.8501 C.3     1  UNL1        0.4248
     36 F          -3.7078  -17.3655   23.9756 F       1  UNL1       -0.1674
     37 F          -1.8704  -17.7733   22.9970 F       1  UNL1       -0.1674
     38 F          -4.0150  -15.6962   22.7033 F       1  UNL1       -0.1674
@<TRIPOS>BOND
     1     1     2    2
     2     2     3   am
     3     5     3    1
     4     5     6    1
     5     6     7    1
     6     7     8    1
     7     8     9   ar
     8     9    10   ar
     9    10    11   ar
    10    11    12   ar
    11    12    15    1
    12    15    16   ar
    13    16    17   ar
    14    17    18   ar
    15    18    21    1
    16    21    22    1
    17    18    19   ar
    18    19    20   ar
    19    12    13   ar
    20    13    14    1
    21     2    24    1
    22    24    25   ar
    23    25    26   ar
    24    26    27   ar
    25    27    30    1
    26    30    31    1
    27    31    32    1
    28    32    33    1
    29    33    34    1
    30    34    35    1
    31    35    36    1
    32    35    37    1
    33    35    38    1
    34    27    28   ar
    35    28    29   ar
    36    14     5    1
    37    29    24   ar
    38    13     8   ar
    39    20    15   ar
    40     3     4    1
    41    22    23    1
@<TRIPOS>MOLECULE
*****
 38 41 0 0 0
SMALL
GASTEIGER

@<TRIPOS>ATOM
      1 O           5.5952    0.2434   24.5973 O.2     1  UNL1       -0.2701
      2 C           4.8051   -0.5871   25.5647 C.2     1  UNL1        0.2474
      3 N           4.3193   -1.9481   25.1624 N.am    1  UNL1       -0.2986
      4 H           3.8007   -2.4932   25.7974 H       1  UNL1        0.1498
      5 C           4.6237   -2.4785   23.7927 C.3     1  UNL1        0.1200
      6 C           5.5782   -3.6236   23.6269 C.3     1  UNL1        0.2250
      7 O           5.8825   -4.1539   22.2572 O.3     1  UNL1       -0.4740
      8 C           5.2323   -3.5392   21.0533 C.ar    1  UNL1        0.1346
      9 C           5.5366   -4.0696   19.6836 C.ar    1  UNL1        0.0366
     10 C           4.8864   -3.4548   18.4797 C.ar    1  UNL1        0.0031
     11 C           3.9318   -2.3096   18.6456 C.ar    1  UNL1       -0.0001
     12 C           3.6275   -1.7793   20.0153 C.ar    1  UNL1        0.0005
     13 C           4.2778   -2.3941   21.2192 C.ar    1  UNL1        0.0136
     14 C           3.9734   -1.8637   22.5888 C.3     1  UNL1        0.0528
     15 C           2.6730   -0.6342   20.1811 C.ar    1  UNL1        0.0190
     16 C           1.1968   -0.8919   20.2474 C.ar    1  UNL1        0.0028
     17 C           0.2423    0.2533   20.4133 C.ar    1  UNL1        0.0172
     18 CA          0.7639    1.6561   20.5128 C.ar    1  UNL1        0.0885
     19 N           2.2402    1.9138   20.4464 N.ar    1  UNL1       -0.2457
     20 C           3.1947    0.7687   20.2806 C.ar    1  UNL1        0.0985
     21 C          -0.1906    2.8014   20.6786 C.3     1  UNL1        0.1829
     22 O          -1.6652    2.5416   20.7683 O.3     1  UNL1       -0.3760
     23 H          -1.9830    2.1865   19.9234 H       1  UNL1        0.2110
     24 C           4.5007   -0.0567   26.9345 C.ar    1  UNL1        0.0727
     25 C           4.0994   -0.9981   28.0312 C.ar    1  UNL1        0.0109
     26 C           3.7951   -0.4676   29.4008 C.ar    1  UNL1        0.0579
     27 C           3.8920    1.0041   29.6738 C.ar    1  UNL1        0.2249
     28 N           4.2933    1.9455   28.5771 N.ar    1  UNL1       -0.2100
     29 C           4.5976    1.4150   27.2074 C.ar    1  UNL1        0.1065
     30 O           3.5877    1.5345   31.0435 O.3     1  UNL1       -0.4575
     31 C           2.3195    1.1351   31.7377 C.3     1  UNL1        0.2390
     32 C           1.0897    1.9827   31.5992 C.3     1  UNL1        0.1897
     33 O          -0.1277    1.4322   30.9171 O.3     1  UNL1       -0.3417
     34 C          -0.0991    1.1506   29.4441 C.3     1  UNL1        0.2459
     35 C          -0.7855   -0.0672   28.8999 C.3     1  UNL1        0.4248
     36 F          -1.4719   -1.2848   28.3558 F       1  UNL1       -0.1674
     37 F           0.5474   -0.7146   28.6674 F       1  UNL1       -0.1674
     38 F          -2.1184    0.5803   29.1325 F       1  UNL1       -0.1674
@<TRIPOS>BOND
     1     1     2    2
     2     2     3   am
     3     5     3    1
     4     5     6    1
     5     6     7    1
     6     7     8    1
     7     8     9   ar
     8     9    10   ar
     9    10    11   ar
    10    11    12   ar
    11    12    15    1
    12    15    16   ar
    13    16    17   ar
    14    17    18   ar
    15    18    21    1
    16    21    22    1
    17    18    19   ar
    18    19    20   ar
    19    12    13   ar
    20    13    14    1
    21     2    24    1
    22    24    25   ar
    23    25    26   ar
    24    26    27   ar
    25    27    30    1
    26    30    31    1
    27    31    32    1
    28    32    33    1
    29    33    34    1
    30    34    35    1
    31    35    36    1
    32    35    37    1
    33    35    38    1
    34    27    28   ar
    35    28    29   ar
    36    14     5    1
    37    29    24   ar
    38    13     8   ar
    39    20    15   ar
    40     3     4    1
    41    22    23    1
@<TRIPOS>MOLECULE
*****
 38 41 0 0 0
SMALL
GASTEIGER

@<TRIPOS>ATOM
      1 O          -0.3458    0.3295   20.8163 O.2     1  UNL1       -0.2701
      2 C           0.6500    1.4275   20.5860 C.2     1  UNL1        0.2474
      3 N           0.3682    2.8128   21.0875 N.am    1  UNL1       -0.2986
      4 H           1.0218    3.5334   20.9363 H       1  UNL1        0.1498
      5 C          -0.9093    3.1002   21.8193 C.3     1  UNL1        0.1200
      6 C          -2.1655    3.3864   21.0512 C.3     1  UNL1        0.2250
      7 O          -3.4429    3.6738   21.7830 O.3     1  UNL1       -0.4740
      8 C          -3.4641    3.6750   23.2829 C.ar    1  UNL1        0.1346
      9 C          -4.7416    3.9624   24.0146 C.ar    1  UNL1        0.0366
     10 C          -4.7628    3.9636   25.5145 C.ar    1  UNL1        0.0031
     11 C          -3.5065    3.6773   26.2826 C.ar    1  UNL1       -0.0001
     12 C          -2.2291    3.3899   25.5508 C.ar    1  UNL1        0.0005
     13 C          -2.2079    3.3887   24.0509 C.ar    1  UNL1        0.0136
     14 C          -0.9305    3.1013   23.3191 C.3     1  UNL1        0.0528
     15 C          -0.9729    3.1036   26.3188 C.ar    1  UNL1        0.0190
     16 C          -0.6142    1.6901   26.6701 C.ar    1  UNL1        0.0028
     17 C           0.6421    1.4039   27.4382 C.ar    1  UNL1        0.0172
     18 CA          1.5396    2.5311   27.8550 C.ar    1  UNL1        0.0885
     19 N           1.1809    3.9446   27.5038 N.ar    1  UNL1       -0.2457
     20 C          -0.0753    4.2309   26.7357 C.ar    1  UNL1        0.0985
     21 C           2.7958    2.2449   28.6231 C.3     1  UNL1        0.1829
     22 O           2.7235    1.5294   29.9395 O.3     1  UNL1       -0.3760
     23 H           2.2617    2.0866   30.5854 H       1  UNL1        0.2110
     24 C           1.9275    1.1400   19.8543 C.ar    1  UNL1        0.0727
     25 C           1.8904    0.4485   18.5237 C.ar    1  UNL1        0.0109
     26 C           3.1679    0.1612   17.7920 C.ar    1  UNL1        0.0579
     27 C           4.4824    0.5653   18.3909 C.ar    1  UNL1        0.2249
     28 N           4.5195    1.2568   19.7214 N.ar    1  UNL1       -0.2100
     29 C           3.2420    1.5442   20.4531 C.ar    1  UNL1        0.1065
     30 O           5.7599    0.2779   17.6591 O.3     1  UNL1       -0.4575
     31 C           6.8347   -0.5353   18.3174 C.3     1  UNL1        0.2390
     32 C           6.9819   -1.9911   17.9876 C.3     1  UNL1        0.1897
     33 O           5.7671   -2.8668   17.8995 O.3     1  UNL1       -0.3417
     34 C           4.8912   -3.0574   19.1021 C.3     1  UNL1        0.2459
     35 C           3.6676   -3.9202   19.0096 C.3     1  UNL1        0.4248
     36 F           2.4440   -4.7829   18.9171 F       1  UNL1       -0.1674
     37 F           4.4901   -5.0226   18.4112 F       1  UNL1       -0.1674
     38 F           2.8451   -2.8178   19.6080 F       1  UNL1       -0.1674
@<TRIPOS>BOND
     1     1     2    2
     2     2     3   am
     3     5     3    1
     4     5     6    1
     5     6     7    1
     6     7     8    1
     7     8     9   ar
     8     9    10   ar
     9    10    11   ar
    10    11    12   ar
    11    12    15    1
    12    15    16   ar
    13    16    17   ar
    14    17    18   ar
    15    18    21    1
    16    21    22    1
    17    18    19   ar
    18    19    20   ar
    19    12    13   ar
    20    13    14    1
    21     2    24    1
    22    24    25   ar
    23    25    26   ar
    24    26    27   ar
    25    27    30    1
    26    30    31    1
    27    31    32    1
    28    32    33    1
    29    33    34    1
    30    34    35    1
    31    35    36    1
    32    35    37    1
    33    35    38    1
    34    27    28   ar
    35    28    29   ar
    36    14     5    1
    37    29    24   ar
    38    13     8   ar
    39    20    15   ar
    40     3     4    1
    41    22    23    1
@<TRIPOS>MOLECULE
*****
 38 41 0 0 0
SMALL
GASTEIGER

@<TRIPOS>ATOM
      1 O           3.4845    1.2601   25.9828 O.2     1  UNL1       -0.2701
      2 C           3.2868   -0.2266   25.9581 C.2     1  UNL1        0.2474
      3 N           2.6701   -0.9209   27.1361 N.am    1  UNL1       -0.2986
      4 H           2.5404   -1.8967   27.1199 H       1  UNL1        0.1498
      5 C           2.2511   -0.1284   28.3388 C.3     1  UNL1        0.1200
      6 C           1.0320    0.7432   28.2752 C.3     1  UNL1        0.2250
      7 O           0.6131    1.5356   29.4779 O.3     1  UNL1       -0.4740
      8 C           1.4132    1.4564   30.7442 C.ar    1  UNL1        0.1346
      9 C           0.9942    2.2489   31.9469 C.ar    1  UNL1        0.0366
     10 C           1.7943    2.1697   33.2132 C.ar    1  UNL1        0.0031
     11 C           3.0135    1.2980   33.2768 C.ar    1  UNL1       -0.0001
     12 C           3.4324    0.5056   32.0741 C.ar    1  UNL1        0.0005
     13 C           2.6323    0.5848   30.8078 C.ar    1  UNL1        0.0136
     14 C           3.0512   -0.2076   29.6051 C.3     1  UNL1        0.0528
     15 C           4.6515   -0.3660   32.1377 C.ar    1  UNL1        0.0190
     16 C           4.5201   -1.8135   32.5085 C.ar    1  UNL1        0.0028
     17 C           5.7392   -2.6851   32.5721 C.ar    1  UNL1        0.0172
     18 CA          7.0898   -2.1092   32.2649 C.ar    1  UNL1        0.0885
     19 N           7.2212   -0.6617   31.8941 N.ar    1  UNL1       -0.2457
     20 C           6.0021    0.2099   31.8305 C.ar    1  UNL1        0.0985
     21 C           8.3089   -2.9808   32.3285 C.3     1  UNL1        0.1829
     22 O           8.2021   -4.4439   32.0154 O.3     1  UNL1       -0.3760
     23 H           7.6558   -4.8795   32.6882 H       1  UNL1        0.2110
     24 C           3.7058   -1.0191   24.7554 C.ar    1  UNL1        0.0727
     25 C           4.7548   -2.0832   24.8865 C.ar    1  UNL1        0.0109
     26 C           5.1738   -2.8756   23.6838 C.ar    1  UNL1        0.0579
     27 C           4.5437   -2.6039   22.3500 C.ar    1  UNL1        0.2249
     28 N           3.4947   -1.5398   22.2188 N.ar    1  UNL1       -0.2100
     29 C           3.0757   -0.7474   23.4215 C.ar    1  UNL1        0.1065
     30 O           4.9627   -3.3964   21.1472 O.3     1  UNL1       -0.4575
     31 C           4.3221   -3.1349   19.8164 C.3     1  UNL1        0.2390
     32 C           5.0506   -3.4828   18.5522 C.3     1  UNL1        0.1897
     33 O           5.3525   -2.4153   17.5424 O.3     1  UNL1       -0.3417
     34 C           5.0789   -0.9767   17.8673 C.3     1  UNL1        0.2459
     35 C           3.6958   -0.4203   17.7017 C.3     1  UNL1        0.4248
     36 F           2.3127    0.1361   17.5361 F       1  UNL1       -0.1674
     37 F           3.7398    0.1071   19.1052 F       1  UNL1       -0.1674
     38 F           3.6517   -0.9477   16.2982 F       1  UNL1       -0.1674
@<TRIPOS>BOND
     1     1     2    2
     2     2     3   am
     3     5     3    1
     4     5     6    1
     5     6     7    1
     6     7     8    1
     7     8     9   ar
     8     9    10   ar
     9    10    11   ar
    10    11    12   ar
    11    12    15    1
    12    15    16   ar
    13    16    17   ar
    14    17    18   ar
    15    18    21    1
    16    21    22    1
    17    18    19   ar
    18    19    20   ar
    19    12    13   ar
    20    13    14    1
    21     2    24    1
    22    24    25   ar
    23    25    26   ar
    24    26    27   ar
    25    27    30    1
    26    30    31    1
    27    31    32    1
    28    32    33    1
    29    33    34    1
    30    34    35    1
    31    35    36    1
    32    35    37    1
    33    35    38    1
    34    27    28   ar
    35    28    29   ar
    36    14     5    1
    37    29    24   ar
    38    13     8   ar
    39    20    15   ar
    40     3     4    1
    41    22    23    1
@<TRIPOS>MOLECULE
*****
 38 41 0 0 0
SMALL
GASTEIGER

@<TRIPOS>ATOM
      1 O           6.5750   -0.8317   25.2355 O.2     1  UNL1       -0.2701
      2 C           5.2406   -1.1022   25.8652 C.2     1  UNL1        0.2474
      3 N           4.2047   -1.8891   25.1185 N.am    1  UNL1       -0.2986
      4 H           3.3290   -2.0666   25.5318 H       1  UNL1        0.1498
      5 C           4.5031   -2.4057   23.7422 C.3     1  UNL1        0.1200
      6 C           5.4655   -3.5416   23.5597 C.3     1  UNL1        0.2250
      7 O           5.7639   -4.0580   22.1834 O.3     1  UNL1       -0.4740
      8 C           5.0998   -3.4386   20.9896 C.ar    1  UNL1        0.1346
      9 C           5.3981   -3.9551   19.6133 C.ar    1  UNL1        0.0366
     10 C           4.7340   -3.3357   18.4194 C.ar    1  UNL1        0.0031
     11 C           3.7715   -2.1997   18.6019 C.ar    1  UNL1       -0.0001
     12 C           3.4732   -1.6832   19.9782 C.ar    1  UNL1        0.0005
     13 C           4.1373   -2.3027   21.1721 C.ar    1  UNL1        0.0136
     14 C           3.8390   -1.7862   22.5483 C.3     1  UNL1        0.0528
     15 C           2.5108   -0.5473   20.1607 C.ar    1  UNL1        0.0190
     16 C           3.0213    0.8596   20.2604 C.ar    1  UNL1        0.0028
     17 C           2.0588    1.9956   20.4428 C.ar    1  UNL1        0.0172
     18 CA          0.5858    1.7246   20.5256 C.ar    1  UNL1        0.0885
     19 N           0.0753    0.3177   20.4259 N.ar    1  UNL1       -0.2457
     20 C           1.0377   -0.8183   20.2435 C.ar    1  UNL1        0.0985
     21 C          -0.3767    2.8606   20.7081 C.3     1  UNL1        0.1829
     22 O          -1.8511    2.5917   20.7699 O.3     1  UNL1       -0.3760
     23 H          -2.1551    2.2576   19.9115 H       1  UNL1        0.2110
     24 C           4.9423   -0.5856   27.2415 C.ar    1  UNL1        0.0727
     25 C           3.5750   -0.7678   27.8309 C.ar    1  UNL1        0.0109
     26 C           3.2767   -0.2513   29.2072 C.ar    1  UNL1        0.0579
     27 C           4.3456    0.4474   29.9941 C.ar    1  UNL1        0.2249
     28 N           5.7129    0.6296   29.4047 N.ar    1  UNL1       -0.2100
     29 C           6.0112    0.1131   28.0284 C.ar    1  UNL1        0.1065
     30 O           4.0473    0.9639   31.3704 O.3     1  UNL1       -0.4575
     31 C           3.2756    0.1169   32.3384 C.3     1  UNL1        0.2390
     32 C           3.9985   -0.6492   33.4063 C.3     1  UNL1        0.1897
     33 O           5.3233   -1.2858   33.1064 O.3     1  UNL1       -0.3417
     34 C           5.3933   -2.7428   32.7569 C.3     1  UNL1        0.2459
     35 C           6.2409   -3.1981   31.6061 C.3     1  UNL1        0.4248
     36 F           7.0885   -3.6534   30.4553 F       1  UNL1       -0.1674
     37 F           7.0476   -4.0526   32.5383 F       1  UNL1       -0.1674
     38 F           5.4342   -2.3436   30.6739 F       1  UNL1       -0.1674
@<TRIPOS>BOND
     1     1     2    2
     2     2     3   am
     3     5     3    1
     4     5     6    1
     5     6     7    1
     6     7     8    1
     7     8     9   ar
     8     9    10   ar
     9    10    11   ar
    10    11    12   ar
    11    12    15    1
    12    15    16   ar
    13    16    17   ar
    14    17    18   ar
    15    18    21    1
    16    21    22    1
    17    18    19   ar
    18    19    20   ar
    19    12    13   ar
    20    13    14    1
    21     2    24    1
    22    24    25   ar
    23    25    26   ar
    24    26    27   ar
    25    27    30    1
    26    30    31    1
    27    31    32    1
    28    32    33    1
    29    33    34    1
    30    34    35    1
    31    35    36    1
    32    35    37    1
    33    35    38    1
    34    27    28   ar
    35    28    29   ar
    36    14     5    1
    37    29    24   ar
    38    13     8   ar
    39    20    15   ar
    40     3     4    1
    41    22    23    1
@<TRIPOS>MOLECULE
*****
 38 41 0 0 0
SMALL
GASTEIGER

@<TRIPOS>ATOM
      1 O           3.1800    2.0455   23.8393 O.2     1  UNL1       -0.2701
      2 C           2.4390    0.7414   23.8184 C.2     1  UNL1        0.2474
      3 N           1.2049    0.5665   24.6529 N.am    1  UNL1       -0.2986
      4 H           0.7186   -0.2894   24.6392 H       1  UNL1        0.1498
      5 C           0.7117    1.6958   25.5083 C.3     1  UNL1        0.1200
      6 C           1.4072    2.0194   26.7973 C.3     1  UNL1        0.2250
      7 O           0.9140    3.1485   27.6526 O.3     1  UNL1       -0.4740
      8 C          -0.2747    3.9541   27.2190 C.ar    1  UNL1        0.1346
      9 C          -0.7679    5.0834   28.0744 C.ar    1  UNL1        0.0366
     10 C          -1.9566    5.8889   27.6407 C.ar    1  UNL1        0.0031
     11 C          -2.6521    5.5653   26.3517 C.ar    1  UNL1       -0.0001
     12 C          -2.1589    4.4361   25.4963 C.ar    1  UNL1        0.0005
     13 C          -0.9702    3.6305   25.9300 C.ar    1  UNL1        0.0136
     14 C          -0.4770    2.5014   25.0747 C.3     1  UNL1        0.0528
     15 C          -2.8544    4.1125   24.2073 C.ar    1  UNL1        0.0190
     16 C          -4.1569    3.3688   24.2241 C.ar    1  UNL1        0.0028
     17 C          -4.8524    3.0453   22.9350 C.ar    1  UNL1        0.0172
     18 CA         -4.2453    3.4653   21.6293 C.ar    1  UNL1        0.0885
     19 N          -2.9428    4.2090   21.6125 N.ar    1  UNL1       -0.2457
     20 C          -2.2473    4.5326   22.9015 C.ar    1  UNL1        0.0985
     21 C          -4.9408    3.1417   20.3402 C.3     1  UNL1        0.1829
     22 O          -4.4431    3.7273   19.0520 O.3     1  UNL1       -0.3760
     23 H          -4.5656    4.6894   19.0655 H       1  UNL1        0.2110
     24 C           2.9322   -0.3878   22.9630 C.ar    1  UNL1        0.0727
     25 C           2.4914   -0.4935   21.5332 C.ar    1  UNL1        0.0109
     26 C           2.9846   -1.6227   20.6778 C.ar    1  UNL1        0.0579
     27 C           3.9186   -2.6462   21.2523 C.ar    1  UNL1        0.2249
     28 N           4.3594   -2.5406   22.6822 N.ar    1  UNL1       -0.2100
     29 C           3.8662   -1.4114   23.5375 C.ar    1  UNL1        0.1065
     30 O           4.4118   -3.7754   20.3969 O.3     1  UNL1       -0.4575
     31 C           4.4740   -3.6157   18.9068 C.3     1  UNL1        0.2390
     32 C           5.6334   -2.9023   18.2768 C.3     1  UNL1        0.1897
     33 O           5.3914   -1.8647   17.2209 O.3     1  UNL1       -0.3417
     34 C           5.1146   -0.4441   17.6149 C.3     1  UNL1        0.2459
     35 C           3.7018    0.0567   17.6720 C.3     1  UNL1        0.4248
     36 F           2.2890    0.5575   17.7291 F       1  UNL1       -0.1674
     37 F           3.3151   -0.9110   16.5931 F       1  UNL1       -0.1674
     38 F           4.0884    1.0244   18.7508 F       1  UNL1       -0.1674
@<TRIPOS>BOND
     1     1     2    2
     2     2     3   am
     3     5     3    1
     4     5     6    1
     5     6     7    1
     6     7     8    1
     7     8     9   ar
     8     9    10   ar
     9    10    11   ar
    10    11    12   ar
    11    12    15    1
    12    15    16   ar
    13    16    17   ar
    14    17    18   ar
    15    18    21    1
    16    21    22    1
    17    18    19   ar
    18    19    20   ar
    19    12    13   ar
    20    13    14    1
    21     2    24    1
    22    24    25   ar
    23    25    26   ar
    24    26    27   ar
    25    27    30    1
    26    30    31    1
    27    31    32    1
    28    32    33    1
    29    33    34    1
    30    34    35    1
    31    35    36    1
    32    35    37    1
    33    35    38    1
    34    27    28   ar
    35    28    29   ar
    36    14     5    1
    37    29    24   ar
    38    13     8   ar
    39    20    15   ar
    40     3     4    1
    41    22    23    1
@<TRIPOS>MOLECULE
*****
 38 41 0 0 0
SMALL
GASTEIGER

@<TRIPOS>ATOM
      1 O           4.2959   -2.9895   21.9411 O.2     1  UNL1       -0.2701
      2 C           4.7064   -1.9502   22.9418 C.2     1  UNL1        0.2474
      3 N           5.9104   -2.1767   23.8073 N.am    1  UNL1       -0.2986
      4 H           6.1798   -1.4946   24.4641 H       1  UNL1        0.1498
      5 C           6.7039   -3.4425   23.6721 C.3     1  UNL1        0.1200
      6 C           7.0460   -3.9714   22.3108 C.3     1  UNL1        0.2250
      7 O           7.8395   -5.2371   22.1757 O.3     1  UNL1       -0.4740
      8 C           8.2909   -5.9739   23.4018 C.ar    1  UNL1        0.1346
      9 C           9.0845   -7.2396   23.2666 C.ar    1  UNL1        0.0366
     10 C           9.5359   -7.9764   24.4927 C.ar    1  UNL1        0.0031
     11 C           9.1938   -7.4474   25.8541 C.ar    1  UNL1       -0.0001
     12 C           8.4003   -6.1817   25.9892 C.ar    1  UNL1        0.0005
     13 C           7.9489   -5.4449   24.7631 C.ar    1  UNL1        0.0136
     14 C           7.1554   -4.1792   24.8982 C.3     1  UNL1        0.0528
     15 C           8.0582   -5.6527   27.3505 C.ar    1  UNL1        0.0190
     16 C           9.0610   -4.8378   28.1122 C.ar    1  UNL1        0.0028
     17 C           8.7189   -4.3088   29.4736 C.ar    1  UNL1        0.0172
     18 CA          7.3741   -4.5948   30.0731 C.ar    1  UNL1        0.0885
     19 N           6.3713   -5.4097   29.3114 N.ar    1  UNL1       -0.2457
     20 C           6.7133   -5.9387   27.9501 C.ar    1  UNL1        0.0985
     21 C           7.0319   -4.0658   31.4345 C.3     1  UNL1        0.1829
     22 O           6.3829   -4.9630   32.4464 O.3     1  UNL1       -0.3760
     23 H           5.4958   -5.2077   32.1397 H       1  UNL1        0.2110
     24 C           3.9129   -0.6844   23.0770 C.ar    1  UNL1        0.0727
     25 C           2.8328   -0.5834   24.1129 C.ar    1  UNL1        0.0109
     26 C           2.0393    0.6823   24.2481 C.ar    1  UNL1        0.0579
     27 C           2.3260    1.8470   23.3473 C.ar    1  UNL1        0.2249
     28 N           3.4061    1.7460   22.3115 N.ar    1  UNL1       -0.2100
     29 C           4.1996    0.4803   22.1763 C.ar    1  UNL1        0.1065
     30 O           1.5324    3.1128   23.4825 O.3     1  UNL1       -0.4575
     31 C           0.2188    3.2539   22.7724 C.3     1  UNL1        0.2390
     32 C           0.0936    2.8369   21.3370 C.3     1  UNL1        0.1897
     33 O          -0.1086    1.3915   20.9908 O.3     1  UNL1       -0.3417
     34 C           0.4920    0.8296   19.7364 C.3     1  UNL1        0.2459
     35 C           1.5249   -0.2550   19.8198 C.3     1  UNL1        0.4248
     36 F           2.5578   -1.3395   19.9033 F       1  UNL1       -0.1674
     37 F           0.5265   -1.1546   20.4859 F       1  UNL1       -0.1674
     38 F           2.5233    0.6447   19.1537 F       1  UNL1       -0.1674
@<TRIPOS>BOND
     1     1     2    2
     2     2     3   am
     3     5     3    1
     4     5     6    1
     5     6     7    1
     6     7     8    1
     7     8     9   ar
     8     9    10   ar
     9    10    11   ar
    10    11    12   ar
    11    12    15    1
    12    15    16   ar
    13    16    17   ar
    14    17    18   ar
    15    18    21    1
    16    21    22    1
    17    18    19   ar
    18    19    20   ar
    19    12    13   ar
    20    13    14    1
    21     2    24    1
    22    24    25   ar
    23    25    26   ar
    24    26    27   ar
    25    27    30    1
    26    30    31    1
    27    31    32    1
    28    32    33    1
    29    33    34    1
    30    34    35    1
    31    35    36    1
    32    35    37    1
    33    35    38    1
    34    27    28   ar
    35    28    29   ar
    36    14     5    1
    37    29    24   ar
    38    13     8   ar
    39    20    15   ar
    40     3     4    1
    41    22    23    1
@<TRIPOS>MOLECULE
*****
 38 41 0 0 0
SMALL
GASTEIGER

@<TRIPOS>ATOM
      1 O           5.9945    0.0083   24.7518 O.2     1  UNL1       -0.2701
      2 C           5.0119   -0.7000   25.6365 C.2     1  UNL1        0.2474
      3 N           4.3295   -1.9453   25.1533 N.am    1  UNL1       -0.2986
      4 H           3.6846   -2.4102   25.7341 H       1  UNL1        0.1498
      5 C           4.6298   -2.4825   23.7853 C.3     1  UNL1        0.1200
      6 C           5.5802   -3.6315   23.6227 C.3     1  UNL1        0.2250
      7 O           5.8804   -4.1686   22.2547 O.3     1  UNL1       -0.4740
      8 C           5.2303   -3.5566   21.0494 C.ar    1  UNL1        0.1346
      9 C           5.5305   -4.0938   19.6814 C.ar    1  UNL1        0.0366
     10 C           4.8804   -3.4819   18.4761 C.ar    1  UNL1        0.0031
     11 C           3.9299   -2.3328   18.6387 C.ar    1  UNL1       -0.0001
     12 C           3.6297   -1.7957   20.0067 C.ar    1  UNL1        0.0005
     13 C           4.2799   -2.4076   21.2120 C.ar    1  UNL1        0.0136
     14 C           3.9796   -1.8706   22.5800 C.3     1  UNL1        0.0528
     15 C           2.6793   -0.6467   20.1693 C.ar    1  UNL1        0.0190
     16 C           1.2055   -0.9025   20.2814 C.ar    1  UNL1        0.0028
     17 C           0.2551    0.2466   20.4440 C.ar    1  UNL1        0.0172
     18 CA          0.7785    1.6514   20.4946 C.ar    1  UNL1        0.0885
     19 N           2.2522    1.9072   20.3826 N.ar    1  UNL1       -0.2457
     20 C           3.2026    0.7582   20.2199 C.ar    1  UNL1        0.0985
     21 C          -0.1720    2.8005   20.6572 C.3     1  UNL1        0.1829
     22 O          -1.6435    2.5432   20.7925 O.3     1  UNL1       -0.3760
     23 H          -1.9834    2.1673   19.9654 H       1  UNL1        0.2110
     24 C           4.7116   -0.1629   27.0045 C.ar    1  UNL1        0.0727
     25 C           5.6054   -0.5080   28.1586 C.ar    1  UNL1        0.0109
     26 C           5.3051    0.0291   29.5265 C.ar    1  UNL1        0.0579
     27 C           4.1110    0.9114   29.7404 C.ar    1  UNL1        0.2249
     28 N           3.2172    1.2565   28.5863 N.ar    1  UNL1       -0.2100
     29 C           3.5175    0.7194   27.2184 C.ar    1  UNL1        0.1065
     30 O           3.8107    1.4485   31.1084 O.3     1  UNL1       -0.4575
     31 C           4.7908    2.3575   31.7890 C.3     1  UNL1        0.2390
     32 C           5.6647    1.8299   32.8880 C.3     1  UNL1        0.1897
     33 O           5.1033    1.6369   34.2655 O.3     1  UNL1       -0.3417
     34 C           4.1709    0.4950   34.5422 C.3     1  UNL1        0.2459
     35 C           4.5662   -0.9032   34.1694 C.3     1  UNL1        0.4248
     36 F           4.9615   -2.3014   33.7967 F       1  UNL1       -0.1674
     37 F           3.5231   -0.9108   33.0916 F       1  UNL1       -0.1674
     38 F           5.6093   -0.8957   35.2473 F       1  UNL1       -0.1674
@<TRIPOS>BOND
     1     1     2    2
     2     2     3   am
     3     5     3    1
     4     5     6    1
     5     6     7    1
     6     7     8    1
     7     8     9   ar
     8     9    10   ar
     9    10    11   ar
    10    11    12   ar
    11    12    15    1
    12    15    16   ar
    13    16    17   ar
    14    17    18   ar
    15    18    21    1
    16    21    22    1
    17    18    19   ar
    18    19    20   ar
    19    12    13   ar
    20    13    14    1
    21     2    24    1
    22    24    25   ar
    23    25    26   ar
    24    26    27   ar
    25    27    30    1
    26    30    31    1
    27    31    32    1
    28    32    33    1
    29    33    34    1
    30    34    35    1
    31    35    36    1
    32    35    37    1
    33    35    38    1
    34    27    28   ar
    35    28    29   ar
    36    14     5    1
    37    29    24   ar
    38    13     8   ar
    39    20    15   ar
    40     3     4    1
    41    22    23    1
@<TRIPOS>MOLECULE
*****
 38 41 0 0 0
SMALL
GASTEIGER

@<TRIPOS>ATOM
      1 O           8.8587   -3.8562   31.2499 O.2     1  UNL1       -0.2701
      2 C           7.3805   -3.6043   31.2097 C.2     1  UNL1        0.2474
      3 N           6.5371   -4.2561   30.1545 N.am    1  UNL1       -0.2986
      4 H           5.5669   -4.0908   30.1281 H       1  UNL1        0.1498
      5 C           7.1717   -5.1600   29.1394 C.3     1  UNL1        0.1200
      6 C           7.7480   -6.4779   29.5648 C.3     1  UNL1        0.2250
      7 O           8.3826   -7.3817   28.5497 O.3     1  UNL1       -0.4740
      8 C           8.4410   -6.9675   27.1092 C.ar    1  UNL1        0.1346
      9 C           9.0756   -7.8714   26.0941 C.ar    1  UNL1        0.0366
     10 C           9.1340   -7.4573   24.6536 C.ar    1  UNL1        0.0031
     11 C           8.5578   -6.1393   24.2282 C.ar    1  UNL1       -0.0001
     12 C           7.9231   -5.2355   25.2433 C.ar    1  UNL1        0.0005
     13 C           7.8647   -5.6496   26.6838 C.ar    1  UNL1        0.0136
     14 C           7.2301   -4.7459   27.6989 C.3     1  UNL1        0.0528
     15 C           7.3469   -3.9176   24.8178 C.ar    1  UNL1        0.0190
     16 C           5.9967   -3.8645   24.1667 C.ar    1  UNL1        0.0028
     17 C           5.4204   -2.5465   23.7412 C.ar    1  UNL1        0.0172
     18 CA          6.1945   -1.2817   23.9669 C.ar    1  UNL1        0.0885
     19 N           7.5447   -1.3348   24.6181 N.ar    1  UNL1       -0.2457
     20 C           8.1209   -2.6527   25.0435 C.ar    1  UNL1        0.0985
     21 C           5.6183    0.0363   23.5415 C.3     1  UNL1        0.1829
     22 O           4.3225    0.5127   24.1280 O.3     1  UNL1       -0.3760
     23 H           3.6047   -0.0764   23.8475 H       1  UNL1        0.2110
     24 C           6.7459   -2.7004   32.2248 C.ar    1  UNL1        0.0727
     25 C           5.3046   -2.8854   32.5966 C.ar    1  UNL1        0.0109
     26 C           4.6700   -1.9815   33.6116 C.ar    1  UNL1        0.0579
     27 C           5.4767   -0.8928   34.2548 C.ar    1  UNL1        0.2249
     28 N           6.9180   -0.7078   33.8830 N.ar    1  UNL1       -0.2100
     29 C           7.5526   -1.6116   32.8680 C.ar    1  UNL1        0.1065
     30 O           4.8421    0.0111   35.2699 O.3     1  UNL1       -0.4575
     31 C           5.4808    0.1940   36.6147 C.3     1  UNL1        0.2390
     32 C           4.9024    1.1732   37.5928 C.3     1  UNL1        0.1897
     33 O           3.4383    1.4974   37.5527 O.3     1  UNL1       -0.3417
     34 C           2.5048    0.8748   38.5480 C.3     1  UNL1        0.2459
     35 C           1.2901    1.6251   39.0083 C.3     1  UNL1        0.4248
     36 F           0.0755    2.3752   39.4685 F       1  UNL1       -0.1674
     37 F           1.9941    2.9240   38.7491 F       1  UNL1       -0.1674
     38 F           0.5861    0.3262   39.2674 F       1  UNL1       -0.1674
@<TRIPOS>BOND
     1     1     2    2
     2     2     3   am
     3     5     3    1
     4     5     6    1
     5     6     7    1
     6     7     8    1
     7     8     9   ar
     8     9    10   ar
     9    10    11   ar
    10    11    12   ar
    11    12    15    1
    12    15    16   ar
    13    16    17   ar
    14    17    18   ar
    15    18    21    1
    16    21    22    1
    17    18    19   ar
    18    19    20   ar
    19    12    13   ar
    20    13    14    1
    21     2    24    1
    22    24    25   ar
    23    25    26   ar
    24    26    27   ar
    25    27    30    1
    26    30    31    1
    27    31    32    1
    28    32    33    1
    29    33    34    1
    30    34    35    1
    31    35    36    1
    32    35    37    1
    33    35    38    1
    34    27    28   ar
    35    28    29   ar
    36    14     5    1
    37    29    24   ar
    38    13     8   ar
    39    20    15   ar
    40     3     4    1
    41    22    23    1
