@<TRIPOS>MOLECULE
*****
 29 33 0 0 0
SMALL
GASTEIGER

@<TRIPOS>ATOM
      1 C           2.5152   -0.0676   19.1250 C.ar    1  UNL1        0.0013
      2 C           1.4035   -0.5303   20.0193 C.ar    1  UNL1        0.0002
      3 C           0.2597    0.3888   20.3307 C.ar    1  UNL1        0.0051
      4 C           0.2277    1.7705   19.7479 C.ar    1  UNL1        0.0623
      5 C           1.3395    2.2332   18.8536 C.ar    1  UNL1        0.0775
      6 C           2.4833    1.3141   18.5421 C.ar    1  UNL1        0.0167
      7 N           1.3075    3.6150   18.2707 N.am    1  UNL1       -0.1720
      8 C           0.1637    4.5340   18.5822 C.2     1  UNL1        0.3160
      9 O           0.1318    5.9158   17.9994 O.2     1  UNL1       -0.2638
     10 C          -0.9481    4.0714   19.4766 C.2     1  UNL1        0.2907
     11 N          -2.1965    4.7489   19.9586 N.2     1  UNL1       -0.0255
     12 C          -2.9361    3.7860   20.8392 C.2     1  UNL1        0.3787
     13 N          -2.1448    2.5133   20.9016 N.2     1  UNL1       -0.0302
     14 C          -0.9161    2.6896   20.0594 C.2     1  UNL1        0.2419
     15 C          -4.2383    4.0495   21.5354 C.ar    1  UNL1        0.1263
     16 C          -5.4612    4.3885   20.7356 C.ar    1  UNL1        0.1484
     17 F          -5.3817    4.4641   19.2396 F       1  UNL1       -0.2039
     18 C          -6.7634    4.6520   21.4318 C.ar    1  UNL1        0.0300
     19 C          -6.8429    4.5765   22.9277 C.ar    1  UNL1        0.0032
     20 C          -5.6201    4.2374   23.7275 C.ar    1  UNL1        0.0118
     21 C          -4.3178    3.9739   23.0314 C.ar    1  UNL1        0.0673
     22 CL         -3.0949    3.6349   23.8312 Cl      1  UNL1       -0.0819
     23 C           4.5109   -4.8612   18.9267 C.3     1  UNL1        0.0310
     24 C           4.6569   -3.3835   18.7143 C.ar    1  UNL1       -0.0218
     25 C           5.9467   -2.8249   18.1905 C.ar    1  UNL1       -0.0043
     26 C           6.0927   -1.3472   17.9781 C.ar    1  UNL1       -0.0003
     27 C           4.9488   -0.4281   18.2896 C.ar    1  UNL1       -0.0000
     28 C           3.6591   -0.9867   18.8135 C.ar    1  UNL1       -0.0003
     29 C           3.5131   -2.4644   19.0258 C.ar    1  UNL1       -0.0043
@<TRIPOS>BOND
     1    23    24    1
     2    24    25   ar
     3    25    26   ar
     4    26    27   ar
     5    27    28   ar
     6    28     1    1
     7     1     2   ar
     8     2     3   ar
     9     3     4   ar
    10     4     5   ar
    11     5     6   ar
    12     5     7    2
    13     7     8    1
    14     8     9    2
    15     8    10    1
    16    10    11    2
    17    11    12    1
    18    12    15    1
    19    15    16   ar
    20    16    17    1
    21    16    18   ar
    22    18    19   ar
    23    19    20   ar
    24    20    21   ar
    25    21    22    1
    26    12    13    2
    27    13    14    1
    28    28    29   ar
    29    29    24   ar
    30     6     1   ar
    31    14    10    1
    32    14     4    2
    33    21    15   ar
@<TRIPOS>MOLECULE
*****
 29 33 0 0 0
SMALL
GASTEIGER

@<TRIPOS>ATOM
      1 C           2.5166   -0.0642   19.1322 C.ar    1  UNL1        0.0013
      2 C           1.3910   -0.5365   20.0040 C.ar    1  UNL1        0.0002
      3 C           0.2478    0.3829   20.3163 C.ar    1  UNL1        0.0051
      4 C           0.2301    1.7746   19.7569 C.ar    1  UNL1        0.0623
      5 C           1.3557    2.2469   18.8851 C.ar    1  UNL1        0.0775
      6 C           2.4989    1.3275   18.5728 C.ar    1  UNL1        0.0167
      7 N           1.3380    3.6385   18.3257 N.am    1  UNL1       -0.1720
      8 C           0.1947    4.5579   18.6380 C.2     1  UNL1        0.3160
      9 O           0.1770    5.9496   18.0786 O.2     1  UNL1       -0.2638
     10 C          -0.9310    4.0857   19.5098 C.2     1  UNL1        0.2907
     11 N          -2.1823    4.7612   19.9871 N.2     1  UNL1       -0.0255
     12 C          -2.9379    3.7871   20.8415 C.2     1  UNL1        0.3787
     13 N          -2.1537    2.5095   20.8923 N.2     1  UNL1       -0.0302
     14 C          -0.9133    2.6940   20.0692 C.2     1  UNL1        0.2419
     15 C          -4.2478    4.0453   21.5251 C.ar    1  UNL1        0.1263
     16 C          -4.3551    3.9125   23.0154 C.ar    1  UNL1        0.1484
     17 F          -3.1523    3.5216   23.8220 F       1  UNL1       -0.2039
     18 C          -5.6651    4.1707   23.6990 C.ar    1  UNL1        0.0300
     19 C          -6.8678    4.5616   22.8924 C.ar    1  UNL1        0.0032
     20 C          -6.7605    4.6944   21.4022 C.ar    1  UNL1        0.0118
     21 C          -5.4506    4.4362   20.7185 C.ar    1  UNL1        0.0673
     22 CL         -5.3433    4.5690   19.2282 Cl      1  UNL1       -0.0819
     23 C           4.5103   -4.8584   18.9314 C.3     1  UNL1        0.0310
     24 C           4.6568   -3.3807   18.7194 C.ar    1  UNL1       -0.0218
     25 C           5.9466   -2.8224   18.1952 C.ar    1  UNL1       -0.0043
     26 C           6.0930   -1.3447   17.9832 C.ar    1  UNL1       -0.0003
     27 C           4.9497   -0.4253   18.2956 C.ar    1  UNL1       -0.0000
     28 C           3.6600   -0.9836   18.8199 C.ar    1  UNL1       -0.0003
     29 C           3.5135   -2.4613   19.0318 C.ar    1  UNL1       -0.0043
@<TRIPOS>BOND
     1    23    24    1
     2    24    25   ar
     3    25    26   ar
     4    26    27   ar
     5    27    28   ar
     6    28     1    1
     7     1     2   ar
     8     2     3   ar
     9     3     4   ar
    10     4     5   ar
    11     5     6   ar
    12     5     7    2
    13     7     8    1
    14     8     9    2
    15     8    10    1
    16    10    11    2
    17    11    12    1
    18    12    15    1
    19    15    16   ar
    20    16    17    1
    21    16    18   ar
    22    18    19   ar
    23    19    20   ar
    24    20    21   ar
    25    21    22    1
    26    12    13    2
    27    13    14    1
    28    28    29   ar
    29    29    24   ar
    30     6     1   ar
    31    14    10    1
    32    14     4    2
    33    21    15   ar
@<TRIPOS>MOLECULE
*****
 29 33 0 0 0
SMALL
GASTEIGER

@<TRIPOS>ATOM
      1 C           2.7545   -0.8673   20.9997 C.ar    1  UNL1        0.0013
      2 C           1.6065   -0.8123   20.0358 C.ar    1  UNL1        0.0002
      3 C           0.5187    0.2034   20.2223 C.ar    1  UNL1        0.0051
      4 C           0.5787    1.1641   21.3727 C.ar    1  UNL1        0.0623
      5 C           1.7267    1.1091   22.3366 C.ar    1  UNL1        0.0775
      6 C           2.8146    0.0934   22.1501 C.ar    1  UNL1        0.0167
      7 N           1.7868    2.0699   23.4870 N.am    1  UNL1       -0.1720
      8 C           0.6989    3.0856   23.6735 C.2     1  UNL1        0.3160
      9 O           0.7590    4.0463   24.8239 O.2     1  UNL1       -0.2638
     10 C          -0.4491    3.1406   22.7096 C.2     1  UNL1        0.2907
     11 N          -1.6583    4.0254   22.6382 N.2     1  UNL1       -0.0255
     12 C          -2.4656    3.6115   21.4437 C.2     1  UNL1        0.3787
     13 N          -1.7555    2.4709   20.7768 N.2     1  UNL1       -0.0302
     14 C          -0.5092    2.1799   21.5592 C.2     1  UNL1        0.2419
     15 C          -3.7565    4.2297   20.9949 C.ar    1  UNL1        0.1263
     16 C          -3.7673    5.1911   19.8436 C.ar    1  UNL1        0.1484
     17 F          -2.4872    5.5343   19.1410 F       1  UNL1       -0.2039
     18 C          -5.0582    5.8092   19.3947 C.ar    1  UNL1        0.0300
     19 C          -6.3383    5.4660   20.0972 C.ar    1  UNL1        0.0032
     20 C          -6.3275    4.5046   21.2485 C.ar    1  UNL1        0.0118
     21 C          -5.0366    3.8864   21.6973 C.ar    1  UNL1        0.0673
     22 CL         -5.0258    2.9250   22.8487 Cl      1  UNL1       -0.0819
     23 C           4.5418   -5.1793   18.7167 C.3     1  UNL1        0.0310
     24 C           4.7361   -4.0390   19.6717 C.ar    1  UNL1       -0.0218
     25 C           6.0183   -3.9145   20.4402 C.ar    1  UNL1       -0.0043
     26 C           6.2125   -2.7742   21.3952 C.ar    1  UNL1       -0.0003
     27 C           5.1245   -1.7585   21.5817 C.ar    1  UNL1       -0.0000
     28 C           3.8424   -1.8830   20.8132 C.ar    1  UNL1       -0.0003
     29 C           3.6482   -3.0233   19.8582 C.ar    1  UNL1       -0.0043
@<TRIPOS>BOND
     1    23    24    1
     2    24    25   ar
     3    25    26   ar
     4    26    27   ar
     5    27    28   ar
     6    28     1    1
     7     1     2   ar
     8     2     3   ar
     9     3     4   ar
    10     4     5   ar
    11     5     6   ar
    12     5     7    2
    13     7     8    1
    14     8     9    2
    15     8    10    1
    16    10    11    2
    17    11    12    1
    18    12    15    1
    19    15    16   ar
    20    16    17    1
    21    16    18   ar
    22    18    19   ar
    23    19    20   ar
    24    20    21   ar
    25    21    22    1
    26    12    13    2
    27    13    14    1
    28    28    29   ar
    29    29    24   ar
    30     6     1   ar
    31    14    10    1
    32    14     4    2
    33    21    15   ar
@<TRIPOS>MOLECULE
*****
 29 33 0 0 0
SMALL
GASTEIGER

@<TRIPOS>ATOM
      1 C           6.4515   -3.9322   23.5195 C.ar    1  UNL1        0.0013
      2 C           5.4001   -2.9321   23.8992 C.ar    1  UNL1        0.0002
      3 C           4.8567   -1.9873   22.8687 C.ar    1  UNL1        0.0051
      4 C           5.3648   -2.0426   21.4584 C.ar    1  UNL1        0.0623
      5 C           6.4162   -3.0427   21.0787 C.ar    1  UNL1        0.0775
      6 C           6.9595   -3.9875   22.1092 C.ar    1  UNL1        0.0167
      7 N           6.9242   -3.0981   19.6684 N.am    1  UNL1       -0.1720
      8 C           6.3808   -2.1533   18.6379 C.2     1  UNL1        0.3160
      9 O           6.8888   -2.2086   17.2276 O.2     1  UNL1       -0.2638
     10 C           5.3293   -1.1531   19.0176 C.2     1  UNL1        0.2907
     11 N           4.6106   -0.1022   18.2245 N.2     1  UNL1       -0.0255
     12 C           3.6584    0.6026   19.1445 C.2     1  UNL1        0.3787
     13 N           3.7886   -0.0126   20.5063 N.2     1  UNL1       -0.0302
     14 C           4.8213   -1.0977   20.4279 C.2     1  UNL1        0.2419
     15 C           2.7377    1.7255   18.7688 C.ar    1  UNL1        0.1263
     16 C           1.2637    1.4771   18.6442 C.ar    1  UNL1        0.1484
     17 F           0.7104    0.1056   18.8954 F       1  UNL1       -0.2039
     18 C           0.3429    2.6000   18.2685 C.ar    1  UNL1        0.0300
     19 C           0.8961    3.9714   18.0173 C.ar    1  UNL1        0.0032
     20 C           2.3701    4.2199   18.1419 C.ar    1  UNL1        0.0118
     21 C           3.2909    3.0969   18.5176 C.ar    1  UNL1        0.0673
     22 CL          4.7650    3.3455   18.6421 Cl      1  UNL1       -0.0819
     23 C           6.8465   -5.4440   28.4751 C.3     1  UNL1        0.0310
     24 C           7.1924   -5.6330   27.0278 C.ar    1  UNL1       -0.0218
     25 C           8.0818   -6.7668   26.6111 C.ar    1  UNL1       -0.0043
     26 C           8.4277   -6.9557   25.1638 C.ar    1  UNL1       -0.0003
     27 C           7.8843   -6.0108   24.1333 C.ar    1  UNL1       -0.0000
     28 C           6.9950   -4.8771   24.5500 C.ar    1  UNL1       -0.0003
     29 C           6.6490   -4.6882   25.9973 C.ar    1  UNL1       -0.0043
@<TRIPOS>BOND
     1    23    24    1
     2    24    25   ar
     3    25    26   ar
     4    26    27   ar
     5    27    28   ar
     6    28     1    1
     7     1     2   ar
     8     2     3   ar
     9     3     4   ar
    10     4     5   ar
    11     5     6   ar
    12     5     7    2
    13     7     8    1
    14     8     9    2
    15     8    10    1
    16    10    11    2
    17    11    12    1
    18    12    15    1
    19    15    16   ar
    20    16    17    1
    21    16    18   ar
    22    18    19   ar
    23    19    20   ar
    24    20    21   ar
    25    21    22    1
    26    12    13    2
    27    13    14    1
    28    28    29   ar
    29    29    24   ar
    30     6     1   ar
    31    14    10    1
    32    14     4    2
    33    21    15   ar
@<TRIPOS>MOLECULE
*****
 29 33 0 0 0
SMALL
GASTEIGER

@<TRIPOS>ATOM
      1 C           3.0309   -0.6284   22.5493 C.ar    1  UNL1        0.0013
      2 C           4.0450   -1.7265   22.6747 C.ar    1  UNL1        0.0002
      3 C           4.6140   -2.0721   24.0189 C.ar    1  UNL1        0.0051
      4 C           4.1688   -1.3195   25.2377 C.ar    1  UNL1        0.0623
      5 C           3.1547   -0.2214   25.1123 C.ar    1  UNL1        0.0775
      6 C           2.5857    0.1241   23.7681 C.ar    1  UNL1        0.0167
      7 N           2.7095    0.5311   26.3311 N.am    1  UNL1       -0.1720
      8 C           3.2784    0.1855   27.6753 C.2     1  UNL1        0.3160
      9 O           2.8332    0.9381   28.8941 O.2     1  UNL1       -0.2638
     10 C           4.2926   -0.9126   27.8007 C.2     1  UNL1        0.2907
     11 N           5.0243   -1.4728   28.9843 N.2     1  UNL1       -0.0255
     12 C           5.9216   -2.5714   28.4970 C.2     1  UNL1        0.3787
     13 N           5.7446   -2.6904   27.0123 N.2     1  UNL1       -0.0302
     14 C           4.7378   -1.6651   26.5819 C.2     1  UNL1        0.2419
     15 C           6.8356   -3.4049   29.3454 C.ar    1  UNL1        0.1263
     16 C           6.7341   -4.9011   29.3110 C.ar    1  UNL1        0.1484
     17 F           5.7186   -5.5638   28.4280 F       1  UNL1       -0.2039
     18 C           7.6481   -5.7345   30.1594 C.ar    1  UNL1        0.0300
     19 C           8.6636   -5.0719   31.0424 C.ar    1  UNL1        0.0032
     20 C           8.7651   -3.5758   31.0768 C.ar    1  UNL1        0.0118
     21 C           7.8511   -2.7423   30.2283 C.ar    1  UNL1        0.0673
     22 CL          7.9527   -1.2461   30.2628 Cl      1  UNL1       -0.0819
     23 C           3.5126   -0.4093   17.3802 C.3     1  UNL1        0.0310
     24 C           2.7028   -0.1733   18.6205 C.ar    1  UNL1       -0.0218
     25 C           1.3240    0.4083   18.5167 C.ar    1  UNL1       -0.0043
     26 C           0.5142    0.6443   19.7570 C.ar    1  UNL1       -0.0003
     27 C           1.0832    0.2987   21.1013 C.ar    1  UNL1       -0.0000
     28 C           2.4619   -0.2828   21.2051 C.ar    1  UNL1       -0.0003
     29 C           3.2717   -0.5188   19.9647 C.ar    1  UNL1       -0.0043
@<TRIPOS>BOND
     1    23    24    1
     2    24    25   ar
     3    25    26   ar
     4    26    27   ar
     5    27    28   ar
     6    28     1    1
     7     1     2   ar
     8     2     3   ar
     9     3     4   ar
    10     4     5   ar
    11     5     6   ar
    12     5     7    2
    13     7     8    1
    14     8     9    2
    15     8    10    1
    16    10    11    2
    17    11    12    1
    18    12    15    1
    19    15    16   ar
    20    16    17    1
    21    16    18   ar
    22    18    19   ar
    23    19    20   ar
    24    20    21   ar
    25    21    22    1
    26    12    13    2
    27    13    14    1
    28    28    29   ar
    29    29    24   ar
    30     6     1   ar
    31    14    10    1
    32    14     4    2
    33    21    15   ar
@<TRIPOS>MOLECULE
*****
 29 33 0 0 0
SMALL
GASTEIGER

@<TRIPOS>ATOM
      1 C           4.6411   -2.2317   23.9351 C.ar    1  UNL1        0.0013
      2 C           3.9309   -1.3566   24.9250 C.ar    1  UNL1        0.0002
      3 C           4.4009   -1.2997   26.3483 C.ar    1  UNL1        0.0051
      4 C           5.5811   -2.1179   26.7817 C.ar    1  UNL1        0.0623
      5 C           6.2912   -2.9930   25.7919 C.ar    1  UNL1        0.0775
      6 C           5.8212   -3.0499   24.3686 C.ar    1  UNL1        0.0167
      7 N           7.4714   -3.8111   26.2253 N.am    1  UNL1       -0.1720
      8 C           7.9414   -3.7542   27.6486 C.2     1  UNL1        0.3160
      9 O           9.1215   -4.5724   28.0820 O.2     1  UNL1       -0.2638
     10 C           7.2312   -2.8791   28.6385 C.2     1  UNL1        0.2907
     11 N           7.4640   -2.6202   30.0975 N.2     1  UNL1       -0.0255
     12 C           6.4278   -1.6420   30.5658 C.2     1  UNL1        0.3787
     13 N           5.5546   -1.2964   29.3963 N.2     1  UNL1       -0.0302
     14 C           6.0511   -2.0609   28.2051 C.2     1  UNL1        0.2419
     15 C           6.2892   -1.1039   31.9591 C.ar    1  UNL1        0.1263
     16 C           5.2477   -1.6666   32.8802 C.ar    1  UNL1        0.1484
     17 F           4.3448   -2.7675   32.4081 F       1  UNL1       -0.2039
     18 C           5.1091   -1.1285   34.2735 C.ar    1  UNL1        0.0300
     19 C           6.0119   -0.0277   34.7456 C.ar    1  UNL1        0.0032
     20 C           7.0534    0.5350   33.8245 C.ar    1  UNL1        0.0118
     21 C           7.1920   -0.0031   32.4312 C.ar    1  UNL1        0.0673
     22 CL          8.2336    0.5597   31.5100 Cl      1  UNL1       -0.0819
     23 C           4.5284   -4.6279   19.3259 C.3     1  UNL1        0.0310
     24 C           4.1147   -3.4868   20.2072 C.ar    1  UNL1       -0.0218
     25 C           3.2311   -2.4026   19.6651 C.ar    1  UNL1       -0.0043
     26 C           2.8175   -1.2614   20.5464 C.ar    1  UNL1       -0.0003
     27 C           3.2875   -1.2045   21.9698 C.ar    1  UNL1       -0.0000
     28 C           4.1711   -2.2886   22.5118 C.ar    1  UNL1       -0.0003
     29 C           4.5847   -3.4298   21.6305 C.ar    1  UNL1       -0.0043
@<TRIPOS>BOND
     1    23    24    1
     2    24    25   ar
     3    25    26   ar
     4    26    27   ar
     5    27    28   ar
     6    28     1    1
     7     1     2   ar
     8     2     3   ar
     9     3     4   ar
    10     4     5   ar
    11     5     6   ar
    12     5     7    2
    13     7     8    1
    14     8     9    2
    15     8    10    1
    16    10    11    2
    17    11    12    1
    18    12    15    1
    19    15    16   ar
    20    16    17    1
    21    16    18   ar
    22    18    19   ar
    23    19    20   ar
    24    20    21   ar
    25    21    22    1
    26    12    13    2
    27    13    14    1
    28    28    29   ar
    29    29    24   ar
    30     6     1   ar
    31    14    10    1
    32    14     4    2
    33    21    15   ar
@<TRIPOS>MOLECULE
*****
 29 33 0 0 0
SMALL
GASTEIGER

@<TRIPOS>ATOM
      1 C           2.8859   -0.6185   21.4417 C.ar    1  UNL1        0.0013
      2 C           3.4279   -0.8962   22.8124 C.ar    1  UNL1        0.0002
      3 C           2.8557   -0.1860   24.0032 C.ar    1  UNL1        0.0051
      4 C           1.7415    0.8019   23.8233 C.ar    1  UNL1        0.0623
      5 C           1.1994    1.0797   22.4525 C.ar    1  UNL1        0.0775
      6 C           1.7717    0.3694   21.2617 C.ar    1  UNL1        0.0167
      7 N           0.0852    2.0676   22.2726 N.am    1  UNL1       -0.1720
      8 C          -0.4871    2.7778   23.4634 C.2     1  UNL1        0.3160
      9 O          -1.6013    3.7658   23.2834 O.2     1  UNL1       -0.2638
     10 C           0.0550    2.5001   24.8342 C.2     1  UNL1        0.2907
     11 N          -0.3059    3.0429   26.1852 N.2     1  UNL1       -0.0255
     12 C           0.5853    2.3904   27.2000 C.2     1  UNL1        0.3787
     13 N           1.4969    1.4444   26.4764 N.2     1  UNL1       -0.0302
     14 C           1.1692    1.5122   25.0142 C.2     1  UNL1        0.2419
     15 C           0.5678    2.6402   28.6790 C.ar    1  UNL1        0.1263
     16 C           0.9361    3.9915   29.2159 C.ar    1  UNL1        0.1484
     17 F           1.3219    5.0932   28.2737 F       1  UNL1       -0.2039
     18 C           0.9187    4.2412   30.6948 C.ar    1  UNL1        0.0300
     19 C           0.5329    3.1396   31.6369 C.ar    1  UNL1        0.0032
     20 C           0.1646    1.7883   31.1001 C.ar    1  UNL1        0.0118
     21 C           0.1821    1.5386   29.6211 C.ar    1  UNL1        0.0673
     22 CL         -0.1862    0.1871   29.0843 Cl      1  UNL1       -0.0819
     23 C           4.2540   -5.0307   19.0623 C.3     1  UNL1        0.0310
     24 C           4.1422   -3.5348   19.0611 C.ar    1  UNL1       -0.0218
     25 C           4.6026   -2.7493   17.8690 C.ar    1  UNL1       -0.0043
     26 C           4.4908   -1.2534   17.8679 C.ar    1  UNL1       -0.0003
     27 C           3.9185   -0.5432   19.0588 C.ar    1  UNL1       -0.0000
     28 C           3.4582   -1.3288   20.2508 C.ar    1  UNL1       -0.0003
     29 C           3.5700   -2.8246   20.2519 C.ar    1  UNL1       -0.0043
@<TRIPOS>BOND
     1    23    24    1
     2    24    25   ar
     3    25    26   ar
     4    26    27   ar
     5    27    28   ar
     6    28     1    1
     7     1     2   ar
     8     2     3   ar
     9     3     4   ar
    10     4     5   ar
    11     5     6   ar
    12     5     7    2
    13     7     8    1
    14     8     9    2
    15     8    10    1
    16    10    11    2
    17    11    12    1
    18    12    15    1
    19    15    16   ar
    20    16    17    1
    21    16    18   ar
    22    18    19   ar
    23    19    20   ar
    24    20    21   ar
    25    21    22    1
    26    12    13    2
    27    13    14    1
    28    28    29   ar
    29    29    24   ar
    30     6     1   ar
    31    14    10    1
    32    14     4    2
    33    21    15   ar
@<TRIPOS>MOLECULE
*****
 29 33 0 0 0
SMALL
GASTEIGER

@<TRIPOS>ATOM
      1 C           3.0839   -0.9418   21.4482 C.ar    1  UNL1        0.0013
      2 C           2.1113   -1.0491   20.3113 C.ar    1  UNL1        0.0002
      3 C           0.9482   -0.1057   20.2279 C.ar    1  UNL1        0.0051
      4 C           0.7576    0.9450   21.2813 C.ar    1  UNL1        0.0623
      5 C           1.7302    1.0523   22.4181 C.ar    1  UNL1        0.0775
      6 C           2.8933    0.1089   22.5016 C.ar    1  UNL1        0.0167
      7 N           1.5396    2.1030   23.4716 N.am    1  UNL1       -0.1720
      8 C           0.3764    3.0464   23.3881 C.2     1  UNL1        0.3160
      9 O           0.1858    4.0971   24.4415 O.2     1  UNL1       -0.2638
     10 C          -0.5963    2.9391   22.2512 C.2     1  UNL1        0.2907
     11 N          -1.8279    3.7229   21.9066 N.2     1  UNL1       -0.0255
     12 C          -2.3985    3.1566   20.6403 C.2     1  UNL1        0.3787
     13 N          -1.5195    2.0228   20.2022 N.2     1  UNL1       -0.0302
     14 C          -0.4057    1.8884   21.1978 C.2     1  UNL1        0.2419
     15 C          -3.6316    3.6393   19.9357 C.ar    1  UNL1        0.1263
     16 C          -4.9825    3.4090   20.5455 C.ar    1  UNL1        0.1484
     17 F          -5.1004    2.6960   21.8600 F       1  UNL1       -0.2039
     18 C          -6.2156    3.8917   19.8410 C.ar    1  UNL1        0.0300
     19 C          -6.0978    4.6047   18.5266 C.ar    1  UNL1        0.0032
     20 C          -4.7469    4.8350   17.9167 C.ar    1  UNL1        0.0118
     21 C          -3.5138    4.3523   18.6213 C.ar    1  UNL1        0.0673
     22 CL         -2.1628    4.5826   18.0114 Cl      1  UNL1       -0.0819
     23 C           7.5731   -2.7306   19.5384 C.3     1  UNL1        0.0310
     24 C           6.4918   -2.7796   20.5768 C.ar    1  UNL1       -0.0218
     25 C           6.5736   -3.7720   21.6986 C.ar    1  UNL1       -0.0043
     26 C           5.4922   -3.8210   22.7370 C.ar    1  UNL1       -0.0003
     27 C           4.3290   -2.8776   22.6535 C.ar    1  UNL1       -0.0000
     28 C           4.2472   -1.8852   21.5317 C.ar    1  UNL1       -0.0003
     29 C           5.3286   -1.8362   20.4933 C.ar    1  UNL1       -0.0043
@<TRIPOS>BOND
     1    23    24    1
     2    24    25   ar
     3    25    26   ar
     4    26    27   ar
     5    27    28   ar
     6    28     1    1
     7     1     2   ar
     8     2     3   ar
     9     3     4   ar
    10     4     5   ar
    11     5     6   ar
    12     5     7    2
    13     7     8    1
    14     8     9    2
    15     8    10    1
    16    10    11    2
    17    11    12    1
    18    12    15    1
    19    15    16   ar
    20    16    17    1
    21    16    18   ar
    22    18    19   ar
    23    19    20   ar
    24    20    21   ar
    25    21    22    1
    26    12    13    2
    27    13    14    1
    28    28    29   ar
    29    29    24   ar
    30     6     1   ar
    31    14    10    1
    32    14     4    2
    33    21    15   ar
@<TRIPOS>MOLECULE
*****
 29 33 0 0 0
SMALL
GASTEIGER

@<TRIPOS>ATOM
      1 C         -13.4736   -4.6391   18.5587 C.ar    1  UNL1        0.0013
      2 C         -12.9659   -3.2307   18.6511 C.ar    1  UNL1        0.0002
      3 C         -13.8845   -2.1298   19.0916 C.ar    1  UNL1        0.0051
      4 C         -15.3108   -2.4372   19.4397 C.ar    1  UNL1        0.0623
      5 C         -15.8185   -3.8457   19.3473 C.ar    1  UNL1        0.0775
      6 C         -14.8999   -4.9466   18.9068 C.ar    1  UNL1        0.0167
      7 N         -17.2448   -4.1531   19.6954 N.am    1  UNL1       -0.1720
      8 C         -18.1633   -3.0522   20.1359 C.2     1  UNL1        0.3160
      9 O         -19.5896   -3.3596   20.4841 O.2     1  UNL1       -0.2638
     10 C         -17.6556   -1.6437   20.2283 C.2     1  UNL1        0.2907
     11 N         -18.3220   -0.3607   20.6285 N.2     1  UNL1       -0.0255
     12 C         -17.3075    0.7395   20.5277 C.2     1  UNL1        0.3787
     13 N         -16.0142    0.1367   20.0652 N.2     1  UNL1       -0.0302
     14 C         -16.2294   -1.3362   19.8802 C.2     1  UNL1        0.2419
     15 C         -17.5447    2.1883   20.8354 C.ar    1  UNL1        0.1263
     16 C         -17.4121    2.6875   22.2436 C.ar    1  UNL1        0.1484
     17 F         -17.0423    1.7378   23.3443 F       1  UNL1       -0.2039
     18 C         -17.6494    4.1363   22.5513 C.ar    1  UNL1        0.0300
     19 C         -18.0192    5.0860   21.4507 C.ar    1  UNL1        0.0032
     20 C         -18.1518    4.5868   20.0424 C.ar    1  UNL1        0.0118
     21 C         -17.9146    3.1380   19.7348 C.ar    1  UNL1        0.0673
     22 CL        -18.0472    2.6388   18.3264 Cl      1  UNL1       -0.0819
     23 C          -9.1689   -7.4619   19.2670 C.3     1  UNL1        0.0310
     24 C         -10.4027   -7.1515   18.4724 C.ar    1  UNL1       -0.0218
     25 C         -10.7179   -7.9422   17.2372 C.ar    1  UNL1       -0.0043
     26 C         -11.9517   -7.6319   16.4426 C.ar    1  UNL1       -0.0003
     27 C         -12.8703   -6.5308   16.8831 C.ar    1  UNL1       -0.0000
     28 C         -12.5550   -5.7402   18.1182 C.ar    1  UNL1       -0.0003
     29 C         -11.3212   -6.0505   18.9128 C.ar    1  UNL1       -0.0043
@<TRIPOS>BOND
     1    23    24    1
     2    24    25   ar
     3    25    26   ar
     4    26    27   ar
     5    27    28   ar
     6    28     1    1
     7     1     2   ar
     8     2     3   ar
     9     3     4   ar
    10     4     5   ar
    11     5     6   ar
    12     5     7    2
    13     7     8    1
    14     8     9    2
    15     8    10    1
    16    10    11    2
    17    11    12    1
    18    12    15    1
    19    15    16   ar
    20    16    17    1
    21    16    18   ar
    22    18    19   ar
    23    19    20   ar
    24    20    21   ar
    25    21    22    1
    26    12    13    2
    27    13    14    1
    28    28    29   ar
    29    29    24   ar
    30     6     1   ar
    31    14    10    1
    32    14     4    2
    33    21    15   ar
