@<TRIPOS>MOLECULE
*****
 31 35 0 0 0
SMALL
GASTEIGER

@<TRIPOS>ATOM
      1 C           1.4263    2.0797   30.8009 C.ar    1  UNL1        0.0670
      2 C           2.3265    0.9965   31.3169 C.ar    1  UNL1        0.0191
      3 C           2.8303    1.0492   32.7288 C.ar    1  UNL1        0.0203
      4 C           2.4340    2.1852   33.6246 C.ar    1  UNL1        0.0795
      5 C           1.5338    3.2684   33.1087 C.ar    1  UNL1        0.0396
      6 C           1.3147    4.2558   34.2164 C.ar    1  UNL1        0.1216
      7 N           2.0794    3.7828   35.4170 N.ar    1  UNL1       -0.1677
      8 N           2.7712    2.5031   35.0513 N.ar    1  UNL1       -0.2494
      9 C           1.0300    3.2157   31.6968 C.ar    1  UNL1        0.0207
     10 O          -1.0272    0.4840   30.1425 O.2     1  UNL1       -0.2665
     11 C          -0.3043    1.2292   29.0598 C.ar    1  UNL1        0.2679
     12 C          -0.8082    1.1765   27.6480 C.ar    1  UNL1        0.0980
     13 C          -0.0853    1.9217   26.5653 C.ar    1  UNL1        0.1453
     14 C           1.1415    2.7196   26.8945 C.ar    1  UNL1        0.0561
     15 C           1.6454    2.7723   28.3064 C.ar    1  UNL1        0.0860
     16 N           0.9225    2.0271   29.3890 N.ar    1  UNL1       -0.2729
     17 O          -0.5892    1.8690   25.1535 O.3     1  UNL1       -0.4704
     18 C          -1.1860    3.0927   24.5240 C.3     1  UNL1        0.2320
     19 C          -2.6199    3.4472   24.7855 C.ar    1  UNL1        0.0212
     20 C          -3.6253    3.3730   23.6748 C.ar    1  UNL1       -0.0007
     21 C          -5.0592    3.7274   23.9362 C.ar    1  UNL1       -0.0002
     22 C          -5.4876    4.1562   25.3083 C.ar    1  UNL1       -0.0000
     23 C          -4.4822    4.2304   26.4190 C.ar    1  UNL1       -0.0002
     24 C          -3.0484    3.8759   26.1575 C.ar    1  UNL1       -0.0007
     25 C           3.6465    1.6849   35.9537 C.3     1  UNL1        0.1447
     26 C           3.7163    2.0003   37.4185 C.3     1  UNL1        0.0988
     27 N           2.5238    1.7583   38.2956 N.3     1  UNL1       -0.2710
     28 C           2.1305    0.4461   38.9067 C.3     1  UNL1        0.0722
     29 C           0.8788    0.6628   39.7042 C.3     1  UNL1        0.0188
     30 C           0.4984    2.1090   39.5861 C.3     1  UNL1        0.0188
     31 C           1.5151    2.7860   38.7155 C.3     1  UNL1        0.0722
@<TRIPOS>BOND
     1    10    11    2
     2    11    12   ar
     3    12    13   ar
     4    13    17    1
     5    17    18    1
     6    18    19    1
     7    19    20   ar
     8    20    21   ar
     9    21    22   ar
    10    22    23   ar
    11    23    24   ar
    12    13    14   ar
    13    14    15   ar
    14    15    16   ar
    15    16     1    1
    16     1     2   ar
    17     2     3   ar
    18     3     4   ar
    19     4     5   ar
    20     5     6   ar
    21     6     7   ar
    22     7     8   ar
    23     8    25    1
    24    25    26    1
    25    26    27    1
    26    27    28    1
    27    28    29    1
    28    29    30    1
    29    30    31    1
    30     5     9   ar
    31    16    11   ar
    32     9     1   ar
    33    24    19   ar
    34     8     4   ar
    35    31    27    1
@<TRIPOS>MOLECULE
*****
 31 35 0 0 0
SMALL
GASTEIGER

@<TRIPOS>ATOM
      1 C           3.5854   -0.9362   19.8053 C.ar    1  UNL1        0.0670
      2 C           3.6032   -0.1726   18.5144 C.ar    1  UNL1        0.0191
      3 C           2.5454    0.8536   18.2354 C.ar    1  UNL1        0.0203
      4 C           1.4697    1.1161   19.2473 C.ar    1  UNL1        0.0795
      5 C           1.4518    0.3524   20.5382 C.ar    1  UNL1        0.0396
      6 C           0.2748    0.8241   21.3395 C.ar    1  UNL1        0.1216
      7 N          -0.4348    1.8792   20.5439 N.ar    1  UNL1       -0.1677
      8 N           0.3036    2.0597   19.2508 N.ar    1  UNL1       -0.2494
      9 C           2.5097   -0.6737   20.8172 C.ar    1  UNL1        0.0207
     10 O           3.1471   -3.7962   19.0123 O.2     1  UNL1       -0.2665
     11 C           4.4242   -3.3924   19.6879 C.ar    1  UNL1        0.2679
     12 C           5.4820   -4.4186   19.9669 C.ar    1  UNL1        0.0980
     13 C           6.7590   -4.0149   20.6424 C.ar    1  UNL1        0.1453
     14 C           6.9781   -2.5849   21.0389 C.ar    1  UNL1        0.0561
     15 C           5.9202   -1.5587   20.7599 C.ar    1  UNL1        0.0860
     16 N           4.6433   -1.9625   20.0843 N.ar    1  UNL1       -0.2729
     17 O           7.8168   -5.0411   20.9214 O.3     1  UNL1       -0.4704
     18 C           8.6740   -4.9207   22.1465 C.3     1  UNL1        0.2320
     19 C           8.2542   -5.5856   23.4239 C.ar    1  UNL1        0.0212
     20 C           7.4968   -4.8091   24.4599 C.ar    1  UNL1       -0.0007
     21 C           7.0771   -5.4741   25.7373 C.ar    1  UNL1       -0.0002
     22 C           7.4148   -6.9155   25.9786 C.ar    1  UNL1       -0.0000
     23 C           8.1721   -7.6920   24.9425 C.ar    1  UNL1       -0.0002
     24 C           8.5919   -7.0270   23.6652 C.ar    1  UNL1       -0.0007
     25 C          -0.0601    3.0159   18.1538 C.3     1  UNL1        0.1447
     26 C          -0.9646    4.1776   18.4407 C.3     1  UNL1        0.0988
     27 N          -2.4531    3.9984   18.3946 N.3     1  UNL1       -0.2710
     28 C          -3.3011    3.9806   17.1574 C.3     1  UNL1        0.0722
     29 C          -4.7271    3.7768   17.5758 C.3     1  UNL1        0.0188
     30 C          -4.7604    3.6686   19.0714 C.3     1  UNL1        0.0188
     31 C          -3.3550    3.8056   19.5775 C.3     1  UNL1        0.0722
@<TRIPOS>BOND
     1    10    11    2
     2    11    12   ar
     3    12    13   ar
     4    13    17    1
     5    17    18    1
     6    18    19    1
     7    19    20   ar
     8    20    21   ar
     9    21    22   ar
    10    22    23   ar
    11    23    24   ar
    12    13    14   ar
    13    14    15   ar
    14    15    16   ar
    15    16     1    1
    16     1     2   ar
    17     2     3   ar
    18     3     4   ar
    19     4     5   ar
    20     5     6   ar
    21     6     7   ar
    22     7     8   ar
    23     8    25    1
    24    25    26    1
    25    26    27    1
    26    27    28    1
    27    28    29    1
    28    29    30    1
    29    30    31    1
    30     5     9   ar
    31    16    11   ar
    32     9     1   ar
    33    24    19   ar
    34     8     4   ar
    35    31    27    1
@<TRIPOS>MOLECULE
*****
 31 35 0 0 0
SMALL
GASTEIGER

@<TRIPOS>ATOM
      1 C           1.5403    1.8535   30.5529 C.ar    1  UNL1        0.0670
      2 C           2.4557    0.8537   31.1950 C.ar    1  UNL1        0.0191
      3 C           2.8609    1.0209   32.6295 C.ar    1  UNL1        0.0203
      4 C           2.3508    2.1879   33.4219 C.ar    1  UNL1        0.0795
      5 C           1.4354    3.1877   32.7798 C.ar    1  UNL1        0.0396
      6 C           1.0949    4.2292   33.8041 C.ar    1  UNL1        0.1216
      7 N           1.7999    3.8731   35.0793 N.ar    1  UNL1       -0.1677
      8 N           2.5761    2.6115   34.8432 N.ar    1  UNL1       -0.2494
      9 C           1.0302    3.0206   31.3453 C.ar    1  UNL1        0.0207
     10 O          -1.0388    0.4802   29.8731 O.2     1  UNL1       -0.2665
     11 C          -0.1545    0.9997   28.7785 C.ar    1  UNL1        0.2679
     12 C          -0.5598    0.8326   27.3440 C.ar    1  UNL1        0.0980
     13 C           0.3245    1.3521   26.2493 C.ar    1  UNL1        0.1453
     14 C           1.6140    2.0388   26.5892 C.ar    1  UNL1        0.0561
     15 C           2.0193    2.2059   28.0238 C.ar    1  UNL1        0.0860
     16 N           1.1350    1.6864   29.1184 N.ar    1  UNL1       -0.2729
     17 O          -0.0808    1.1849   24.8149 O.3     1  UNL1       -0.4704
     18 C           0.7963    1.7175   23.7208 C.3     1  UNL1        0.2320
     19 C           1.2549    0.8096   22.6182 C.ar    1  UNL1        0.0212
     20 C           2.4772   -0.0393   22.8053 C.ar    1  UNL1       -0.0007
     21 C           2.9358   -0.9471   21.7028 C.ar    1  UNL1       -0.0002
     22 C           2.1720   -1.0059   20.4132 C.ar    1  UNL1       -0.0000
     23 C           0.9496   -0.1570   20.2261 C.ar    1  UNL1       -0.0002
     24 C           0.4911    0.7508   21.3286 C.ar    1  UNL1       -0.0007
     25 C           3.4280    1.8986   35.8511 C.3     1  UNL1        0.1447
     26 C           3.4520    2.3649   37.2766 C.3     1  UNL1        0.0988
     27 N           2.3711    1.9365   38.2242 N.3     1  UNL1       -0.2710
     28 C           2.2158    0.5712   38.8256 C.3     1  UNL1        0.0722
     29 C           1.0043    0.5893   39.7098 C.3     1  UNL1        0.0188
     30 C           0.4108    1.9657   39.6550 C.3     1  UNL1        0.0188
     31 C           1.2556    2.7984   38.7368 C.3     1  UNL1        0.0722
@<TRIPOS>BOND
     1    10    11    2
     2    11    12   ar
     3    12    13   ar
     4    13    17    1
     5    17    18    1
     6    18    19    1
     7    19    20   ar
     8    20    21   ar
     9    21    22   ar
    10    22    23   ar
    11    23    24   ar
    12    13    14   ar
    13    14    15   ar
    14    15    16   ar
    15    16     1    1
    16     1     2   ar
    17     2     3   ar
    18     3     4   ar
    19     4     5   ar
    20     5     6   ar
    21     6     7   ar
    22     7     8   ar
    23     8    25    1
    24    25    26    1
    25    26    27    1
    26    27    28    1
    27    28    29    1
    28    29    30    1
    29    30    31    1
    30     5     9   ar
    31    16    11   ar
    32     9     1   ar
    33    24    19   ar
    34     8     4   ar
    35    31    27    1
@<TRIPOS>MOLECULE
*****
 31 35 0 0 0
SMALL
GASTEIGER

@<TRIPOS>ATOM
      1 C           7.8174   -4.3171   22.3830 C.ar    1  UNL1        0.0670
      2 C           7.4443   -3.6560   23.6766 C.ar    1  UNL1        0.0191
      3 C           7.7201   -4.3473   24.9790 C.ar    1  UNL1        0.0203
      4 C           8.3689   -5.6997   24.9876 C.ar    1  UNL1        0.0795
      5 C           8.7420   -6.3608   23.6939 C.ar    1  UNL1        0.0396
      6 C           9.3650   -7.6872   24.0140 C.ar    1  UNL1        0.1216
      7 N           9.3770   -7.8459   25.5055 N.ar    1  UNL1       -0.1677
      8 N           8.7613   -6.6175   26.1073 N.ar    1  UNL1       -0.2494
      9 C           8.4663   -5.6695   22.3916 C.ar    1  UNL1        0.0207
     10 O           5.0634   -4.3973   21.1960 O.2     1  UNL1       -0.2665
     11 C           6.1647   -3.6660   20.4870 C.ar    1  UNL1        0.2679
     12 C           5.8889   -2.9748   19.1847 C.ar    1  UNL1        0.0980
     13 C           6.9901   -2.2434   18.4758 C.ar    1  UNL1        0.1453
     14 C           8.3671   -2.2033   19.0693 C.ar    1  UNL1        0.0561
     15 C           8.6429   -2.8946   20.3717 C.ar    1  UNL1        0.0860
     16 N           7.5417   -3.6259   21.0805 N.ar    1  UNL1       -0.2729
     17 O           6.7143   -1.5522   17.1735 O.3     1  UNL1       -0.4704
     18 C           6.4681   -0.0728   17.1470 C.3     1  UNL1        0.2320
     19 C           5.1521    0.4769   17.6119 C.ar    1  UNL1        0.0212
     20 C           5.0770    1.8630   18.1802 C.ar    1  UNL1       -0.0007
     21 C           3.7611    2.4127   18.6450 C.ar    1  UNL1       -0.0002
     22 C           2.5203    1.5763   18.5416 C.ar    1  UNL1       -0.0000
     23 C           2.5954    0.1901   17.9734 C.ar    1  UNL1       -0.0002
     24 C           3.9113   -0.3595   17.5085 C.ar    1  UNL1       -0.0007
     25 C           8.5715   -6.3533   27.5716 C.3     1  UNL1        0.1447
     26 C           7.1948   -6.1182   28.1189 C.3     1  UNL1        0.0988
     27 N           7.0089   -5.2723   29.3435 N.3     1  UNL1       -0.2710
     28 C           6.6920   -3.8063   29.3627 C.3     1  UNL1        0.0722
     29 C           6.5946   -3.3718   30.7951 C.3     1  UNL1        0.0188
     30 C           6.8513   -4.5693   31.6612 C.3     1  UNL1        0.0188
     31 C           7.1074   -5.7438   30.7640 C.3     1  UNL1        0.0722
@<TRIPOS>BOND
     1    10    11    2
     2    11    12   ar
     3    12    13   ar
     4    13    17    1
     5    17    18    1
     6    18    19    1
     7    19    20   ar
     8    20    21   ar
     9    21    22   ar
    10    22    23   ar
    11    23    24   ar
    12    13    14   ar
    13    14    15   ar
    14    15    16   ar
    15    16     1    1
    16     1     2   ar
    17     2     3   ar
    18     3     4   ar
    19     4     5   ar
    20     5     6   ar
    21     6     7   ar
    22     7     8   ar
    23     8    25    1
    24    25    26    1
    25    26    27    1
    26    27    28    1
    27    28    29    1
    28    29    30    1
    29    30    31    1
    30     5     9   ar
    31    16    11   ar
    32     9     1   ar
    33    24    19   ar
    34     8     4   ar
    35    31    27    1
@<TRIPOS>MOLECULE
*****
 31 35 0 0 0
SMALL
GASTEIGER

@<TRIPOS>ATOM
      1 C           2.0118    1.3023   30.4373 C.ar    1  UNL1        0.0670
      2 C           1.7523    2.4739   31.3373 C.ar    1  UNL1        0.0191
      3 C           2.2760    2.4702   32.7429 C.ar    1  UNL1        0.0203
      4 C           3.0590    1.2950   33.2485 C.ar    1  UNL1        0.0795
      5 C           3.3185    0.1234   32.3485 C.ar    1  UNL1        0.0396
      6 C           4.1161   -0.8859   33.1198 C.ar    1  UNL1        0.1216
      7 N           4.3497   -0.3382   34.4966 N.ar    1  UNL1       -0.1677
      8 N           3.6963    1.0097   34.5761 N.ar    1  UNL1       -0.2494
      9 C           2.7949    0.1271   30.9429 C.ar    1  UNL1        0.0207
     10 O          -0.8436    0.5563   29.8983 O.2     1  UNL1       -0.2665
     11 C           0.0605    0.9329   28.7621 C.ar    1  UNL1        0.2679
     12 C          -0.4631    0.9365   27.3565 C.ar    1  UNL1        0.0980
     13 C           0.4409    1.3132   26.2203 C.ar    1  UNL1        0.1453
     14 C           1.8686    1.6862   26.4898 C.ar    1  UNL1        0.0561
     15 C           2.3922    1.6825   27.8955 C.ar    1  UNL1        0.0860
     16 N           1.4882    1.3059   29.0316 N.ar    1  UNL1       -0.2729
     17 O          -0.0827    1.3168   24.8147 O.3     1  UNL1       -0.4704
     18 C           0.7808    1.8151   23.6940 C.3     1  UNL1        0.2320
     19 C           1.2328    0.8717   22.6189 C.ar    1  UNL1        0.0212
     20 C           0.4785    0.7925   21.3248 C.ar    1  UNL1       -0.0007
     21 C           0.9305   -0.1508   20.2498 C.ar    1  UNL1       -0.0002
     22 C           2.1368   -1.0151   20.4689 C.ar    1  UNL1       -0.0000
     23 C           2.8910   -0.9359   21.7630 C.ar    1  UNL1       -0.0002
     24 C           2.4390    0.0075   22.8380 C.ar    1  UNL1       -0.0007
     25 C           3.6827    1.9136   35.7731 C.3     1  UNL1        0.1447
     26 C           3.7021    1.3293   37.1544 C.3     1  UNL1        0.0988
     27 N           2.5215    1.5100   38.0619 N.3     1  UNL1       -0.2710
     28 C           1.7610    2.7850   38.2760 C.3     1  UNL1        0.0722
     29 C           0.6636    2.5103   39.2610 C.3     1  UNL1        0.0188
     30 C           0.7459    1.0656   39.6557 C.3     1  UNL1        0.0188
     31 C           1.8941    0.4473   38.9146 C.3     1  UNL1        0.0722
@<TRIPOS>BOND
     1    10    11    2
     2    11    12   ar
     3    12    13   ar
     4    13    17    1
     5    17    18    1
     6    18    19    1
     7    19    20   ar
     8    20    21   ar
     9    21    22   ar
    10    22    23   ar
    11    23    24   ar
    12    13    14   ar
    13    14    15   ar
    14    15    16   ar
    15    16     1    1
    16     1     2   ar
    17     2     3   ar
    18     3     4   ar
    19     4     5   ar
    20     5     6   ar
    21     6     7   ar
    22     7     8   ar
    23     8    25    1
    24    25    26    1
    25    26    27    1
    26    27    28    1
    27    28    29    1
    28    29    30    1
    29    30    31    1
    30     5     9   ar
    31    16    11   ar
    32     9     1   ar
    33    24    19   ar
    34     8     4   ar
    35    31    27    1
@<TRIPOS>MOLECULE
*****
 31 35 0 0 0
SMALL
GASTEIGER

@<TRIPOS>ATOM
      1 C           0.6605    2.1642   22.4376 C.ar    1  UNL1        0.0670
      2 C          -0.2632    3.3420   22.3397 C.ar    1  UNL1        0.0191
      3 C          -1.0590    3.7723   23.5361 C.ar    1  UNL1        0.0203
      4 C          -0.9312    3.0249   24.8303 C.ar    1  UNL1        0.0795
      5 C          -0.0075    1.8471   24.9282 C.ar    1  UNL1        0.0396
      6 C          -0.0890    1.3091   26.3260 C.ar    1  UNL1        0.1216
      7 N          -1.0630    2.1544   27.0920 N.ar    1  UNL1       -0.1677
      8 N          -1.5836    3.2148   26.1677 N.ar    1  UNL1       -0.2494
      9 C           0.7883    1.4168   23.7318 C.ar    1  UNL1        0.0207
     10 O          -0.4232    0.0616   20.5924 O.2     1  UNL1       -0.2665
     11 C           0.9146    0.6825   20.3186 C.ar    1  UNL1        0.2679
     12 C           1.7105    0.2521   19.1222 C.ar    1  UNL1        0.0980
     13 C           3.0483    0.8730   18.8484 C.ar    1  UNL1        0.1453
     14 C           3.5901    1.9243   19.7710 C.ar    1  UNL1        0.0561
     15 C           2.7942    2.3547   20.9674 C.ar    1  UNL1        0.0860
     16 N           1.4565    1.7338   21.2412 N.ar    1  UNL1       -0.2729
     17 O           3.8442    0.4426   17.6521 O.3     1  UNL1       -0.4704
     18 C           3.9560   -1.0136   17.3101 C.3     1  UNL1        0.2320
     19 C           4.5681   -1.9695   18.2907 C.ar    1  UNL1        0.0212
     20 C           3.6973   -2.9292   19.0461 C.ar    1  UNL1       -0.0007
     21 C           4.3094   -3.8850   20.0267 C.ar    1  UNL1       -0.0002
     22 C           5.7924   -3.8811   20.2520 C.ar    1  UNL1       -0.0000
     23 C           6.6632   -2.9215   19.4966 C.ar    1  UNL1       -0.0002
     24 C           6.0511   -1.9656   18.5160 C.ar    1  UNL1       -0.0007
     25 C          -2.5813    4.2784   26.5189 C.3     1  UNL1        0.1447
     26 C          -4.0429    3.9462   26.5759 C.3     1  UNL1        0.0988
     27 N          -4.8732    3.9986   25.3278 N.3     1  UNL1       -0.2710
     28 C          -6.1127    4.8192   25.1272 C.3     1  UNL1        0.0722
     29 C          -6.6153    4.5673   23.7366 C.3     1  UNL1        0.0188
     30 C          -5.6865    3.5911   23.0777 C.3     1  UNL1        0.0188
     31 C          -4.6097    3.2396   24.0611 C.3     1  UNL1        0.0722
@<TRIPOS>BOND
     1    10    11    2
     2    11    12   ar
     3    12    13   ar
     4    13    17    1
     5    17    18    1
     6    18    19    1
     7    19    20   ar
     8    20    21   ar
     9    21    22   ar
    10    22    23   ar
    11    23    24   ar
    12    13    14   ar
    13    14    15   ar
    14    15    16   ar
    15    16     1    1
    16     1     2   ar
    17     2     3   ar
    18     3     4   ar
    19     4     5   ar
    20     5     6   ar
    21     6     7   ar
    22     7     8   ar
    23     8    25    1
    24    25    26    1
    25    26    27    1
    26    27    28    1
    27    28    29    1
    28    29    30    1
    29    30    31    1
    30     5     9   ar
    31    16    11   ar
    32     9     1   ar
    33    24    19   ar
    34     8     4   ar
    35    31    27    1
@<TRIPOS>MOLECULE
*****
 31 35 0 0 0
SMALL
GASTEIGER

@<TRIPOS>ATOM
      1 C           5.2024   -0.5001   32.9257 C.ar    1  UNL1        0.0670
      2 C           6.0755   -0.0198   34.0467 C.ar    1  UNL1        0.0191
      3 C           5.5837    1.0517   34.9741 C.ar    1  UNL1        0.0203
      4 C           4.2187    1.6428   34.7804 C.ar    1  UNL1        0.0795
      5 C           3.3456    1.1624   33.6593 C.ar    1  UNL1        0.0396
      6 C           2.0562    1.9268   33.7157 C.ar    1  UNL1        0.1216
      7 N           2.1325    2.8797   34.8717 N.ar    1  UNL1       -0.1677
      8 N           3.4689    2.7041   35.5297 N.ar    1  UNL1       -0.2494
      9 C           3.8374    0.0909   32.7319 C.ar    1  UNL1        0.0207
     10 O           5.4857    0.0679   29.9936 O.2     1  UNL1       -0.2665
     11 C           5.8359   -1.2876   30.5322 C.ar    1  UNL1        0.2679
     12 C           6.3277   -2.3590   29.6048 C.ar    1  UNL1        0.0980
     13 C           6.6779   -3.7145   30.1434 C.ar    1  UNL1        0.1453
     14 C           6.5362   -3.9986   31.6094 C.ar    1  UNL1        0.0561
     15 C           6.0444   -2.9271   32.5368 C.ar    1  UNL1        0.0860
     16 N           5.6942   -1.5716   31.9982 N.ar    1  UNL1       -0.2729
     17 O           7.1697   -4.7859   29.2159 O.3     1  UNL1       -0.4704
     18 C           6.2760   -5.3053   28.1290 C.3     1  UNL1        0.2320
     19 C           6.8677   -5.7863   26.8372 C.ar    1  UNL1        0.0212
     20 C           7.3316   -7.2068   26.7077 C.ar    1  UNL1       -0.0007
     21 C           7.9232   -7.6877   25.4160 C.ar    1  UNL1       -0.0002
     22 C           8.0510   -6.7481   24.2538 C.ar    1  UNL1       -0.0000
     23 C           7.5871   -5.3275   24.3833 C.ar    1  UNL1       -0.0002
     24 C           6.9954   -4.8466   25.6750 C.ar    1  UNL1       -0.0007
     25 C           3.9681    3.4576   36.7269 C.3     1  UNL1        0.1447
     26 C           4.0014    2.7928   38.0711 C.3     1  UNL1        0.0988
     27 N           2.7864    2.0792   38.5853 N.3     1  UNL1       -0.2710
     28 C           1.5480    2.7270   39.1299 C.3     1  UNL1        0.0722
     29 C           0.5927    1.6407   39.5264 C.3     1  UNL1        0.0188
     30 C           1.2407    0.3215   39.2268 C.3     1  UNL1        0.0188
     31 C           2.5965    0.5925   38.6452 C.3     1  UNL1        0.0722
@<TRIPOS>BOND
     1    10    11    2
     2    11    12   ar
     3    12    13   ar
     4    13    17    1
     5    17    18    1
     6    18    19    1
     7    19    20   ar
     8    20    21   ar
     9    21    22   ar
    10    22    23   ar
    11    23    24   ar
    12    13    14   ar
    13    14    15   ar
    14    15    16   ar
    15    16     1    1
    16     1     2   ar
    17     2     3   ar
    18     3     4   ar
    19     4     5   ar
    20     5     6   ar
    21     6     7   ar
    22     7     8   ar
    23     8    25    1
    24    25    26    1
    25    26    27    1
    26    27    28    1
    27    28    29    1
    28    29    30    1
    29    30    31    1
    30     5     9   ar
    31    16    11   ar
    32     9     1   ar
    33    24    19   ar
    34     8     4   ar
    35    31    27    1
@<TRIPOS>MOLECULE
*****
 31 35 0 0 0
SMALL
GASTEIGER

@<TRIPOS>ATOM
      1 C         -15.3336   -1.5322   19.2569 C.ar    1  UNL1        0.0670
      2 C         -16.4595   -1.0844   20.1411 C.ar    1  UNL1        0.0191
      3 C         -16.7530    0.3780   20.2990 C.ar    1  UNL1        0.0203
      4 C         -15.9207    1.3928   19.5727 C.ar    1  UNL1        0.0795
      5 C         -14.7948    0.9450   18.6885 C.ar    1  UNL1        0.0396
      6 C         -14.1510    2.1669   18.1032 C.ar    1  UNL1        0.1216
      7 N         -14.8790    3.3698   18.6257 N.ar    1  UNL1       -0.1677
      8 N         -15.9728    2.8914   19.5339 N.ar    1  UNL1       -0.2494
      9 C         -14.5013   -0.5175   18.5306 C.ar    1  UNL1        0.0207
     10 O         -13.7548   -2.9805   21.3568 O.2     1  UNL1       -0.2665
     11 C         -14.2507   -3.7189   20.1489 C.ar    1  UNL1        0.2679
     12 C         -13.9571   -5.1813   19.9910 C.ar    1  UNL1        0.0980
     13 C         -14.4529   -5.9197   18.7831 C.ar    1  UNL1        0.1453
     14 C         -15.2423   -5.1956   17.7331 C.ar    1  UNL1        0.0561
     15 C         -15.5359   -3.7330   17.8910 C.ar    1  UNL1        0.0860
     16 N         -15.0401   -2.9947   19.0989 N.ar    1  UNL1       -0.2729
     17 O         -14.1594   -7.3822   18.6252 O.3     1  UNL1       -0.4704
     18 C         -12.9606   -7.8260   17.8404 C.3     1  UNL1        0.2320
     19 C         -11.7904   -6.9027   17.6722 C.ar    1  UNL1        0.0212
     20 C         -10.7851   -6.7572   18.7759 C.ar    1  UNL1       -0.0007
     21 C          -9.6150   -5.8340   18.6077 C.ar    1  UNL1       -0.0002
     22 C          -9.4501   -5.0562   17.3358 C.ar    1  UNL1       -0.0000
     23 C         -10.4554   -5.2016   16.2320 C.ar    1  UNL1       -0.0002
     24 C         -11.6255   -6.1249   16.4003 C.ar    1  UNL1       -0.0007
     25 C         -16.9474    3.7592   20.2734 C.3     1  UNL1        0.1447
     26 C         -17.0660    3.6514   21.7648 C.3     1  UNL1        0.0988
     27 N         -15.9740    4.1838   22.6445 N.3     1  UNL1       -0.2710
     28 C         -15.9894    4.2221   24.1439 C.3     1  UNL1        0.0722
     29 C         -14.6997    4.8334   24.6053 C.3     1  UNL1        0.0188
     30 C         -13.8872    5.1731   23.3911 C.3     1  UNL1        0.0188
     31 C         -14.6748    4.7716   22.1792 C.3     1  UNL1        0.0722
@<TRIPOS>BOND
     1    10    11    2
     2    11    12   ar
     3    12    13   ar
     4    13    17    1
     5    17    18    1
     6    18    19    1
     7    19    20   ar
     8    20    21   ar
     9    21    22   ar
    10    22    23   ar
    11    23    24   ar
    12    13    14   ar
    13    14    15   ar
    14    15    16   ar
    15    16     1    1
    16     1     2   ar
    17     2     3   ar
    18     3     4   ar
    19     4     5   ar
    20     5     6   ar
    21     6     7   ar
    22     7     8   ar
    23     8    25    1
    24    25    26    1
    25    26    27    1
    26    27    28    1
    27    28    29    1
    28    29    30    1
    29    30    31    1
    30     5     9   ar
    31    16    11   ar
    32     9     1   ar
    33    24    19   ar
    34     8     4   ar
    35    31    27    1
@<TRIPOS>MOLECULE
*****
 31 35 0 0 0
SMALL
GASTEIGER

@<TRIPOS>ATOM
      1 C           3.3208   -0.5422   20.1821 C.ar    1  UNL1        0.0670
      2 C           4.6339   -0.1550   20.7950 C.ar    1  UNL1        0.0191
      3 C           5.7293   -1.1713   20.9258 C.ar    1  UNL1        0.0203
      4 C           5.5115   -2.5749   20.4436 C.ar    1  UNL1        0.0795
      5 C           4.1984   -2.9622   19.8307 C.ar    1  UNL1        0.0396
      6 C           4.2745   -4.4106   19.4484 C.ar    1  UNL1        0.1216
      7 N           5.6347   -4.9186   19.8249 N.ar    1  UNL1       -0.1677
      8 N           6.3993   -3.7841   20.4400 N.ar    1  UNL1       -0.2494
      9 C           3.1030   -1.9458   19.7000 C.ar    1  UNL1        0.0207
     10 O           3.4064    1.4788   17.9667 O.2     1  UNL1       -0.2665
     11 C           2.2681    1.4847   18.9437 C.ar    1  UNL1        0.2679
     12 C           1.1728    2.5010   18.8129 C.ar    1  UNL1        0.0980
     13 C           0.0345    2.5069   19.7899 C.ar    1  UNL1        0.1453
     14 C          -0.0083    1.4964   20.8976 C.ar    1  UNL1        0.0561
     15 C           1.0871    0.4800   21.0283 C.ar    1  UNL1        0.0860
     16 N           2.2253    0.4742   20.0514 N.ar    1  UNL1       -0.2729
     17 O          -1.0609    3.5233   19.6591 O.3     1  UNL1       -0.4704
     18 C          -2.3222    3.3734   20.4569 C.3     1  UNL1        0.2320
     19 C          -3.6551    3.5625   19.7953 C.ar    1  UNL1        0.0212
     20 C          -3.7265    3.9080   18.3375 C.ar    1  UNL1       -0.0007
     21 C          -5.0594    4.0971   17.6760 C.ar    1  UNL1       -0.0002
     22 C          -6.3209    3.9407   18.4724 C.ar    1  UNL1       -0.0000
     23 C          -6.2495    3.5951   19.9302 C.ar    1  UNL1       -0.0002
     24 C          -4.9166    3.4060   20.5917 C.ar    1  UNL1       -0.0007
     25 C           7.8047   -3.8475   20.9603 C.3     1  UNL1        0.1447
     26 C           8.4559   -5.1771   21.2012 C.3     1  UNL1        0.0988
     27 N           8.3353   -5.8395   22.5415 N.3     1  UNL1       -0.2710
     28 C           7.6674   -5.2614   23.7538 C.3     1  UNL1        0.0722
     29 C           7.7807   -6.2610   24.8664 C.3     1  UNL1        0.0188
     30 C           8.5185   -7.4569   24.3418 C.3     1  UNL1        0.0188
     31 C           8.8613   -7.1964   22.9049 C.3     1  UNL1        0.0722
@<TRIPOS>BOND
     1    10    11    2
     2    11    12   ar
     3    12    13   ar
     4    13    17    1
     5    17    18    1
     6    18    19    1
     7    19    20   ar
     8    20    21   ar
     9    21    22   ar
    10    22    23   ar
    11    23    24   ar
    12    13    14   ar
    13    14    15   ar
    14    15    16   ar
    15    16     1    1
    16     1     2   ar
    17     2     3   ar
    18     3     4   ar
    19     4     5   ar
    20     5     6   ar
    21     6     7   ar
    22     7     8   ar
    23     8    25    1
    24    25    26    1
    25    26    27    1
    26    27    28    1
    27    28    29    1
    28    29    30    1
    29    30    31    1
    30     5     9   ar
    31    16    11   ar
    32     9     1   ar
    33    24    19   ar
    34     8     4   ar
    35    31    27    1
