@<TRIPOS>MOLECULE
*****
 19 20 0 0 0
SMALL
GASTEIGER

@<TRIPOS>ATOM
      1 C          -7.5223  -18.6848   22.1202 C.3     1  UNL1        0.0636
      2 S          -8.8394  -19.2591   22.5508 S.3     1  UNL1       -0.1127
      3 CL        -11.6821  -16.0443   19.6209 Cl      1  UNL1       -0.0822
      4 C         -11.5263  -16.8797   20.8570 C.ar    1  UNL1        0.0582
      5 C         -12.6361  -16.9432   21.8641 C.ar    1  UNL1        0.0123
      6 C         -12.4803  -17.7786   23.1001 C.ar    1  UNL1        0.0128
      7 C         -11.2148  -18.5506   23.3291 C.ar    1  UNL1        0.0634
      8 CL        -11.0590  -19.3860   24.5651 Cl      1  UNL1       -0.0817
      9 C         -10.1050  -18.4871   22.3219 C.ar    1  UNL1        0.0366
     10 C         -10.2608  -17.6517   21.0859 C.ar    1  UNL1        0.0184
     11 C          -6.4321  -19.5922   21.6320 C.3     1  UNL1        0.0293
     12 C          -5.5595  -19.1682   20.4880 C.3     1  UNL1        0.0731
     13 N          -4.1071  -18.8749   20.7212 N.3     1  UNL1       -0.2703
     14 C          -3.5951  -18.6855   22.1184 C.3     1  UNL1        0.0894
     15 C          -2.1427  -18.3922   22.3516 C.3     1  UNL1        0.0862
     16 N          -1.2023  -18.2881   21.1877 N.3     1  UNL1       -0.2951
     17 C          -1.7142  -18.4775   19.7906 C.3     1  UNL1        0.0862
     18 C          -3.1667  -18.7709   19.5573 C.3     1  UNL1        0.0894
     19 H          -0.4757  -18.9892   21.3326 H       1  UNL1        0.1233
@<TRIPOS>BOND
     1     3     4    1
     2     4     5   ar
     3     5     6   ar
     4     6     7   ar
     5     7     8    1
     6     7     9   ar
     7     9     2    1
     8     2     1    1
     9     1    11    1
    10    11    12    1
    11    12    13    1
    12    13    14    1
    13    14    15    1
    14    15    16    1
    15    16    17    1
    16    17    18    1
    17     9    10   ar
    18    10     4   ar
    19    18    13    1
    20    16    19    1
@<TRIPOS>MOLECULE
*****
 19 20 0 0 0
SMALL
GASTEIGER

@<TRIPOS>ATOM
      1 C          -8.0600  -18.8392   22.7422 C.3     1  UNL1        0.0636
      2 S          -9.2934  -19.2646   22.0021 S.3     1  UNL1       -0.1127
      3 CL        -11.9162  -15.6959   19.2844 Cl      1  UNL1       -0.0822
      4 C         -11.7654  -16.5385   20.5162 C.ar    1  UNL1        0.0582
      5 C         -12.7752  -16.4394   21.6209 C.ar    1  UNL1        0.0123
      6 C         -12.6245  -17.2820   22.8527 C.ar    1  UNL1        0.0128
      7 C         -11.4639  -18.2237   22.9798 C.ar    1  UNL1        0.0634
      8 CL        -11.3131  -19.0663   24.2116 Cl      1  UNL1       -0.0817
      9 C         -10.4541  -18.3228   21.8751 C.ar    1  UNL1        0.0366
     10 C         -10.6049  -17.4802   20.6433 C.ar    1  UNL1        0.0184
     11 C          -7.3860  -17.5449   22.3951 C.3     1  UNL1        0.0293
     12 C          -7.8836  -16.2585   22.9846 C.3     1  UNL1        0.0731
     13 N          -7.4880  -15.8697   24.3783 N.3     1  UNL1       -0.2703
     14 C          -8.5246  -15.8005   25.4604 C.3     1  UNL1        0.0894
     15 C          -8.1290  -15.4117   26.8541 C.3     1  UNL1        0.0862
     16 N          -6.6970  -15.0921   27.1657 N.3     1  UNL1       -0.2951
     17 C          -5.6605  -15.1612   26.0837 C.3     1  UNL1        0.0862
     18 C          -6.0560  -15.5500   24.6899 C.3     1  UNL1        0.0894
     19 H          -6.4031  -15.7398   27.8968 H       1  UNL1        0.1233
@<TRIPOS>BOND
     1     3     4    1
     2     4     5   ar
     3     5     6   ar
     4     6     7   ar
     5     7     8    1
     6     7     9   ar
     7     9     2    1
     8     2     1    1
     9     1    11    1
    10    11    12    1
    11    12    13    1
    12    13    14    1
    13    14    15    1
    14    15    16    1
    15    16    17    1
    16    17    18    1
    17     9    10   ar
    18    10     4   ar
    19    18    13    1
    20    16    19    1
@<TRIPOS>MOLECULE
*****
 19 20 0 0 0
SMALL
GASTEIGER

@<TRIPOS>ATOM
      1 C          -6.3711  -19.8886   21.9766 C.3     1  UNL1        0.0636
      2 S          -7.2053  -18.6475   21.8595 S.3     1  UNL1       -0.1127
      3 CL        -12.0990  -18.1669   23.5390 Cl      1  UNL1       -0.0822
      4 C         -11.1275  -18.5157   22.4507 C.ar    1  UNL1        0.0582
      5 C         -11.6311  -18.9731   21.1140 C.ar    1  UNL1        0.0123
      6 C         -10.6596  -19.3220   20.0257 C.ar    1  UNL1        0.0128
      7 C          -9.1843  -19.2134   20.2742 C.ar    1  UNL1        0.0634
      8 CL         -8.2127  -19.5623   19.1859 Cl      1  UNL1       -0.0817
      9 C          -8.6806  -18.7560   21.6110 C.ar    1  UNL1        0.0366
     10 C          -9.6522  -18.4072   22.6992 C.ar    1  UNL1        0.0184
     11 C          -5.0861  -20.0035   21.2113 C.3     1  UNL1        0.0293
     12 C          -3.8505  -19.3168   21.7129 C.3     1  UNL1        0.0731
     13 N          -2.8498  -18.7682   20.7394 N.3     1  UNL1       -0.2703
     14 C          -3.2296  -18.5774   19.3008 C.3     1  UNL1        0.0894
     15 C          -2.2290  -18.0288   18.3274 C.3     1  UNL1        0.0862
     16 N          -0.8485  -17.6710   18.7924 N.3     1  UNL1       -0.2951
     17 C          -0.4687  -17.8618   20.2309 C.3     1  UNL1        0.0862
     18 C          -1.4694  -18.4104   21.2044 C.3     1  UNL1        0.0894
     19 H          -0.7136  -16.6823   18.5808 H       1  UNL1        0.1233
@<TRIPOS>BOND
     1     3     4    1
     2     4     5   ar
     3     5     6   ar
     4     6     7   ar
     5     7     8    1
     6     7     9   ar
     7     9     2    1
     8     2     1    1
     9     1    11    1
    10    11    12    1
    11    12    13    1
    12    13    14    1
    13    14    15    1
    14    15    16    1
    15    16    17    1
    16    17    18    1
    17     9    10   ar
    18    10     4   ar
    19    18    13    1
    20    16    19    1
@<TRIPOS>MOLECULE
*****
 19 20 0 0 0
SMALL
GASTEIGER

@<TRIPOS>ATOM
      1 C          -6.8146  -16.4822   23.7679 C.3     1  UNL1        0.0636
      2 S          -7.4620  -17.1956   22.6182 S.3     1  UNL1       -0.1127
      3 CL        -12.4935  -15.8982   22.6495 Cl      1  UNL1       -0.0822
      4 C         -11.4216  -16.9454   22.7156 C.ar    1  UNL1        0.0582
      5 C         -11.7934  -18.3910   22.8635 C.ar    1  UNL1        0.0123
      6 C         -10.7214  -19.4381   22.9297 C.ar    1  UNL1        0.0128
      7 C          -9.2777  -19.0397   22.8479 C.ar    1  UNL1        0.0634
      8 CL         -8.2057  -20.0869   22.9141 Cl      1  UNL1       -0.0817
      9 C          -8.9058  -17.5941   22.7000 C.ar    1  UNL1        0.0366
     10 C          -9.9778  -16.5469   22.6338 C.ar    1  UNL1        0.0184
     11 C          -5.3604  -16.1198   23.7027 C.3     1  UNL1        0.0293
     12 C          -4.3185  -17.1987   23.6892 C.3     1  UNL1        0.0731
     13 N          -3.4989  -17.4344   22.4553 N.3     1  UNL1       -0.2703
     14 C          -3.7772  -18.6248   21.5861 C.3     1  UNL1        0.0894
     15 C          -2.9575  -18.8605   20.3522 C.3     1  UNL1        0.0862
     16 N          -1.8597  -17.9058   19.9873 N.3     1  UNL1       -0.2951
     17 C          -1.5814  -16.7154   20.8565 C.3     1  UNL1        0.0862
     18 C          -2.4010  -16.4796   22.0905 C.3     1  UNL1        0.0894
     19 H          -2.0782  -17.5471   19.0578 H       1  UNL1        0.1233
@<TRIPOS>BOND
     1     3     4    1
     2     4     5   ar
     3     5     6   ar
     4     6     7   ar
     5     7     8    1
     6     7     9   ar
     7     9     2    1
     8     2     1    1
     9     1    11    1
    10    11    12    1
    11    12    13    1
    12    13    14    1
    13    14    15    1
    14    15    16    1
    15    16    17    1
    16    17    18    1
    17     9    10   ar
    18    10     4   ar
    19    18    13    1
    20    16    19    1
@<TRIPOS>MOLECULE
*****
 19 20 0 0 0
SMALL
GASTEIGER

@<TRIPOS>ATOM
      1 C          -7.1191  -19.9273   21.7840 C.3     1  UNL1        0.0636
      2 S          -7.7952  -18.8055   21.0531 S.3     1  UNL1       -0.1127
      3 CL        -12.8861  -17.8479   21.4611 Cl      1  UNL1       -0.0822
      4 C         -11.4760  -17.5881   21.9017 C.ar    1  UNL1        0.0582
      5 C         -11.2012  -16.5897   22.9868 C.ar    1  UNL1        0.0123
      6 C          -9.7911  -16.3298   23.4274 C.ar    1  UNL1        0.0128
      7 C          -8.6558  -17.0684   22.7829 C.ar    1  UNL1        0.0634
      8 CL         -7.2457  -16.8086   23.2235 Cl      1  UNL1       -0.0817
      9 C          -8.9306  -18.0668   21.6977 C.ar    1  UNL1        0.0366
     10 C         -10.3407  -18.3267   21.2571 C.ar    1  UNL1        0.0184
     11 C          -5.6217  -19.9837   21.8514 C.3     1  UNL1        0.0293
     12 C          -4.8002  -19.5116   20.6886 C.3     1  UNL1        0.0731
     13 N          -3.6825  -18.5355   20.9071 N.3     1  UNL1       -0.2703
     14 C          -2.7154  -18.2422   19.7985 C.3     1  UNL1        0.0894
     15 C          -1.5977  -17.2661   20.0170 C.3     1  UNL1        0.0862
     16 N          -1.4468  -16.5833   21.3440 N.3     1  UNL1       -0.2951
     17 C          -2.4138  -16.8766   22.4526 C.3     1  UNL1        0.0862
     18 C          -3.5317  -17.8527   22.2341 C.3     1  UNL1        0.0894
     19 H          -1.4979  -15.5802   21.1665 H       1  UNL1        0.1233
@<TRIPOS>BOND
     1     3     4    1
     2     4     5   ar
     3     5     6   ar
     4     6     7   ar
     5     7     8    1
     6     7     9   ar
     7     9     2    1
     8     2     1    1
     9     1    11    1
    10    11    12    1
    11    12    13    1
    12    13    14    1
    13    14    15    1
    14    15    16    1
    15    16    17    1
    16    17    18    1
    17     9    10   ar
    18    10     4   ar
    19    18    13    1
    20    16    19    1
@<TRIPOS>MOLECULE
*****
 19 20 0 0 0
SMALL
GASTEIGER

@<TRIPOS>ATOM
      1 C          -7.8769  -15.9696   23.1824 C.3     1  UNL1        0.0636
      2 S          -8.8437  -15.9243   22.0365 S.3     1  UNL1       -0.1127
      3 CL        -12.2165  -18.7979   24.7507 Cl      1  UNL1       -0.0822
      4 C         -11.8826  -17.9959   23.5279 C.ar    1  UNL1        0.0582
      5 C         -12.9010  -17.8285   22.4395 C.ar    1  UNL1        0.0123
      6 C         -12.5670  -17.0265   21.2167 C.ar    1  UNL1        0.0128
      7 C         -11.2146  -16.3918   21.0824 C.ar    1  UNL1        0.0634
      8 CL        -10.8807  -15.5897   19.8596 Cl      1  UNL1       -0.0817
      9 C         -10.1962  -16.5591   22.1708 C.ar    1  UNL1        0.0366
     10 C         -10.5302  -17.3612   23.3936 C.ar    1  UNL1        0.0184
     11 C          -6.7049  -16.9048   23.1384 C.3     1  UNL1        0.0293
     12 C          -6.7668  -18.1459   22.2984 C.3     1  UNL1        0.0731
     13 N          -5.5031  -18.7595   21.7726 N.3     1  UNL1       -0.2703
     14 C          -4.2631  -18.7624   22.6167 C.3     1  UNL1        0.0894
     15 C          -2.9994  -19.3760   22.0910 C.3     1  UNL1        0.0862
     16 N          -2.9756  -19.9867   20.7211 N.3     1  UNL1       -0.2951
     17 C          -4.2155  -19.9838   19.8770 C.3     1  UNL1        0.0862
     18 C          -5.4793  -19.3702   20.4028 C.3     1  UNL1        0.0894
     19 H          -2.7015  -20.9622   20.8383 H       1  UNL1        0.1233
@<TRIPOS>BOND
     1     3     4    1
     2     4     5   ar
     3     5     6   ar
     4     6     7   ar
     5     7     8    1
     6     7     9   ar
     7     9     2    1
     8     2     1    1
     9     1    11    1
    10    11    12    1
    11    12    13    1
    12    13    14    1
    13    14    15    1
    14    15    16    1
    15    16    17    1
    16    17    18    1
    17     9    10   ar
    18    10     4   ar
    19    18    13    1
    20    16    19    1
@<TRIPOS>MOLECULE
*****
 19 20 0 0 0
SMALL
GASTEIGER

@<TRIPOS>ATOM
      1 C          -7.4016  -19.3301   20.2597 C.3     1  UNL1        0.0636
      2 S          -8.7432  -19.0907   20.8863 S.3     1  UNL1       -0.1127
      3 CL         -7.4741  -15.0071   23.8381 Cl      1  UNL1       -0.0822
      4 C          -8.2080  -16.3030   23.6599 C.ar    1  UNL1        0.0582
      5 C          -9.0413  -16.8532   24.7792 C.ar    1  UNL1        0.0123
      6 C          -9.7753  -18.1491   24.6009 C.ar    1  UNL1        0.0128
      7 C          -9.6759  -18.8950   23.3033 C.ar    1  UNL1        0.0634
      8 CL        -10.4098  -20.1910   23.1251 Cl      1  UNL1       -0.0817
      9 C          -8.8426  -18.3449   22.1840 C.ar    1  UNL1        0.0366
     10 C          -8.1087  -17.0489   22.3623 C.ar    1  UNL1        0.0184
     11 C          -6.3363  -20.0591   21.0238 C.3     1  UNL1        0.0293
     12 C          -4.9396  -20.1297   20.4814 C.3     1  UNL1        0.0731
     13 N          -3.8991  -19.1616   20.9609 N.3     1  UNL1       -0.2703
     14 C          -2.9075  -18.5862   19.9935 C.3     1  UNL1        0.0894
     15 C          -1.8669  -17.6180   20.4730 C.3     1  UNL1        0.0862
     16 N          -1.8180  -17.2251   21.9198 N.3     1  UNL1       -0.2951
     17 C          -2.8095  -17.8005   22.8871 C.3     1  UNL1        0.0862
     18 C          -3.8501  -18.7687   22.4077 C.3     1  UNL1        0.0894
     19 H          -1.9277  -16.2116   21.9536 H       1  UNL1        0.1233
@<TRIPOS>BOND
     1     3     4    1
     2     4     5   ar
     3     5     6   ar
     4     6     7   ar
     5     7     8    1
     6     7     9   ar
     7     9     2    1
     8     2     1    1
     9     1    11    1
    10    11    12    1
    11    12    13    1
    12    13    14    1
    13    14    15    1
    14    15    16    1
    15    16    17    1
    16    17    18    1
    17     9    10   ar
    18    10     4   ar
    19    18    13    1
    20    16    19    1
@<TRIPOS>MOLECULE
*****
 19 20 0 0 0
SMALL
GASTEIGER

@<TRIPOS>ATOM
      1 C          -8.7029  -16.8943   25.1845 C.3     1  UNL1        0.0636
      2 S          -9.8328  -17.8726   25.0573 S.3     1  UNL1       -0.1127
      3 CL        -12.6349  -16.6039   20.8694 Cl      1  UNL1       -0.0822
      4 C         -11.7757  -17.5863   21.6087 C.ar    1  UNL1        0.0582
      5 C         -11.4582  -18.9169   20.9932 C.ar    1  UNL1        0.0123
      6 C         -10.5989  -19.8993   21.7324 C.ar    1  UNL1        0.0128
      7 C         -10.0571  -19.5512   23.0871 C.ar    1  UNL1        0.0634
      8 CL         -9.1978  -20.5337   23.8263 Cl      1  UNL1       -0.0817
      9 C         -10.3746  -18.2207   23.7026 C.ar    1  UNL1        0.0366
     10 C         -11.2339  -17.2383   22.9633 C.ar    1  UNL1        0.0184
     11 C          -8.5074  -15.8344   24.1411 C.3     1  UNL1        0.0293
     12 C          -7.1454  -15.5964   23.5597 C.3     1  UNL1        0.0731
     13 N          -6.2666  -16.7598   23.2074 N.3     1  UNL1       -0.2703
     14 C          -6.8190  -17.9014   22.4062 C.3     1  UNL1        0.0894
     15 C          -5.9402  -19.0648   22.0539 C.3     1  UNL1        0.0862
     16 N          -4.5091  -19.0867   22.5027 N.3     1  UNL1       -0.2951
     17 C          -3.9567  -17.9453   23.3038 C.3     1  UNL1        0.0862
     18 C          -4.8355  -16.7818   23.6562 C.3     1  UNL1        0.0894
     19 H          -3.9376  -19.1594   21.6609 H       1  UNL1        0.1233
@<TRIPOS>BOND
     1     3     4    1
     2     4     5   ar
     3     5     6   ar
     4     6     7   ar
     5     7     8    1
     6     7     9   ar
     7     9     2    1
     8     2     1    1
     9     1    11    1
    10    11    12    1
    11    12    13    1
    12    13    14    1
    13    14    15    1
    14    15    16    1
    15    16    17    1
    16    17    18    1
    17     9    10   ar
    18    10     4   ar
    19    18    13    1
    20    16    19    1
@<TRIPOS>MOLECULE
*****
 19 20 0 0 0
SMALL
GASTEIGER

@<TRIPOS>ATOM
      1 C          -5.3525  -15.9725   24.3677 C.3     1  UNL1        0.0636
      2 S          -6.6086  -15.5513   23.6644 S.3     1  UNL1       -0.1127
      3 CL         -9.0719  -19.2088   20.9156 Cl      1  UNL1       -0.0822
      4 C          -8.9765  -18.3478   22.1402 C.ar    1  UNL1        0.0582
      5 C         -10.0173  -18.4546   23.2151 C.ar    1  UNL1        0.0123
      6 C          -9.9219  -17.5936   24.4396 C.ar    1  UNL1        0.0128
      7 C          -8.7857  -16.6259   24.5894 C.ar    1  UNL1        0.0634
      8 CL         -8.6903  -15.7649   25.8140 Cl      1  UNL1       -0.0817
      9 C          -7.7449  -16.5191   23.5146 C.ar    1  UNL1        0.0366
     10 C          -7.8403  -17.3801   22.2900 C.ar    1  UNL1        0.0184
     11 C          -4.1646  -16.4281   23.5730 C.3     1  UNL1        0.0293
     12 C          -4.1649  -17.7858   22.9354 C.3     1  UNL1        0.0731
     13 N          -3.4185  -18.0128   21.6543 N.3     1  UNL1       -0.2703
     14 C          -3.9142  -19.0277   20.6671 C.3     1  UNL1        0.0894
     15 C          -3.1678  -19.2547   19.3860 C.3     1  UNL1        0.0862
     16 N          -1.9257  -18.4668   19.0919 N.3     1  UNL1       -0.2951
     17 C          -1.4300  -17.4520   20.0790 C.3     1  UNL1        0.0862
     18 C          -2.1764  -17.2249   21.3602 C.3     1  UNL1        0.0894
     19 H          -2.0927  -17.9696   18.2171 H       1  UNL1        0.1233
@<TRIPOS>BOND
     1     3     4    1
     2     4     5   ar
     3     5     6   ar
     4     6     7   ar
     5     7     8    1
     6     7     9   ar
     7     9     2    1
     8     2     1    1
     9     1    11    1
    10    11    12    1
    11    12    13    1
    12    13    14    1
    13    14    15    1
    14    15    16    1
    15    16    17    1
    16    17    18    1
    17     9    10   ar
    18    10     4   ar
    19    18    13    1
    20    16    19    1
