@<TRIPOS>MOLECULE
*****
 35 39 0 0 0
SMALL
GASTEIGER

@<TRIPOS>ATOM
      1 C           0.4590    2.3252   24.9187 C.2     1  UNL1        0.0033
      2 C           1.2990    1.4431   24.0432 C.2     1  UNL1        0.0641
      3 C           2.3742    0.5904   24.6490 C.3     1  UNL1        0.0383
      4 C           3.2141   -0.2917   23.7735 C.3     1  UNL1        0.0557
      5 C           2.9789   -0.3211   22.2923 C.3     1  UNL1        0.2029
      6 N           1.9036    0.5317   21.6866 N.pl3   1  UNL1       -0.1874
      7 C           1.0638    1.4137   22.5621 C.2     1  UNL1        0.3654
      8 N          -0.0515    2.3354   22.1660 N.2     1  UNL1        0.1546
      9 O          -0.6022    2.6025   20.7965 O.2     1  UNL1       -0.2798
     10 C          -0.1737    2.0140   19.4851 C.3     1  UNL1        0.2733
     11 C           0.9113    1.0131   19.2190 C.3     1  UNL1        0.1043
     12 C           1.8359    0.3533   20.1988 C.3     1  UNL1        0.1868
     13 C           2.8230   -0.6124   19.6134 C.ar    1  UNL1        0.0246
     14 C           2.5884   -2.0891   19.7321 C.ar    1  UNL1        0.0317
     15 C           3.5756   -3.0550   19.1467 C.ar    1  UNL1        0.1695
     16 F           3.3409   -4.5317   19.2653 F       1  UNL1       -0.2017
     17 C           4.7976   -2.5439   18.4425 C.ar    1  UNL1        0.1946
     18 F           5.7848   -3.5096   17.8571 F       1  UNL1       -0.1994
     19 C           5.0323   -1.0672   18.3238 C.ar    1  UNL1        0.1695
     20 F           6.2541   -0.5561   17.6198 F       1  UNL1       -0.2017
     21 C           4.0450   -0.1013   18.9093 C.ar    1  UNL1        0.0317
     22 C           0.1455    1.4776   28.7831 C.ar    1  UNL1        0.1547
     23 C          -0.0898    1.4482   27.3019 C.ar    1  UNL1        0.0384
     24 C           0.6943    2.3545   26.3999 C.ar    1  UNL1        0.0030
     25 C           1.7137    3.2904   26.9789 C.ar    1  UNL1        0.0017
     26 C           1.9489    3.3197   28.4601 C.ar    1  UNL1        0.0206
     27 C           1.1648    2.4133   29.3622 C.ar    1  UNL1        0.0994
     28 N           1.4001    2.4428   30.8433 N.ar    1  UNL1       -0.2839
     29 C           2.0000    1.3390   31.6629 C.ar    1  UNL1        0.1826
     30 N           2.0475    1.7953   33.0911 N.ar    1  UNL1       -0.2280
     31 C           1.4768    3.1810   33.1540 C.ar    1  UNL1        0.0786
     32 C           1.3318    4.0195   34.3894 C.3     1  UNL1        0.0538
     33 C           1.0768    3.5812   31.7649 C.ar    1  UNL1        0.0963
     34 C          -1.7139   -0.3061   29.1160 C.3     1  UNL1        0.2525
     35 O          -0.6386    0.5712   29.6851 O.3     1  UNL1       -0.4700
@<TRIPOS>BOND
     1    34    35    1
     2    35    22    1
     3    22    23   ar
     4    23    24   ar
     5    24     1    1
     6     1     2    2
     7     2     3    1
     8     3     4    1
     9     4     5    1
    10     5     6    1
    11     6     7    1
    12     7     8    2
    13     8     9    1
    14     9    10    1
    15    10    11    1
    16    11    12    1
    17    12    13    1
    18    13    14   ar
    19    14    15   ar
    20    15    16    1
    21    15    17   ar
    22    17    18    1
    23    17    19   ar
    24    19    20    1
    25    19    21   ar
    26    24    25   ar
    27    25    26   ar
    28    26    27   ar
    29    27    28    1
    30    28    29   ar
    31    29    30   ar
    32    30    31   ar
    33    31    32    1
    34    31    33   ar
    35    27    22   ar
    36    33    28   ar
    37     7     2    1
    38    21    13   ar
    39    12     6    1
@<TRIPOS>MOLECULE
*****
 35 39 0 0 0
SMALL
GASTEIGER

@<TRIPOS>ATOM
      1 C           8.0756   -1.0896   32.9854 C.2     1  UNL1        0.0033
      2 C           6.8591   -0.6650   33.7534 C.2     1  UNL1        0.0641
      3 C           5.5128   -1.2193   33.3922 C.3     1  UNL1        0.0383
      4 C           4.2963   -0.7946   34.1601 C.3     1  UNL1        0.0557
      5 C           4.4260    0.1843   35.2893 C.3     1  UNL1        0.2029
      6 N           5.7723    0.7386   35.6504 N.pl3   1  UNL1       -0.1874
      7 C           6.9887    0.3139   34.8825 C.2     1  UNL1        0.3654
      8 N           8.4135    0.7412   35.0764 N.2     1  UNL1        0.1546
      9 O           8.9735    1.6987   36.0862 O.2     1  UNL1       -0.2798
     10 C           8.2472    2.4653   37.1513 C.3     1  UNL1        0.2733
     11 C           6.7814    2.4639   37.4699 C.3     1  UNL1        0.1043
     12 C           5.6800    1.6954   36.8019 C.3     1  UNL1        0.1868
     13 C           4.3044    1.9124   37.3591 C.ar    1  UNL1        0.0246
     14 C           3.7209    0.9225   38.3233 C.ar    1  UNL1        0.0317
     15 C           2.3452    1.1395   38.8806 C.ar    1  UNL1        0.1695
     16 F           1.7618    0.1496   39.8448 F       1  UNL1       -0.2017
     17 C           1.5530    2.3465   38.4736 C.ar    1  UNL1        0.1946
     18 F           0.1774    2.5635   39.0309 F       1  UNL1       -0.1994
     19 C           2.1364    3.3364   37.5095 C.ar    1  UNL1        0.1695
     20 F           1.3443    4.5434   37.1025 F       1  UNL1       -0.2017
     21 C           3.5121    3.1194   36.9522 C.ar    1  UNL1        0.0317
     22 C           7.8331   -4.5211   31.0065 C.ar    1  UNL1        0.1547
     23 C           7.9628   -3.5421   32.1356 C.ar    1  UNL1        0.0384
     24 C           7.9459   -2.0686   31.8563 C.ar    1  UNL1        0.0030
     25 C           7.7993   -1.5737   30.4478 C.ar    1  UNL1        0.0017
     26 C           7.6696   -2.5527   29.3187 C.ar    1  UNL1        0.0206
     27 C           7.6865   -4.0264   29.5980 C.ar    1  UNL1        0.0994
     28 N           7.5568   -5.0052   28.4689 N.ar    1  UNL1       -0.2839
     29 C           6.2825   -5.3903   27.7777 C.ar    1  UNL1        0.1826
     30 N           6.6168   -6.3939   26.7143 N.ar    1  UNL1       -0.2280
     31 C           8.0979   -6.6292   26.7482 C.ar    1  UNL1        0.0786
     32 C           8.8636   -7.5594   25.8546 C.3     1  UNL1        0.0538
     33 C           8.6788   -5.7709   27.8326 C.ar    1  UNL1        0.0963
     34 C           9.1573   -6.7141   31.4389 C.3     1  UNL1        0.2525
     35 O           7.8501   -5.9948   31.2858 O.3     1  UNL1       -0.4700
@<TRIPOS>BOND
     1    34    35    1
     2    35    22    1
     3    22    23   ar
     4    23    24   ar
     5    24     1    1
     6     1     2    2
     7     2     3    1
     8     3     4    1
     9     4     5    1
    10     5     6    1
    11     6     7    1
    12     7     8    2
    13     8     9    1
    14     9    10    1
    15    10    11    1
    16    11    12    1
    17    12    13    1
    18    13    14   ar
    19    14    15   ar
    20    15    16    1
    21    15    17   ar
    22    17    18    1
    23    17    19   ar
    24    19    20    1
    25    19    21   ar
    26    24    25   ar
    27    25    26   ar
    28    26    27   ar
    29    27    28    1
    30    28    29   ar
    31    29    30   ar
    32    30    31   ar
    33    31    32    1
    34    31    33   ar
    35    27    22   ar
    36    33    28   ar
    37     7     2    1
    38    21    13   ar
    39    12     6    1
@<TRIPOS>MOLECULE
*****
 35 39 0 0 0
SMALL
GASTEIGER

@<TRIPOS>ATOM
      1 C           0.7775    1.7430   25.5522 C.2     1  UNL1        0.0033
      2 C           1.6319    1.0022   24.5667 C.2     1  UNL1        0.0641
      3 C           2.8243    0.2262   25.0422 C.3     1  UNL1        0.0383
      4 C           3.6787   -0.5146   24.0566 C.3     1  UNL1        0.0557
      5 C           3.3407   -0.4794   22.5956 C.3     1  UNL1        0.2029
      6 N           2.1482    0.2967   22.1202 N.pl3   1  UNL1       -0.1874
      7 C           1.2939    1.0374   23.1057 C.2     1  UNL1        0.3654
      8 N           0.0704    1.8654   22.8461 N.2     1  UNL1        0.1546
      9 O          -0.6010    2.1572   21.5368 O.2     1  UNL1       -0.2798
     10 C          -0.2146    1.6930   20.1639 C.3     1  UNL1        0.2733
     11 C           0.9386    0.8224   19.7609 C.3     1  UNL1        0.1043
     12 C           1.9901    0.2009   20.6316 C.3     1  UNL1        0.1868
     13 C           3.0197   -0.6254   19.9196 C.ar    1  UNL1        0.0246
     14 C           4.2716    0.0188   19.4021 C.ar    1  UNL1        0.0317
     15 C           5.3012   -0.8077   18.6900 C.ar    1  UNL1        0.1695
     16 F           6.5531   -0.1635   18.1726 F       1  UNL1       -0.2017
     17 C           5.0789   -2.2783   18.4954 C.ar    1  UNL1        0.1946
     18 F           6.1084   -3.1047   17.7834 F       1  UNL1       -0.1994
     19 C           3.8270   -2.9225   19.0128 C.ar    1  UNL1        0.1695
     20 F           3.6046   -4.3931   18.8182 F       1  UNL1       -0.2017
     21 C           2.7973   -2.0961   19.7249 C.ar    1  UNL1        0.0317
     22 C           2.4662    2.6276   29.0330 C.ar    1  UNL1        0.1547
     23 C           2.1281    2.6628   27.5720 C.ar    1  UNL1        0.0384
     24 C           1.1155    1.7078   27.0133 C.ar    1  UNL1        0.0030
     25 C           0.4408    0.7174   27.9155 C.ar    1  UNL1        0.0017
     26 C           0.7788    0.6821   29.3766 C.ar    1  UNL1        0.0206
     27 C           1.7915    1.6373   29.9353 C.ar    1  UNL1        0.0994
     28 N           2.1294    1.6020   31.3963 N.ar    1  UNL1       -0.2839
     29 C           1.3872    2.3105   32.4904 C.ar    1  UNL1        0.1826
     30 N           2.0681    1.9984   33.7900 N.ar    1  UNL1       -0.2280
     31 C           3.2312    1.0970   33.4991 C.ar    1  UNL1        0.0786
     32 C           4.1883    0.5386   34.5101 C.3     1  UNL1        0.0538
     33 C           3.2691    0.8520   32.0197 C.ar    1  UNL1        0.0963
     34 C           3.0375    4.9061   30.1430 C.3     1  UNL1        0.2525
     35 O           3.4788    3.5828   29.5918 O.3     1  UNL1       -0.4700
@<TRIPOS>BOND
     1    34    35    1
     2    35    22    1
     3    22    23   ar
     4    23    24   ar
     5    24     1    1
     6     1     2    2
     7     2     3    1
     8     3     4    1
     9     4     5    1
    10     5     6    1
    11     6     7    1
    12     7     8    2
    13     8     9    1
    14     9    10    1
    15    10    11    1
    16    11    12    1
    17    12    13    1
    18    13    14   ar
    19    14    15   ar
    20    15    16    1
    21    15    17   ar
    22    17    18    1
    23    17    19   ar
    24    19    20    1
    25    19    21   ar
    26    24    25   ar
    27    25    26   ar
    28    26    27   ar
    29    27    28    1
    30    28    29   ar
    31    29    30   ar
    32    30    31   ar
    33    31    32    1
    34    31    33   ar
    35    27    22   ar
    36    33    28   ar
    37     7     2    1
    38    21    13   ar
    39    12     6    1
@<TRIPOS>MOLECULE
*****
 35 39 0 0 0
SMALL
GASTEIGER

@<TRIPOS>ATOM
      1 C           2.2672    1.0042   26.6613 C.2     1  UNL1        0.0033
      2 C           2.8297    0.2791   25.4748 C.2     1  UNL1        0.0641
      3 C           3.8069   -0.8413   25.6746 C.3     1  UNL1        0.0383
      4 C           4.3694   -1.5664   24.4881 C.3     1  UNL1        0.0557
      5 C           3.9547   -1.1712   23.1018 C.3     1  UNL1        0.2029
      6 N           2.9774   -0.0508   22.9020 N.pl3   1  UNL1       -0.1874
      7 C           2.4150    0.6742   24.0885 C.2     1  UNL1        0.3654
      8 N           1.4359    1.8105   24.1123 N.2     1  UNL1        0.1546
      9 O           0.7776    2.5022   22.9555 O.2     1  UNL1       -0.2798
     10 C           0.9358    2.2285   21.4893 C.3     1  UNL1        0.2733
     11 C           1.7912    1.1955   20.8175 C.3     1  UNL1        0.1043
     12 C           2.6999    0.1811   21.4463 C.3     1  UNL1        0.1868
     13 C           3.4270   -0.7205   20.4933 C.ar    1  UNL1        0.0246
     14 C           2.8366   -2.0472   20.1175 C.ar    1  UNL1        0.0317
     15 C           3.5638   -2.9489   19.1645 C.ar    1  UNL1        0.1695
     16 F           2.9734   -4.2757   18.7887 F       1  UNL1       -0.2017
     17 C           4.8815   -2.5239   18.5873 C.ar    1  UNL1        0.1946
     18 F           5.6087   -3.4255   17.6343 F       1  UNL1       -0.1994
     19 C           5.4719   -1.1971   18.9630 C.ar    1  UNL1        0.1695
     20 F           6.7895   -0.7720   18.3859 F       1  UNL1       -0.2017
     21 C           4.7447   -0.2954   19.9161 C.ar    1  UNL1        0.0317
     22 C           4.4138    0.6757   29.9831 C.ar    1  UNL1        0.1547
     23 C           3.9990    1.0709   28.5967 C.ar    1  UNL1        0.0384
     24 C           2.6819    0.6090   28.0476 C.ar    1  UNL1        0.0030
     25 C           1.7793   -0.2481   28.8848 C.ar    1  UNL1        0.0017
     26 C           2.1940   -0.6433   30.2711 C.ar    1  UNL1        0.0206
     27 C           3.5112   -0.1814   30.8203 C.ar    1  UNL1        0.0994
     28 N           3.9259   -0.5767   32.2065 N.ar    1  UNL1       -0.2839
     29 C           4.3936   -1.9365   32.6330 C.ar    1  UNL1        0.1826
     30 N           4.7024   -1.8817   34.0999 N.ar    1  UNL1       -0.2280
     31 C           4.4255   -0.4878   34.5799 C.ar    1  UNL1        0.0786
     32 C           4.5982    0.0118   35.9838 C.3     1  UNL1        0.0538
     33 C           3.9456    0.3187   33.4099 C.ar    1  UNL1        0.0963
     34 C           6.9842    0.3770   30.2145 C.3     1  UNL1        0.2525
     35 O           5.7310    1.1376   30.5322 O.3     1  UNL1       -0.4700
@<TRIPOS>BOND
     1    34    35    1
     2    35    22    1
     3    22    23   ar
     4    23    24   ar
     5    24     1    1
     6     1     2    2
     7     2     3    1
     8     3     4    1
     9     4     5    1
    10     5     6    1
    11     6     7    1
    12     7     8    2
    13     8     9    1
    14     9    10    1
    15    10    11    1
    16    11    12    1
    17    12    13    1
    18    13    14   ar
    19    14    15   ar
    20    15    16    1
    21    15    17   ar
    22    17    18    1
    23    17    19   ar
    24    19    20    1
    25    19    21   ar
    26    24    25   ar
    27    25    26   ar
    28    26    27   ar
    29    27    28    1
    30    28    29   ar
    31    29    30   ar
    32    30    31   ar
    33    31    32    1
    34    31    33   ar
    35    27    22   ar
    36    33    28   ar
    37     7     2    1
    38    21    13   ar
    39    12     6    1
@<TRIPOS>MOLECULE
*****
 35 39 0 0 0
SMALL
GASTEIGER

@<TRIPOS>ATOM
      1 C           4.6974   -1.3100   27.9824 C.2     1  UNL1        0.0033
      2 C           4.6382   -1.4502   26.4901 C.2     1  UNL1        0.0641
      3 C           3.7562   -0.5417   25.6859 C.3     1  UNL1        0.0383
      4 C           3.6969   -0.6818   24.1936 C.3     1  UNL1        0.0557
      5 C           4.5198   -1.7305   23.5056 C.3     1  UNL1        0.2029
      6 N           5.4018   -2.6389   24.3099 N.pl3   1  UNL1       -0.1874
      7 C           5.4610   -2.4987   25.8020 C.2     1  UNL1        0.3654
      8 N           6.2675   -3.2947   26.7850 N.2     1  UNL1        0.1546
      9 O           7.2140   -4.4275   26.5182 O.2     1  UNL1       -0.2798
     10 C           7.5876   -5.0440   25.2029 C.3     1  UNL1        0.2733
     11 C           7.1073   -4.6801   23.8293 C.3     1  UNL1        0.1043
     12 C           6.1345   -3.6097   23.4318 C.3     1  UNL1        0.1868
     13 C           5.8577   -3.4949   21.9621 C.ar    1  UNL1        0.0246
     14 C           4.5888   -4.0558   21.3918 C.ar    1  UNL1        0.0317
     15 C           4.3120   -3.9410   19.9220 C.ar    1  UNL1        0.1695
     16 F           3.0431   -4.5018   19.3517 F       1  UNL1       -0.2017
     17 C           5.3042   -3.2653   19.0225 C.ar    1  UNL1        0.1946
     18 F           5.0275   -3.1506   17.5527 F       1  UNL1       -0.1994
     19 C           6.5732   -2.7045   19.5928 C.ar    1  UNL1        0.1695
     20 F           7.5654   -2.0289   18.6934 F       1  UNL1       -0.2017
     21 C           6.8500   -2.8192   21.0626 C.ar    1  UNL1        0.0317
     22 C           1.6015    0.5338   29.6454 C.ar    1  UNL1        0.1547
     23 C           2.4243   -0.5148   28.9573 C.ar    1  UNL1        0.0384
     24 C           3.8746   -0.2614   28.6705 C.ar    1  UNL1        0.0030
     25 C           4.5022    1.0406   29.0717 C.ar    1  UNL1        0.0017
     26 C           3.6793    2.0893   29.7597 C.ar    1  UNL1        0.0206
     27 C           2.2290    1.8358   30.0466 C.ar    1  UNL1        0.0994
     28 N           1.4062    2.8845   30.7347 N.ar    1  UNL1       -0.2839
     29 C           0.9363    2.8428   32.1585 C.ar    1  UNL1        0.1826
     30 N           0.1486    4.0915   32.4234 N.ar    1  UNL1       -0.2280
     31 C           0.1317    4.9049   31.1633 C.ar    1  UNL1        0.0786
     32 C          -0.5439    6.2315   30.9792 C.3     1  UNL1        0.0538
     33 C           0.9089    4.1590   30.1196 C.ar    1  UNL1        0.0963
     34 C          -0.7492   -0.2333   28.8481 C.3     1  UNL1        0.2525
     35 O           0.1511    0.2803   29.9322 O.3     1  UNL1       -0.4700
@<TRIPOS>BOND
     1    34    35    1
     2    35    22    1
     3    22    23   ar
     4    23    24   ar
     5    24     1    1
     6     1     2    2
     7     2     3    1
     8     3     4    1
     9     4     5    1
    10     5     6    1
    11     6     7    1
    12     7     8    2
    13     8     9    1
    14     9    10    1
    15    10    11    1
    16    11    12    1
    17    12    13    1
    18    13    14   ar
    19    14    15   ar
    20    15    16    1
    21    15    17   ar
    22    17    18    1
    23    17    19   ar
    24    19    20    1
    25    19    21   ar
    26    24    25   ar
    27    25    26   ar
    28    26    27   ar
    29    27    28    1
    30    28    29   ar
    31    29    30   ar
    32    30    31   ar
    33    31    32    1
    34    31    33   ar
    35    27    22   ar
    36    33    28   ar
    37     7     2    1
    38    21    13   ar
    39    12     6    1
@<TRIPOS>MOLECULE
*****
 35 39 0 0 0
SMALL
GASTEIGER

@<TRIPOS>ATOM
      1 C           4.3482   -0.8940   28.1311 C.2     1  UNL1        0.0033
      2 C           4.3713   -1.1223   26.6487 C.2     1  UNL1        0.0641
      3 C           3.5668   -0.2393   25.7413 C.3     1  UNL1        0.0383
      4 C           3.5898   -0.4675   24.2590 C.3     1  UNL1        0.0557
      5 C           4.4174   -1.5787   23.6839 C.3     1  UNL1        0.2029
      6 N           5.2218   -2.4616   24.5914 N.pl3   1  UNL1       -0.1874
      7 C           5.1987   -2.2333   26.0736 C.2     1  UNL1        0.3654
      8 N           5.9210   -2.9911   27.1480 N.2     1  UNL1        0.1546
      9 O           6.8448   -4.1644   27.0052 O.2     1  UNL1       -0.2798
     10 C           7.2743   -4.8694   25.7530 C.3     1  UNL1        0.2733
     11 C           6.8863   -4.5756   24.3341 C.3     1  UNL1        0.1043
     12 C           5.9729   -3.5040   23.8172 C.3     1  UNL1        0.1868
     13 C           5.7857   -3.4703   22.3293 C.ar    1  UNL1        0.0246
     14 C           6.8474   -2.8745   21.4531 C.ar    1  UNL1        0.0317
     15 C           6.6602   -2.8408   19.9652 C.ar    1  UNL1        0.1695
     16 F           7.7219   -2.2449   19.0890 F       1  UNL1       -0.2017
     17 C           5.4113   -3.4030   19.3534 C.ar    1  UNL1        0.1946
     18 F           5.2241   -3.3693   17.8656 F       1  UNL1       -0.1994
     19 C           4.3496   -3.9988   20.2296 C.ar    1  UNL1        0.1695
     20 F           3.1007   -4.5610   19.6180 F       1  UNL1       -0.2017
     21 C           4.5367   -4.0325   21.7176 C.ar    1  UNL1        0.0317
     22 C           1.2539    1.0888   29.6291 C.ar    1  UNL1        0.1547
     23 C           2.0815   -0.0224   29.0541 C.ar    1  UNL1        0.0384
     24 C           3.5207    0.2171   28.7061 C.ar    1  UNL1        0.0030
     25 C           4.1325    1.5678   28.9330 C.ar    1  UNL1        0.0017
     26 C           3.3050    2.6790   29.5080 C.ar    1  UNL1        0.0206
     27 C           1.8657    2.4394   29.8561 C.ar    1  UNL1        0.0994
     28 N           1.0382    3.5506   30.4310 N.ar    1  UNL1       -0.2839
     29 C           0.5215    4.7434   29.6826 C.ar    1  UNL1        0.1826
     30 N          -0.2539    5.5940   30.6445 N.ar    1  UNL1       -0.2280
     31 C          -0.2163    4.9269   31.9874 C.ar    1  UNL1        0.0786
     32 C          -0.8637    5.4338   33.2421 C.3     1  UNL1        0.0538
     33 C           0.5823    3.6640   31.8556 C.ar    1  UNL1        0.0963
     34 C          -1.0839    0.1419   29.0065 C.3     1  UNL1        0.2525
     35 O          -0.1853    0.8492   29.9771 O.3     1  UNL1       -0.4700
@<TRIPOS>BOND
     1    34    35    1
     2    35    22    1
     3    22    23   ar
     4    23    24   ar
     5    24     1    1
     6     1     2    2
     7     2     3    1
     8     3     4    1
     9     4     5    1
    10     5     6    1
    11     6     7    1
    12     7     8    2
    13     8     9    1
    14     9    10    1
    15    10    11    1
    16    11    12    1
    17    12    13    1
    18    13    14   ar
    19    14    15   ar
    20    15    16    1
    21    15    17   ar
    22    17    18    1
    23    17    19   ar
    24    19    20    1
    25    19    21   ar
    26    24    25   ar
    27    25    26   ar
    28    26    27   ar
    29    27    28    1
    30    28    29   ar
    31    29    30   ar
    32    30    31   ar
    33    31    32    1
    34    31    33   ar
    35    27    22   ar
    36    33    28   ar
    37     7     2    1
    38    21    13   ar
    39    12     6    1
@<TRIPOS>MOLECULE
*****
 35 39 0 0 0
SMALL
GASTEIGER

@<TRIPOS>ATOM
      1 C           5.3310    0.9606   34.6800 C.2     1  UNL1        0.0033
      2 C           4.2534    1.1934   33.6628 C.2     1  UNL1        0.0641
      3 C           3.0940    2.0873   33.9896 C.3     1  UNL1        0.0383
      4 C           2.0165    2.3201   32.9724 C.3     1  UNL1        0.0557
      5 C           2.0983    1.6590   31.6284 C.3     1  UNL1        0.2029
      6 N           3.2578    0.7651   31.3016 N.pl3   1  UNL1       -0.1874
      7 C           4.3352    0.5324   32.3188 C.2     1  UNL1        0.3654
      8 N           5.5674   -0.3147   32.1989 N.2     1  UNL1        0.1546
      9 O           6.0263   -1.1382   31.0321 O.2     1  UNL1       -0.2798
     10 C           5.3665   -1.3179   29.6972 C.3     1  UNL1        0.2733
     11 C           4.0847   -0.7186   29.1991 C.3     1  UNL1        0.1043
     12 C           3.1462    0.2084   29.9132 C.3     1  UNL1        0.1868
     13 C           1.9363    0.6351   29.1362 C.ar    1  UNL1        0.0246
     14 C           0.6830   -0.1873   29.1884 C.ar    1  UNL1        0.0317
     15 C          -0.5271    0.2394   28.4113 C.ar    1  UNL1        0.1695
     16 F          -1.7804   -0.5830   28.4635 F       1  UNL1       -0.2017
     17 C          -0.4838    1.4886   27.5820 C.ar    1  UNL1        0.1946
     18 F          -1.6937    1.9154   26.8049 F       1  UNL1       -0.1994
     19 C           0.7696    2.3111   27.5298 C.ar    1  UNL1        0.1695
     20 F           0.8130    3.5602   26.7006 F       1  UNL1       -0.2017
     21 C           1.9796    1.8844   28.3069 C.ar    1  UNL1        0.0317
     22 C           4.2521    1.7311   38.4206 C.ar    1  UNL1        0.1547
     23 C           4.3340    1.0700   37.0766 C.ar    1  UNL1        0.0384
     24 C           5.2491    1.6217   36.0240 C.ar    1  UNL1        0.0030
     25 C           6.0825    2.8344   36.3153 C.ar    1  UNL1        0.0017
     26 C           6.0006    3.4955   37.6593 C.ar    1  UNL1        0.0206
     27 C           5.0854    2.9438   38.7120 C.ar    1  UNL1        0.0994
     28 N           5.0036    3.6049   40.0559 N.ar    1  UNL1       -0.2839
     29 C           6.0139    3.4891   41.1586 C.ar    1  UNL1        0.1826
     30 N           5.5318    4.3106   42.3173 N.ar    1  UNL1       -0.2280
     31 C           4.2234    4.9341   41.9308 C.ar    1  UNL1        0.0786
     32 C           3.3881    5.8355   42.7910 C.3     1  UNL1        0.0538
     33 C           3.8970    4.4980   40.5332 C.ar    1  UNL1        0.0963
     34 C           1.9424    0.7624   39.1111 C.3     1  UNL1        0.2525
     35 O           3.3369    1.1794   39.4733 O.3     1  UNL1       -0.4700
@<TRIPOS>BOND
     1    34    35    1
     2    35    22    1
     3    22    23   ar
     4    23    24   ar
     5    24     1    1
     6     1     2    2
     7     2     3    1
     8     3     4    1
     9     4     5    1
    10     5     6    1
    11     6     7    1
    12     7     8    2
    13     8     9    1
    14     9    10    1
    15    10    11    1
    16    11    12    1
    17    12    13    1
    18    13    14   ar
    19    14    15   ar
    20    15    16    1
    21    15    17   ar
    22    17    18    1
    23    17    19   ar
    24    19    20    1
    25    19    21   ar
    26    24    25   ar
    27    25    26   ar
    28    26    27   ar
    29    27    28    1
    30    28    29   ar
    31    29    30   ar
    32    30    31   ar
    33    31    32    1
    34    31    33   ar
    35    27    22   ar
    36    33    28   ar
    37     7     2    1
    38    21    13   ar
    39    12     6    1
@<TRIPOS>MOLECULE
*****
 35 39 0 0 0
SMALL
GASTEIGER

@<TRIPOS>ATOM
      1 C           7.0430   -4.6513   25.2676 C.2     1  UNL1        0.0033
      2 C           6.8258   -3.8014   26.4843 C.2     1  UNL1        0.0641
      3 C           6.3402   -2.3899   26.3363 C.3     1  UNL1        0.0383
      4 C           6.1229   -1.5400   27.5531 C.3     1  UNL1        0.0557
      5 C           6.3913   -2.1017   28.9179 C.3     1  UNL1        0.2029
      6 N           6.8770   -3.5132   29.0658 N.pl3   1  UNL1       -0.1874
      7 C           7.0942   -4.3630   27.8491 C.2     1  UNL1        0.3654
      8 N           7.5700   -5.7836   27.7732 N.2     1  UNL1        0.1546
      9 O           7.9461   -6.7051   28.8955 O.2     1  UNL1       -0.2798
     10 C           7.9392   -6.4336   30.3707 C.3     1  UNL1        0.2733
     11 C           7.5546   -5.1737   31.0881 C.3     1  UNL1        0.1043
     12 C           7.0819   -3.8739   30.5073 C.3     1  UNL1        0.1868
     13 C           6.7732   -2.7919   31.4992 C.ar    1  UNL1        0.0246
     14 C           7.7192   -1.6407   31.6719 C.ar    1  UNL1        0.0317
     15 C           7.4106   -0.5586   32.6639 C.ar    1  UNL1        0.1695
     16 F           8.3565    0.5926   32.8366 F       1  UNL1       -0.2017
     17 C           6.1559   -0.6278   33.4832 C.ar    1  UNL1        0.1946
     18 F           5.8473    0.4542   34.4751 F       1  UNL1       -0.1994
     19 C           5.2099   -1.7790   33.3105 C.ar    1  UNL1        0.1695
     20 F           3.9553   -1.8482   34.1296 F       1  UNL1       -0.2017
     21 C           5.5186   -2.8611   32.3185 C.ar    1  UNL1        0.0317
     22 C           5.1504   -2.9790   22.2063 C.ar    1  UNL1        0.1547
     23 C           5.4188   -3.5406   23.5711 C.ar    1  UNL1        0.0384
     24 C           6.7746   -4.0897   23.9028 C.ar    1  UNL1        0.0030
     25 C           7.8622   -4.0772   22.8697 C.ar    1  UNL1        0.0017
     26 C           7.5938   -3.5155   21.5049 C.ar    1  UNL1        0.0206
     27 C           6.2379   -2.9665   21.1732 C.ar    1  UNL1        0.0994
     28 N           5.9696   -2.4049   19.8085 N.ar    1  UNL1       -0.2839
     29 C           5.4446   -3.1679   18.6286 C.ar    1  UNL1        0.1826
     30 N           5.3297   -2.2161   17.4749 N.ar    1  UNL1       -0.2280
     31 C           5.7837   -0.8649   17.9418 C.ar    1  UNL1        0.0786
     32 C           5.8335    0.3838   17.1120 C.3     1  UNL1        0.0538
     33 C           6.1792   -0.9815   19.3840 C.ar    1  UNL1        0.0963
     34 C           3.4684   -0.9991   22.1847 C.3     1  UNL1        0.2525
     35 O           3.7945   -2.4299   21.8746 O.3     1  UNL1       -0.4700
@<TRIPOS>BOND
     1    34    35    1
     2    35    22    1
     3    22    23   ar
     4    23    24   ar
     5    24     1    1
     6     1     2    2
     7     2     3    1
     8     3     4    1
     9     4     5    1
    10     5     6    1
    11     6     7    1
    12     7     8    2
    13     8     9    1
    14     9    10    1
    15    10    11    1
    16    11    12    1
    17    12    13    1
    18    13    14   ar
    19    14    15   ar
    20    15    16    1
    21    15    17   ar
    22    17    18    1
    23    17    19   ar
    24    19    20    1
    25    19    21   ar
    26    24    25   ar
    27    25    26   ar
    28    26    27   ar
    29    27    28    1
    30    28    29   ar
    31    29    30   ar
    32    30    31   ar
    33    31    32    1
    34    31    33   ar
    35    27    22   ar
    36    33    28   ar
    37     7     2    1
    38    21    13   ar
    39    12     6    1
@<TRIPOS>MOLECULE
*****
 35 39 0 0 0
SMALL
GASTEIGER

@<TRIPOS>ATOM
      1 C           6.6935   -3.9912   25.4358 C.2     1  UNL1        0.0033
      2 C           6.5417   -3.2808   26.7481 C.2     1  UNL1        0.0641
      3 C           6.0406   -1.8673   26.7822 C.3     1  UNL1        0.0383
      4 C           5.8888   -1.1569   28.0946 C.3     1  UNL1        0.0557
      5 C           6.2381   -1.8599   29.3728 C.3     1  UNL1        0.2029
      6 N           6.7392   -3.2734   29.3386 N.pl3   1  UNL1       -0.1874
      7 C           6.8910   -3.9837   28.0263 C.2     1  UNL1        0.3654
      8 N           7.3695   -5.3821   27.7696 N.2     1  UNL1        0.1546
      9 O           7.8144   -6.4153   28.7619 O.2     1  UNL1       -0.2798
     10 C           7.8906   -6.3054   30.2558 C.3     1  UNL1        0.2733
     11 C           7.5408   -5.1351   31.1266 C.3     1  UNL1        0.1043
     12 C           7.0284   -3.7858   30.7184 C.3     1  UNL1        0.1868
     13 C           6.7712   -2.8213   31.8380 C.ar    1  UNL1        0.0246
     14 C           5.4283   -2.7878   32.5055 C.ar    1  UNL1        0.0317
     15 C           5.1710   -1.8233   33.6252 C.ar    1  UNL1        0.1695
     16 F           3.8281   -1.7898   34.2926 F       1  UNL1       -0.2017
     17 C           6.2568   -0.8922   34.0774 C.ar    1  UNL1        0.1946
     18 F           5.9995    0.0722   35.1969 F       1  UNL1       -0.1994
     19 C           7.5997   -0.9257   33.4099 C.ar    1  UNL1        0.1695
     20 F           8.6853    0.0053   33.8620 F       1  UNL1       -0.2017
     21 C           7.8569   -1.8902   32.2902 C.ar    1  UNL1        0.0317
     22 C           7.0711   -2.2488   21.8901 C.ar    1  UNL1        0.1547
     23 C           7.4204   -2.9519   23.1684 C.ar    1  UNL1        0.0384
     24 C           6.3442   -3.2882   24.1575 C.ar    1  UNL1        0.0030
     25 C           4.9186   -2.9216   23.8686 C.ar    1  UNL1        0.0017
     26 C           4.5693   -2.2186   22.5904 C.ar    1  UNL1        0.0206
     27 C           5.6456   -1.8822   21.6011 C.ar    1  UNL1        0.0994
     28 N           5.2962   -1.1792   20.3230 N.ar    1  UNL1       -0.2839
     29 C           5.5586    0.2642   20.0103 C.ar    1  UNL1        0.1826
     30 N           5.0476    0.5392   18.6271 N.ar    1  UNL1       -0.2280
     31 C           4.4695   -0.7342   18.0849 C.ar    1  UNL1        0.0786
     32 C           3.8469   -0.9140   16.7320 C.3     1  UNL1        0.0538
     33 C           4.6231   -1.7963   19.1329 C.ar    1  UNL1        0.0963
     34 C           8.7607   -2.9948   20.0630 C.3     1  UNL1        0.2525
     35 O           8.1473   -1.9125   20.9009 O.3     1  UNL1       -0.4700
@<TRIPOS>BOND
     1    34    35    1
     2    35    22    1
     3    22    23   ar
     4    23    24   ar
     5    24     1    1
     6     1     2    2
     7     2     3    1
     8     3     4    1
     9     4     5    1
    10     5     6    1
    11     6     7    1
    12     7     8    2
    13     8     9    1
    14     9    10    1
    15    10    11    1
    16    11    12    1
    17    12    13    1
    18    13    14   ar
    19    14    15   ar
    20    15    16    1
    21    15    17   ar
    22    17    18    1
    23    17    19   ar
    24    19    20    1
    25    19    21   ar
    26    24    25   ar
    27    25    26   ar
    28    26    27   ar
    29    27    28    1
    30    28    29   ar
    31    29    30   ar
    32    30    31   ar
    33    31    32    1
    34    31    33   ar
    35    27    22   ar
    36    33    28   ar
    37     7     2    1
    38    21    13   ar
    39    12     6    1
