@<TRIPOS>MOLECULE
*****
 27 29 0 0 0
SMALL
GASTEIGER

@<TRIPOS>ATOM
      1 C          -9.8949  -18.3553   22.6917 C.3     1  UNL1        0.0425
      2 C         -10.6202  -19.0525   21.5792 C.3     1  UNL1        0.0078
      3 C          -9.8596  -19.5602   20.3902 C.3     1  UNL1        0.0219
      4 C          -8.3735  -19.3707   20.3138 C.3     1  UNL1        0.0950
      5 N          -7.6482  -18.6735   21.4263 N.am    1  UNL1       -0.2636
      6 C          -6.1621  -18.4840   21.3499 C.2     1  UNL1        0.3077
      7 O          -5.4368  -17.7868   22.4625 O.2     1  UNL1       -0.2522
      8 N          -5.4015  -18.9917   20.1609 N.am    1  UNL1       -0.2681
      9 C          -8.4088  -18.1658   22.6153 C.3     1  UNL1        0.0992
     10 H          -5.8775  -19.4493   19.4307 H       1  UNL1        0.1564
     11 C          -3.9155  -18.8022   20.0846 C.ar    1  UNL1        0.0516
     12 C          -3.0192  -19.4996   21.0647 C.ar    1  UNL1        0.0156
     13 C          -1.5332  -19.3101   20.9884 C.ar    1  UNL1        0.0127
     14 C          -0.9434  -18.4232   19.9321 C.ar    1  UNL1        0.0578
     15 CL          0.5427  -18.2337   19.8558 Cl      1  UNL1       -0.0822
     16 C          -1.8397  -17.7259   18.9521 C.ar    1  UNL1        0.0127
     17 C          -3.3257  -17.9154   19.0284 C.ar    1  UNL1        0.0156
     18 C         -11.2983  -18.2954   23.2180 C.ar    1  UNL1       -0.0208
     19 C         -11.6161  -18.8570   24.5720 C.ar    1  UNL1       -0.0042
     20 C         -13.0194  -18.7971   25.0983 C.ar    1  UNL1       -0.0003
     21 C         -14.1050  -18.1756   24.2704 C.ar    1  UNL1       -0.0000
     22 C         -13.7872  -17.6140   22.9164 C.ar    1  UNL1       -0.0003
     23 C         -12.3838  -17.6739   22.3901 C.ar    1  UNL1       -0.0042
     24 C          -9.6569  -17.6372   23.9870 C.3     1  UNL1        0.0474
     25 O          -8.9197  -15.5180   22.6774 O.co2   1  UNL1       -0.5492
     26 C          -9.1521  -16.2248   23.9798 C.2     1  UNL1        0.0507
     27 O          -8.8796  -15.5191   25.2752 O.co2   1  UNL1       -0.5492
@<TRIPOS>UNITY_ATOM_ATTR
25 1
charge -1
@<TRIPOS>BOND
     1    25    26   ar
     2    26    27   ar
     3    26    24    1
     4    24     1    1
     5     1    18    1
     6    18    19   ar
     7    19    20   ar
     8    20    21   ar
     9    21    22   ar
    10    22    23   ar
    11     1     2    1
    12     2     3    1
    13     3     4    1
    14     4     5    1
    15     5     6   am
    16     6     7    2
    17     6     8   am
    18     8    11    1
    19    11    12   ar
    20    12    13   ar
    21    13    14   ar
    22    14    15    1
    23    14    16   ar
    24    16    17   ar
    25     5     9    1
    26     9     1    1
    27    23    18   ar
    28    17    11   ar
    29     8    10    1
@<TRIPOS>MOLECULE
*****
 27 29 0 0 0
SMALL
GASTEIGER

@<TRIPOS>ATOM
      1 C          -9.6938  -17.8743   23.1779 C.3     1  UNL1        0.0425
      2 C          -9.7310  -16.9229   24.3368 C.3     1  UNL1        0.0078
      3 C          -8.4696  -16.2573   24.8015 C.3     1  UNL1        0.0219
      4 C          -7.1711  -16.5433   24.1072 C.3     1  UNL1        0.0950
      5 N          -7.1339  -17.4947   22.9483 N.am    1  UNL1       -0.2636
      6 C          -5.8354  -17.7807   22.2539 C.2     1  UNL1        0.3077
      7 O          -5.7983  -18.7322   21.0950 O.2     1  UNL1       -0.2522
      8 N          -4.5740  -17.1151   22.7187 N.am    1  UNL1       -0.2681
      9 C          -8.3953  -18.1603   22.4835 C.3     1  UNL1        0.0992
     10 H          -4.5984  -16.4906   23.4793 H       1  UNL1        0.1564
     11 C          -3.2755  -17.4011   22.0243 C.ar    1  UNL1        0.0516
     12 C          -2.8859  -18.8165   21.7158 C.ar    1  UNL1        0.0156
     13 C          -1.5875  -19.1025   21.0215 C.ar    1  UNL1        0.0127
     14 C          -0.6786  -17.9733   20.6356 C.ar    1  UNL1        0.0578
     15 CL          0.6199  -18.2594   19.9413 Cl      1  UNL1       -0.0822
     16 C          -1.0682  -16.5580   20.9441 C.ar    1  UNL1        0.0127
     17 C          -2.3667  -16.2720   21.6385 C.ar    1  UNL1        0.0156
     18 C         -11.1559  -17.9250   23.5097 C.ar    1  UNL1       -0.0208
     19 C         -12.1352  -17.1199   22.7080 C.ar    1  UNL1       -0.0042
     20 C         -13.5971  -17.1705   23.0398 C.ar    1  UNL1       -0.0003
     21 C         -14.0797  -18.0263   24.1733 C.ar    1  UNL1       -0.0000
     22 C         -13.1004  -18.8314   24.9749 C.ar    1  UNL1       -0.0003
     23 C         -11.6385  -18.7808   24.6431 C.ar    1  UNL1       -0.0042
     24 C         -10.1644  -18.8435   22.1341 C.3     1  UNL1        0.0474
     25 O          -9.1965  -19.6586   19.8651 O.co2   1  UNL1       -0.5492
     26 C          -9.8599  -18.5934   20.6868 C.2     1  UNL1        0.0507
     27 O         -10.2188  -17.2782   20.0612 O.co2   1  UNL1       -0.5492
@<TRIPOS>UNITY_ATOM_ATTR
25 1
charge -1
@<TRIPOS>BOND
     1    25    26   ar
     2    26    27   ar
     3    26    24    1
     4    24     1    1
     5     1    18    1
     6    18    19   ar
     7    19    20   ar
     8    20    21   ar
     9    21    22   ar
    10    22    23   ar
    11     1     2    1
    12     2     3    1
    13     3     4    1
    14     4     5    1
    15     5     6   am
    16     6     7    2
    17     6     8   am
    18     8    11    1
    19    11    12   ar
    20    12    13   ar
    21    13    14   ar
    22    14    15    1
    23    14    16   ar
    24    16    17   ar
    25     5     9    1
    26     9     1    1
    27    23    18   ar
    28    17    11   ar
    29     8    10    1
@<TRIPOS>MOLECULE
*****
 27 29 0 0 0
SMALL
GASTEIGER

@<TRIPOS>ATOM
      1 C           4.0738   -1.4744   21.5583 C.3     1  UNL1        0.0425
      2 C           3.1940   -0.5753   22.3752 C.3     1  UNL1        0.0078
      3 C           3.2166   -0.6624   23.8725 C.3     1  UNL1        0.0219
      4 C           4.1190   -1.6488   24.5528 C.3     1  UNL1        0.0950
      5 N           4.9987   -2.5479   23.7359 N.am    1  UNL1       -0.2636
      6 C           5.9011   -3.5343   24.4162 C.2     1  UNL1        0.3077
      7 O           6.7809   -4.4334   23.5992 O.2     1  UNL1       -0.2522
      8 N           5.9237   -3.6214   25.9135 N.am    1  UNL1       -0.2681
      9 C           4.9762   -2.4608   22.2386 C.3     1  UNL1        0.0992
     10 H           5.3462   -3.0313   26.4497 H       1  UNL1        0.1564
     11 C           6.8261   -4.6078   26.5938 C.ar    1  UNL1        0.0516
     12 C           6.5748   -6.0794   26.4470 C.ar    1  UNL1        0.0156
     13 C           7.4771   -7.0657   27.1272 C.ar    1  UNL1        0.0127
     14 C           8.6308   -6.5807   27.9542 C.ar    1  UNL1        0.0578
     15 CL          9.5331   -7.5671   28.6345 Cl      1  UNL1       -0.0822
     16 C           8.8820   -5.1092   28.1010 C.ar    1  UNL1        0.0127
     17 C           7.9796   -4.1227   27.4208 C.ar    1  UNL1        0.0156
     18 C           3.3951   -0.7079   20.4619 C.ar    1  UNL1       -0.0208
     19 C           1.9006   -0.7403   20.3382 C.ar    1  UNL1       -0.0042
     20 C           1.2220    0.0262   19.2419 C.ar    1  UNL1       -0.0003
     21 C           2.0379    0.8251   18.2693 C.ar    1  UNL1       -0.0000
     22 C           3.5324    0.8575   18.3929 C.ar    1  UNL1       -0.0003
     23 C           4.2110    0.0910   19.4892 C.ar    1  UNL1       -0.0042
     24 C           4.7179   -2.1074   20.3605 C.3     1  UNL1        0.0474
     25 O           5.4067   -4.6107   20.2655 O.co2   1  UNL1       -0.5492
     26 C           4.4013   -3.5291   20.0023 C.2     1  UNL1        0.0507
     27 O           3.0791   -3.8694   19.3809 O.co2   1  UNL1       -0.5492
@<TRIPOS>UNITY_ATOM_ATTR
25 1
charge -1
@<TRIPOS>BOND
     1    25    26   ar
     2    26    27   ar
     3    26    24    1
     4    24     1    1
     5     1    18    1
     6    18    19   ar
     7    19    20   ar
     8    20    21   ar
     9    21    22   ar
    10    22    23   ar
    11     1     2    1
    12     2     3    1
    13     3     4    1
    14     4     5    1
    15     5     6   am
    16     6     7    2
    17     6     8   am
    18     8    11    1
    19    11    12   ar
    20    12    13   ar
    21    13    14   ar
    22    14    15    1
    23    14    16   ar
    24    16    17   ar
    25     5     9    1
    26     9     1    1
    27    23    18   ar
    28    17    11   ar
    29     8    10    1
@<TRIPOS>MOLECULE
*****
 27 29 0 0 0
SMALL
GASTEIGER

@<TRIPOS>ATOM
      1 C         -12.3860   -4.0786   18.2908 C.3     1  UNL1        0.0425
      2 C         -11.0019   -3.5009   18.2669 C.3     1  UNL1        0.0078
      3 C         -10.8080   -2.0152   18.3383 C.3     1  UNL1        0.0219
      4 C         -11.9982   -1.1072   18.4337 C.3     1  UNL1        0.0950
      5 N         -13.3823   -1.6849   18.4576 N.am    1  UNL1       -0.2636
      6 C         -14.5725   -0.7770   18.5530 C.2     1  UNL1        0.3077
      7 O         -15.9565   -1.3548   18.5770 O.2     1  UNL1       -0.2522
      8 N         -14.3786    0.7087   18.6245 N.am    1  UNL1       -0.2681
      9 C         -13.5762   -3.1706   18.3862 C.3     1  UNL1        0.0992
     10 H         -13.4702    1.0879   18.6087 H       1  UNL1        0.1564
     11 C         -15.5688    1.6166   18.7198 C.ar    1  UNL1        0.0516
     12 C         -16.2074    1.8785   20.0517 C.ar    1  UNL1        0.0156
     13 C         -17.3976    2.7863   20.1471 C.ar    1  UNL1        0.0127
     14 C         -17.9492    3.4323   18.9108 C.ar    1  UNL1        0.0578
     15 CL        -19.1395    4.3402   19.0063 Cl      1  UNL1       -0.0822
     16 C         -17.3106    3.1704   17.5790 C.ar    1  UNL1        0.0127
     17 C         -16.1204    2.2626   17.4836 C.ar    1  UNL1        0.0156
     18 C         -11.5791   -5.3393   18.1918 C.ar    1  UNL1       -0.0208
     19 C         -10.4272   -5.5678   19.1249 C.ar    1  UNL1       -0.0042
     20 C          -9.6204   -6.8284   19.0259 C.ar    1  UNL1       -0.0003
     21 C          -9.9657   -7.8606   17.9937 C.ar    1  UNL1       -0.0000
     22 C         -11.1176   -7.6322   17.0606 C.ar    1  UNL1       -0.0003
     23 C         -11.9244   -6.3715   17.1597 C.ar    1  UNL1       -0.0042
     24 C         -13.4899   -5.0942   18.2804 C.3     1  UNL1        0.0474
     25 O         -13.6377   -5.2212   20.8711 O.co2   1  UNL1       -0.5492
     26 C         -14.2875   -5.3477   19.5251 C.2     1  UNL1        0.0507
     27 O         -15.7351   -5.7278   19.4239 O.co2   1  UNL1       -0.5492
@<TRIPOS>UNITY_ATOM_ATTR
25 1
charge -1
@<TRIPOS>BOND
     1    25    26   ar
     2    26    27   ar
     3    26    24    1
     4    24     1    1
     5     1    18    1
     6    18    19   ar
     7    19    20   ar
     8    20    21   ar
     9    21    22   ar
    10    22    23   ar
    11     1     2    1
    12     2     3    1
    13     3     4    1
    14     4     5    1
    15     5     6   am
    16     6     7    2
    17     6     8   am
    18     8    11    1
    19    11    12   ar
    20    12    13   ar
    21    13    14   ar
    22    14    15    1
    23    14    16   ar
    24    16    17   ar
    25     5     9    1
    26     9     1    1
    27    23    18   ar
    28    17    11   ar
    29     8    10    1
@<TRIPOS>MOLECULE
*****
 27 29 0 0 0
SMALL
GASTEIGER

@<TRIPOS>ATOM
      1 C           3.6264   -1.3859   21.6343 C.3     1  UNL1        0.0425
      2 C           3.7732   -2.3480   20.4929 C.3     1  UNL1        0.0078
      3 C           4.5901   -3.5945   20.6631 C.3     1  UNL1        0.0219
      4 C           5.2601   -3.8789   21.9747 C.3     1  UNL1        0.0950
      5 N           5.1132   -2.9168   23.1161 N.am    1  UNL1       -0.2636
      6 C           5.7833   -3.2012   24.4277 C.2     1  UNL1        0.3077
      7 O           5.6363   -2.2390   25.5690 O.2     1  UNL1       -0.2522
      8 N           6.6001   -4.4477   24.5978 N.am    1  UNL1       -0.2681
      9 C           4.2964   -1.6703   22.9459 C.3     1  UNL1        0.0992
     10 H           6.6965   -5.0792   23.8487 H       1  UNL1        0.1564
     11 C           7.2700   -4.7320   25.9094 C.ar    1  UNL1        0.0516
     12 C           8.6015   -4.1152   26.2207 C.ar    1  UNL1        0.0156
     13 C           9.2715   -4.3994   27.5322 C.ar    1  UNL1        0.0127
     14 C           8.6101   -5.3005   28.5326 C.ar    1  UNL1        0.0578
     15 CL          9.2802   -5.5848   29.8442 Cl      1  UNL1       -0.0822
     16 C           7.2787   -5.9173   28.2213 C.ar    1  UNL1        0.0127
     17 C           6.6087   -5.6330   26.9097 C.ar    1  UNL1        0.0156
     18 C           2.8065   -0.6825   20.5936 C.ar    1  UNL1       -0.0208
     19 C           3.4153   -0.3356   19.2673 C.ar    1  UNL1       -0.0042
     20 C           2.5954    0.3678   18.2267 C.ar    1  UNL1       -0.0003
     21 C           1.1666    0.7243   18.5123 C.ar    1  UNL1       -0.0000
     22 C           0.5578    0.3774   19.8385 C.ar    1  UNL1       -0.0003
     23 C           1.3777   -0.3260   20.8792 C.ar    1  UNL1       -0.0042
     24 C           3.1948   -0.1795   22.4143 C.3     1  UNL1        0.0474
     25 O           5.2383    1.3201   21.8440 O.co2   1  UNL1       -0.5492
     26 C           4.2061    0.8491   22.8253 C.2     1  UNL1        0.0507
     27 O           4.1854    1.4069   24.2176 O.co2   1  UNL1       -0.5492
@<TRIPOS>UNITY_ATOM_ATTR
25 1
charge -1
@<TRIPOS>BOND
     1    25    26   ar
     2    26    27   ar
     3    26    24    1
     4    24     1    1
     5     1    18    1
     6    18    19   ar
     7    19    20   ar
     8    20    21   ar
     9    21    22   ar
    10    22    23   ar
    11     1     2    1
    12     2     3    1
    13     3     4    1
    14     4     5    1
    15     5     6   am
    16     6     7    2
    17     6     8   am
    18     8    11    1
    19    11    12   ar
    20    12    13   ar
    21    13    14   ar
    22    14    15    1
    23    14    16   ar
    24    16    17   ar
    25     5     9    1
    26     9     1    1
    27    23    18   ar
    28    17    11   ar
    29     8    10    1
@<TRIPOS>MOLECULE
*****
 27 29 0 0 0
SMALL
GASTEIGER

@<TRIPOS>ATOM
      1 C           2.8486   -1.0063   20.8876 C.3     1  UNL1        0.0425
      2 C           3.8346   -1.3600   21.9611 C.3     1  UNL1        0.0078
      3 C           3.7269   -0.7267   23.3166 C.3     1  UNL1        0.0219
      4 C           2.6331    0.2604   23.5985 C.3     1  UNL1        0.0950
      5 N           1.6471    0.6140   22.5249 N.am    1  UNL1       -0.2636
      6 C           0.5533    1.6011   22.8068 C.2     1  UNL1        0.3077
      7 O          -0.4327    1.9547   21.7332 O.2     1  UNL1       -0.2522
      8 N           0.4456    2.2344   24.1623 N.am    1  UNL1       -0.2681
      9 C           1.7548   -0.0193   21.1695 C.3     1  UNL1        0.0992
     10 H           1.0928    2.0023   24.8669 H       1  UNL1        0.1564
     11 C          -0.6482    3.2214   24.4441 C.ar    1  UNL1        0.0516
     12 C          -1.7685    2.8547   25.3718 C.ar    1  UNL1        0.0156
     13 C          -2.8623    3.8416   25.6536 C.ar    1  UNL1        0.0127
     14 C          -2.8359    5.1953   25.0078 C.ar    1  UNL1        0.0578
     15 CL         -3.9298    6.1822   25.2896 Cl      1  UNL1       -0.0822
     16 C          -1.7157    5.5619   24.0801 C.ar    1  UNL1        0.0127
     17 C          -0.6218    4.5749   23.7983 C.ar    1  UNL1        0.0156
     18 C           3.7030   -1.9891   20.1430 C.ar    1  UNL1       -0.0208
     19 C           3.1109   -3.2770   19.6526 C.ar    1  UNL1       -0.0042
     20 C           3.9653   -4.2597   18.9081 C.ar    1  UNL1       -0.0003
     21 C           5.4117   -3.9544   18.6539 C.ar    1  UNL1       -0.0000
     22 C           6.0038   -2.6664   19.1443 C.ar    1  UNL1       -0.0003
     23 C           5.1494   -1.6837   19.8889 C.ar    1  UNL1       -0.0042
     24 C           2.1592   -0.9939   19.5554 C.3     1  UNL1        0.0474
     25 O           3.3639    1.0454   18.4877 O.co2   1  UNL1       -0.5492
     26 C           2.1067    0.2703   18.7499 C.2     1  UNL1        0.0507
     27 O           0.7969    0.7595   18.2065 O.co2   1  UNL1       -0.5492
@<TRIPOS>UNITY_ATOM_ATTR
25 1
charge -1
@<TRIPOS>BOND
     1    25    26   ar
     2    26    27   ar
     3    26    24    1
     4    24     1    1
     5     1    18    1
     6    18    19   ar
     7    19    20   ar
     8    20    21   ar
     9    21    22   ar
    10    22    23   ar
    11     1     2    1
    12     2     3    1
    13     3     4    1
    14     4     5    1
    15     5     6   am
    16     6     7    2
    17     6     8   am
    18     8    11    1
    19    11    12   ar
    20    12    13   ar
    21    13    14   ar
    22    14    15    1
    23    14    16   ar
    24    16    17   ar
    25     5     9    1
    26     9     1    1
    27    23    18   ar
    28    17    11   ar
    29     8    10    1
@<TRIPOS>MOLECULE
*****
 27 29 0 0 0
SMALL
GASTEIGER

@<TRIPOS>ATOM
      1 C         -15.8952    0.2848   19.6090 C.3     1  UNL1        0.0425
      2 C         -15.1664    1.4331   18.9764 C.3     1  UNL1        0.0078
      3 C         -13.8431    1.2048   18.3080 C.3     1  UNL1        0.0219
      4 C         -13.2486   -0.1719   18.2723 C.3     1  UNL1        0.0950
      5 N         -13.9773   -1.3203   18.9049 N.am    1  UNL1       -0.2636
      6 C         -13.3827   -2.6970   18.8692 C.2     1  UNL1        0.3077
      7 O         -14.1116   -3.8452   19.5019 O.2     1  UNL1       -0.2522
      8 N         -12.0594   -2.9253   18.2008 N.am    1  UNL1       -0.2681
      9 C         -15.3006   -1.0919   19.5733 C.3     1  UNL1        0.0992
     10 H         -11.5811   -2.1716   17.7856 H       1  UNL1        0.1564
     11 C         -11.4650   -4.3020   18.1652 C.ar    1  UNL1        0.0516
     12 C         -12.0643   -5.3550   17.2806 C.ar    1  UNL1        0.0156
     13 C         -11.4699   -6.7316   17.2449 C.ar    1  UNL1        0.0127
     14 C         -10.2762   -7.0554   18.0937 C.ar    1  UNL1        0.0578
     15 CL         -9.6817   -8.4322   18.0579 Cl      1  UNL1       -0.0822
     16 C          -9.6769   -6.0025   18.9781 C.ar    1  UNL1        0.0127
     17 C         -10.2713   -4.6258   19.0138 C.ar    1  UNL1        0.0156
     18 C         -16.8591    1.3968   19.8995 C.ar    1  UNL1       -0.0208
     19 C         -17.4591    2.1830   18.7718 C.ar    1  UNL1       -0.0042
     20 C         -18.4230    3.2949   19.0623 C.ar    1  UNL1       -0.0003
     21 C         -18.7869    3.6207   20.4805 C.ar    1  UNL1       -0.0000
     22 C         -18.1869    2.8345   21.6083 C.ar    1  UNL1       -0.0003
     23 C         -17.2230    1.7225   21.3178 C.ar    1  UNL1       -0.0042
     24 C         -16.9587   -0.4774   20.3425 C.3     1  UNL1        0.0474
     25 O         -18.2962   -2.7042   20.2971 O.co2   1  UNL1       -0.5492
     26 C         -17.8193   -1.4610   19.6065 C.2     1  UNL1        0.0507
     27 O         -18.2030   -1.2014   18.1798 O.co2   1  UNL1       -0.5492
@<TRIPOS>UNITY_ATOM_ATTR
25 1
charge -1
@<TRIPOS>BOND
     1    25    26   ar
     2    26    27   ar
     3    26    24    1
     4    24     1    1
     5     1    18    1
     6    18    19   ar
     7    19    20   ar
     8    20    21   ar
     9    21    22   ar
    10    22    23   ar
    11     1     2    1
    12     2     3    1
    13     3     4    1
    14     4     5    1
    15     5     6   am
    16     6     7    2
    17     6     8   am
    18     8    11    1
    19    11    12   ar
    20    12    13   ar
    21    13    14   ar
    22    14    15    1
    23    14    16   ar
    24    16    17   ar
    25     5     9    1
    26     9     1    1
    27    23    18   ar
    28    17    11   ar
    29     8    10    1
