@<TRIPOS>MOLECULE
*****
 26 29 0 0 0
SMALL
GASTEIGER

@<TRIPOS>ATOM
      1 N          -8.8707  -14.8344   26.5552 N.pl3   1  UNL1       -0.3380
      2 C          -7.6847  -15.4125   25.8415 C.2     1  UNL1        0.1482
      3 N          -7.8779  -16.1871   24.5716 N.2     1  UNL1       -0.2484
      4 C          -6.6920  -16.7652   23.8580 C.3     1  UNL1        0.1352
      5 C          -6.8852  -17.5399   22.5880 C.3     1  UNL1        0.1690
      6 O          -5.6993  -18.1180   21.8743 O.3     1  UNL1       -0.3497
      7 C          -4.3201  -17.9214   22.4306 C.3     1  UNL1        0.1372
      8 C          -4.1269  -17.1468   23.7004 C.3     1  UNL1        0.0371
      9 C          -5.3129  -16.5687   24.4141 C.3     1  UNL1        0.0410
     10 C          -5.1197  -15.7941   25.6840 C.3     1  UNL1        0.0672
     11 S          -6.3056  -15.2160   26.3977 S.3     1  UNL1       -0.0807
     12 H          -9.7759  -14.9634   26.1902 H       1  UNL1        0.1442
     13 H          -8.7439  -14.3260   27.3887 H       1  UNL1        0.1442
     14 C          -8.0712  -16.9618   23.3017 C.ar    1  UNL1        0.0278
     15 C          -8.8896  -18.1449   23.7263 C.ar    1  UNL1        0.0021
     16 C         -10.2687  -18.3414   23.1701 C.ar    1  UNL1        0.0295
     17 C         -10.8294  -17.3548   22.1892 C.ar    1  UNL1        0.1424
     18 F         -12.2085  -17.5513   21.6330 F       1  UNL1       -0.2041
     19 C         -10.0110  -16.1716   21.7646 C.ar    1  UNL1        0.0590
     20 C          -8.6319  -15.9751   22.3208 C.ar    1  UNL1        0.1402
     21 F          -7.8134  -14.7919   21.8962 F       1  UNL1       -0.2044
     22 C          -3.1342  -18.4995   21.7169 C.2     1  UNL1        0.0293
     23 C          -1.9902  -17.7227   21.1354 C.2     1  UNL1        0.1175
     24 N          -1.0330  -18.6990   20.5185 N.2     1  UNL1       -0.1513
     25 N          -1.5854  -20.0792   20.7187 N.2     1  UNL1       -0.1698
     26 C          -2.8839  -19.9559   21.4593 C.3     1  UNL1        0.1752
@<TRIPOS>BOND
     1     1     2    1
     2     2     3    2
     3     3     4    1
     4     4    14    1
     5    14    15   ar
     6    15    16   ar
     7    16    17   ar
     8    17    18    1
     9    17    19   ar
    10    19    20   ar
    11    20    21    1
    12     4     5    1
    13     5     6    1
    14     6     7    1
    15     7    22    1
    16    22    23    2
    17    23    24    1
    18    24    25    2
    19    25    26    1
    20     7     8    1
    21     9     8    1
    22     9    10    1
    23    10    11    1
    24    11     2    1
    25     9     4    1
    26    20    14   ar
    27    26    22    1
    28     1    12    1
    29     1    13    1
@<TRIPOS>MOLECULE
*****
 26 29 0 0 0
SMALL
GASTEIGER

@<TRIPOS>ATOM
      1 N         -12.8018  -18.6271   23.9716 N.pl3   1  UNL1       -0.3380
      2 C         -11.3807  -18.9935   23.6609 C.2     1  UNL1        0.1482
      3 N         -10.6921  -18.3871   22.4744 N.2     1  UNL1       -0.2484
      4 C          -9.2711  -18.7535   22.1637 C.3     1  UNL1        0.1352
      5 C          -8.5824  -18.1470   20.9771 C.3     1  UNL1        0.1690
      6 O          -7.1614  -18.5133   20.6664 O.3     1  UNL1       -0.3497
      7 C          -6.4291  -19.4862   21.5424 C.3     1  UNL1        0.1372
      8 C          -7.1177  -20.0927   22.7290 C.3     1  UNL1        0.0371
      9 C          -8.5387  -19.7263   23.0396 C.3     1  UNL1        0.0410
     10 C          -9.2274  -20.3327   24.2261 C.3     1  UNL1        0.0672
     11 S         -10.6484  -19.9663   24.5368 S.3     1  UNL1       -0.0807
     12 H         -13.2824  -17.9886   23.3967 H       1  UNL1        0.1442
     13 H         -13.2537  -19.0252   24.7503 H       1  UNL1        0.1442
     14 C         -10.0034  -17.7806   21.2877 C.ar    1  UNL1        0.0278
     15 C          -9.9262  -16.3099   21.5723 C.ar    1  UNL1        0.0021
     16 C         -10.6586  -15.3370   20.6963 C.ar    1  UNL1        0.0295
     17 C         -11.4681  -15.8349   19.5358 C.ar    1  UNL1        0.1424
     18 F         -12.2004  -14.8621   18.6599 F       1  UNL1       -0.2041
     19 C         -11.5453  -17.3057   19.2513 C.ar    1  UNL1        0.0590
     20 C         -10.8129  -18.2785   20.1272 C.ar    1  UNL1        0.1402
     21 F         -10.8901  -19.7493   19.8427 F       1  UNL1       -0.2044
     22 C          -5.0081  -19.8526   21.2318 C.2     1  UNL1        0.0293
     23 C          -4.5414  -20.6511   20.0507 C.2     1  UNL1        0.1175
     24 N          -3.0491  -20.7768   20.1367 N.2     1  UNL1       -0.1513
     25 N          -2.5935  -20.0561   21.3708 N.2     1  UNL1       -0.1698
     26 C          -3.8042  -19.4850   22.0476 C.3     1  UNL1        0.1752
@<TRIPOS>BOND
     1     1     2    1
     2     2     3    2
     3     3     4    1
     4     4    14    1
     5    14    15   ar
     6    15    16   ar
     7    16    17   ar
     8    17    18    1
     9    17    19   ar
    10    19    20   ar
    11    20    21    1
    12     4     5    1
    13     5     6    1
    14     6     7    1
    15     7    22    1
    16    22    23    2
    17    23    24    1
    18    24    25    2
    19    25    26    1
    20     7     8    1
    21     9     8    1
    22     9    10    1
    23    10    11    1
    24    11     2    1
    25     9     4    1
    26    20    14   ar
    27    26    22    1
    28     1    12    1
    29     1    13    1
@<TRIPOS>MOLECULE
*****
 26 29 0 0 0
SMALL
GASTEIGER

@<TRIPOS>ATOM
      1 N         -12.8447  -17.3361   23.1257 N.pl3   1  UNL1       -0.3380
      2 C         -11.5926  -17.7989   22.4416 C.2     1  UNL1        0.1482
      3 N         -10.2564  -17.5563   23.0785 N.2     1  UNL1       -0.2484
      4 C          -9.0043  -18.0191   22.3944 C.3     1  UNL1        0.1352
      5 C          -7.6681  -17.7765   23.0314 C.3     1  UNL1        0.1690
      6 O          -6.4160  -18.2393   22.3473 O.3     1  UNL1       -0.3497
      7 C          -6.5001  -18.9448   21.0262 C.3     1  UNL1        0.1372
      8 C          -7.8363  -19.1874   20.3893 C.3     1  UNL1        0.0371
      9 C          -9.0884  -18.7246   21.0734 C.3     1  UNL1        0.0410
     10 C         -10.4245  -18.9672   20.4364 C.3     1  UNL1        0.0672
     11 S         -11.6767  -18.5044   21.1205 S.3     1  UNL1       -0.0807
     12 H         -12.7895  -16.8731   23.9928 H       1  UNL1        0.1442
     13 H         -13.7217  -17.4953   22.7076 H       1  UNL1        0.1442
     14 C          -8.9202  -17.3137   23.7156 C.ar    1  UNL1        0.0278
     15 C          -8.5636  -15.8576   23.7669 C.ar    1  UNL1        0.0021
     16 C          -8.4795  -15.1521   25.0880 C.ar    1  UNL1        0.0295
     17 C          -8.7520  -15.9028   26.3578 C.ar    1  UNL1        0.1424
     18 F          -8.6679  -15.1974   27.6789 F       1  UNL1       -0.2041
     19 C          -9.1086  -17.3590   26.3064 C.ar    1  UNL1        0.0590
     20 C          -9.1927  -18.0643   24.9853 C.ar    1  UNL1        0.1402
     21 F          -9.5492  -19.5205   24.9339 F       1  UNL1       -0.2044
     22 C          -5.2480  -19.4076   20.3421 C.2     1  UNL1        0.0293
     23 C          -4.8060  -20.8321   20.1815 C.2     1  UNL1        0.1175
     24 N          -3.5029  -20.8321   19.4386 N.2     1  UNL1       -0.1513
     25 N          -3.1395  -19.4077   19.1401 N.2     1  UNL1       -0.1698
     26 C          -4.2180  -18.5274   19.6985 C.3     1  UNL1        0.1752
@<TRIPOS>BOND
     1     1     2    1
     2     2     3    2
     3     3     4    1
     4     4    14    1
     5    14    15   ar
     6    15    16   ar
     7    16    17   ar
     8    17    18    1
     9    17    19   ar
    10    19    20   ar
    11    20    21    1
    12     4     5    1
    13     5     6    1
    14     6     7    1
    15     7    22    1
    16    22    23    2
    17    23    24    1
    18    24    25    2
    19    25    26    1
    20     7     8    1
    21     9     8    1
    22     9    10    1
    23    10    11    1
    24    11     2    1
    25     9     4    1
    26    20    14   ar
    27    26    22    1
    28     1    12    1
    29     1    13    1
@<TRIPOS>MOLECULE
*****
 26 29 0 0 0
SMALL
GASTEIGER

@<TRIPOS>ATOM
      1 N         -12.0205  -17.9075   21.8197 N.pl3   1  UNL1       -0.3380
      2 C         -10.6097  -18.2349   21.4292 C.2     1  UNL1        0.1482
      3 N          -9.4683  -17.7779   22.2885 N.2     1  UNL1       -0.2484
      4 C          -8.0575  -18.1053   21.8980 C.3     1  UNL1        0.1352
      5 C          -6.9162  -17.6482   22.7574 C.3     1  UNL1        0.1690
      6 O          -5.5054  -17.9756   22.3669 O.3     1  UNL1       -0.3497
      7 C          -5.2360  -18.7600   21.1170 C.3     1  UNL1        0.1372
      8 C          -6.3773  -19.2171   20.2577 C.3     1  UNL1        0.0371
      9 C          -7.7881  -18.8897   20.6482 C.3     1  UNL1        0.0410
     10 C          -8.9294  -19.3467   19.7889 C.3     1  UNL1        0.0672
     11 S         -10.3402  -19.0193   20.1794 S.3     1  UNL1       -0.0807
     12 H         -12.1973  -17.3927   22.6400 H       1  UNL1        0.1442
     13 H         -12.7696  -18.2075   21.2557 H       1  UNL1        0.1442
     14 C          -8.3270  -17.3208   23.1479 C.ar    1  UNL1        0.0278
     15 C          -8.0637  -15.8444   23.1781 C.ar    1  UNL1        0.0021
     16 C          -8.3332  -15.0600   24.4280 C.ar    1  UNL1        0.0295
     17 C          -8.8658  -15.7520   25.6476 C.ar    1  UNL1        0.1424
     18 F          -9.1353  -14.9676   26.8974 F       1  UNL1       -0.2041
     19 C          -9.1291  -17.2284   25.6173 C.ar    1  UNL1        0.0590
     20 C          -8.8596  -18.0128   24.3675 C.ar    1  UNL1        0.1402
     21 F          -9.1229  -19.4893   24.3372 F       1  UNL1       -0.2044
     22 C          -3.8252  -19.0874   20.7265 C.2     1  UNL1        0.0293
     23 C          -2.8395  -19.8621   21.5502 C.2     1  UNL1        0.1175
     24 N          -1.5575  -19.9510   20.7765 N.2     1  UNL1       -0.1513
     25 N          -1.7508  -19.2314   19.4747 N.2     1  UNL1       -0.1698
     26 C          -3.1523  -18.6976   19.4438 C.3     1  UNL1        0.1752
@<TRIPOS>BOND
     1     1     2    1
     2     2     3    2
     3     3     4    1
     4     4    14    1
     5    14    15   ar
     6    15    16   ar
     7    16    17   ar
     8    17    18    1
     9    17    19   ar
    10    19    20   ar
    11    20    21    1
    12     4     5    1
    13     5     6    1
    14     6     7    1
    15     7    22    1
    16    22    23    2
    17    23    24    1
    18    24    25    2
    19    25    26    1
    20     7     8    1
    21     9     8    1
    22     9    10    1
    23    10    11    1
    24    11     2    1
    25     9     4    1
    26    20    14   ar
    27    26    22    1
    28     1    12    1
    29     1    13    1
@<TRIPOS>MOLECULE
*****
 26 29 0 0 0
SMALL
GASTEIGER

@<TRIPOS>ATOM
      1 N         -12.1513  -17.6191   22.3723 N.pl3   1  UNL1       -0.3380
      2 C         -10.7756  -17.9929   21.9055 C.2     1  UNL1        0.1482
      3 N          -9.5751  -17.5857   22.7073 N.2     1  UNL1       -0.2484
      4 C          -8.1995  -17.9595   22.2405 C.3     1  UNL1        0.1352
      5 C          -6.9989  -17.5523   23.0424 C.3     1  UNL1        0.1690
      6 O          -5.6233  -17.9261   22.5756 O.3     1  UNL1       -0.3497
      7 C          -5.4482  -18.7071   21.3069 C.3     1  UNL1        0.1372
      8 C          -6.6487  -19.1142   20.5051 C.3     1  UNL1        0.0371
      9 C          -8.0243  -18.7404   20.9719 C.3     1  UNL1        0.0410
     10 C          -9.2248  -19.1476   20.1701 C.3     1  UNL1        0.0672
     11 S         -10.6005  -18.7738   20.6369 S.3     1  UNL1       -0.0807
     12 H         -12.2662  -17.1065   23.2049 H       1  UNL1        0.1442
     13 H         -12.9392  -17.8863   21.8460 H       1  UNL1        0.1442
     14 C          -8.3746  -17.1786   23.5092 C.ar    1  UNL1        0.0278
     15 C          -8.7894  -17.8783   24.7694 C.ar    1  UNL1        0.0021
     16 C          -8.9645  -17.0973   26.0381 C.ar    1  UNL1        0.0295
     17 C          -8.7247  -15.6166   26.0465 C.ar    1  UNL1        0.1424
     18 F          -8.8998  -14.8357   27.3151 F       1  UNL1       -0.2041
     19 C          -8.3098  -14.9169   24.7862 C.ar    1  UNL1        0.0590
     20 C          -8.1348  -15.6979   23.5176 C.ar    1  UNL1        0.1402
     21 F          -7.7199  -14.9981   22.2572 F       1  UNL1       -0.2044
     22 C          -4.0725  -19.0809   20.8401 C.2     1  UNL1        0.0293
     23 C          -3.0320  -19.7983   21.6480 C.2     1  UNL1        0.1175
     24 N          -1.8122  -19.9637   20.7906 N.2     1  UNL1       -0.1513
     25 N          -2.0990  -19.3485   19.4529 N.2     1  UNL1       -0.1698
     26 C          -3.4959  -18.8029   19.4836 C.3     1  UNL1        0.1752
@<TRIPOS>BOND
     1     1     2    1
     2     2     3    2
     3     3     4    1
     4     4    14    1
     5    14    15   ar
     6    15    16   ar
     7    16    17   ar
     8    17    18    1
     9    17    19   ar
    10    19    20   ar
    11    20    21    1
    12     4     5    1
    13     5     6    1
    14     6     7    1
    15     7    22    1
    16    22    23    2
    17    23    24    1
    18    24    25    2
    19    25    26    1
    20     7     8    1
    21     9     8    1
    22     9    10    1
    23    10    11    1
    24    11     2    1
    25     9     4    1
    26    20    14   ar
    27    26    22    1
    28     1    12    1
    29     1    13    1
@<TRIPOS>MOLECULE
*****
 26 29 0 0 0
SMALL
GASTEIGER

@<TRIPOS>ATOM
      1 N          -9.5947  -14.5886   25.4450 N.pl3   1  UNL1       -0.3380
      2 C          -8.4616  -15.3645   24.8415 C.2     1  UNL1        0.1482
      3 N          -8.7366  -16.3983   23.7901 N.2     1  UNL1       -0.2484
      4 C          -7.6035  -17.1742   23.1866 C.3     1  UNL1        0.1352
      5 C          -7.8786  -18.2080   22.1351 C.3     1  UNL1        0.1690
      6 O          -6.7455  -18.9839   21.5317 O.3     1  UNL1       -0.3497
      7 C          -5.3374  -18.7259   21.9798 C.3     1  UNL1        0.1372
      8 C          -5.0624  -17.6921   23.0313 C.3     1  UNL1        0.0371
      9 C          -6.1955  -16.9163   23.6347 C.3     1  UNL1        0.0410
     10 C          -5.9205  -15.8825   24.6861 C.3     1  UNL1        0.0672
     11 S          -7.0536  -15.1066   25.2896 S.3     1  UNL1       -0.0807
     12 H         -10.5189  -14.7579   25.1509 H       1  UNL1        0.1442
     13 H          -9.4142  -13.9101   26.1351 H       1  UNL1        0.1442
     14 C          -9.0117  -17.4321   22.7386 C.ar    1  UNL1        0.0278
     15 C          -9.6060  -16.6186   21.6273 C.ar    1  UNL1        0.0021
     16 C         -11.0142  -16.8766   21.1792 C.ar    1  UNL1        0.0295
     17 C         -11.8279  -17.9480   21.8424 C.ar    1  UNL1        0.1424
     18 F         -13.2359  -18.2060   21.3944 F       1  UNL1       -0.2041
     19 C         -11.2334  -18.7616   22.9537 C.ar    1  UNL1        0.0590
     20 C          -9.8254  -18.5036   23.4018 C.ar    1  UNL1        0.1402
     21 F          -9.2309  -19.3171   24.5131 F       1  UNL1       -0.2044
     22 C          -4.2043  -19.5018   21.3764 C.2     1  UNL1        0.0293
     23 C          -4.2882  -20.3925   20.1723 C.2     1  UNL1        0.1175
     24 N          -2.9241  -20.9644   19.9229 N.2     1  UNL1       -0.1513
     25 N          -1.9972  -20.4272   20.9727 N.2     1  UNL1       -0.1698
     26 C          -2.7884  -19.5233   21.8710 C.3     1  UNL1        0.1752
@<TRIPOS>BOND
     1     1     2    1
     2     2     3    2
     3     3     4    1
     4     4    14    1
     5    14    15   ar
     6    15    16   ar
     7    16    17   ar
     8    17    18    1
     9    17    19   ar
    10    19    20   ar
    11    20    21    1
    12     4     5    1
    13     5     6    1
    14     6     7    1
    15     7    22    1
    16    22    23    2
    17    23    24    1
    18    24    25    2
    19    25    26    1
    20     7     8    1
    21     9     8    1
    22     9    10    1
    23    10    11    1
    24    11     2    1
    25     9     4    1
    26    20    14   ar
    27    26    22    1
    28     1    12    1
    29     1    13    1
@<TRIPOS>MOLECULE
*****
 26 29 0 0 0
SMALL
GASTEIGER

@<TRIPOS>ATOM
      1 N         -11.6452  -19.4937   20.4571 N.pl3   1  UNL1       -0.3380
      2 C         -10.1562  -19.4321   20.2866 C.2     1  UNL1        0.1482
      3 N          -9.2795  -19.1118   21.4608 N.2     1  UNL1       -0.2484
      4 C          -7.7905  -19.0501   21.2903 C.3     1  UNL1        0.1352
      5 C          -6.9138  -18.7298   22.4646 C.3     1  UNL1        0.1690
      6 O          -5.4248  -18.6682   22.2942 O.3     1  UNL1       -0.3497
      7 C          -4.8125  -18.9268   20.9494 C.3     1  UNL1        0.1372
      8 C          -5.6892  -19.2471   19.7752 C.3     1  UNL1        0.0371
      9 C          -7.1782  -19.3088   19.9457 C.3     1  UNL1        0.0410
     10 C          -8.0549  -19.6291   18.7715 C.3     1  UNL1        0.0672
     11 S          -9.5439  -19.6907   18.9420 S.3     1  UNL1       -0.0807
     12 H         -12.0471  -19.3240   21.3397 H       1  UNL1        0.1442
     13 H         -12.2207  -19.7039   19.6864 H       1  UNL1        0.1442
     14 C          -8.4028  -18.7915   22.6351 C.ar    1  UNL1        0.0278
     15 C          -8.9330  -19.9337   23.4500 C.ar    1  UNL1        0.0021
     16 C          -9.5453  -19.6751   24.7948 C.ar    1  UNL1        0.0295
     17 C          -9.6273  -18.2741   25.3245 C.ar    1  UNL1        0.1424
     18 F         -10.2396  -18.0155   26.6692 F       1  UNL1       -0.2041
     19 C          -9.0971  -17.1319   24.5095 C.ar    1  UNL1        0.0590
     20 C          -8.4849  -17.3906   23.1649 C.ar    1  UNL1        0.1402
     21 F          -7.9547  -16.2483   22.3499 F       1  UNL1       -0.2044
     22 C          -3.3235  -18.8652   20.7789 C.2     1  UNL1        0.0293
     23 C          -2.3169  -18.6878   21.8769 C.2     1  UNL1        0.1175
     24 N          -0.9510  -18.6831   21.2571 N.2     1  UNL1       -0.1513
     25 N          -1.1133  -18.8576   19.7761 N.2     1  UNL1       -0.1698
     26 C          -2.5796  -18.9701   19.4806 C.3     1  UNL1        0.1752
@<TRIPOS>BOND
     1     1     2    1
     2     2     3    2
     3     3     4    1
     4     4    14    1
     5    14    15   ar
     6    15    16   ar
     7    16    17   ar
     8    17    18    1
     9    17    19   ar
    10    19    20   ar
    11    20    21    1
    12     4     5    1
    13     5     6    1
    14     6     7    1
    15     7    22    1
    16    22    23    2
    17    23    24    1
    18    24    25    2
    19    25    26    1
    20     7     8    1
    21     9     8    1
    22     9    10    1
    23    10    11    1
    24    11     2    1
    25     9     4    1
    26    20    14   ar
    27    26    22    1
    28     1    12    1
    29     1    13    1
@<TRIPOS>MOLECULE
*****
 26 29 0 0 0
SMALL
GASTEIGER

@<TRIPOS>ATOM
      1 N          -9.0893  -20.2879   18.6596 N.pl3   1  UNL1       -0.3380
      2 C          -8.4168  -19.5253   19.7625 C.2     1  UNL1        0.1482
      3 N          -9.2395  -18.7498   20.7481 N.2     1  UNL1       -0.2484
      4 C          -8.5670  -17.9873   21.8509 C.3     1  UNL1        0.1352
      5 C          -9.3899  -17.2118   22.8366 C.3     1  UNL1        0.1690
      6 O          -8.7173  -16.4492   23.9395 O.3     1  UNL1       -0.3497
      7 C          -7.2219  -16.4622   24.0566 C.3     1  UNL1        0.1372
      8 C          -6.3991  -17.2377   23.0709 C.3     1  UNL1        0.0371
      9 C          -7.0717  -18.0003   21.9681 C.3     1  UNL1        0.0410
     10 C          -6.2489  -18.7758   20.9824 C.3     1  UNL1        0.0672
     11 S          -6.9214  -19.5383   19.8796 S.3     1  UNL1       -0.0807
     12 H         -10.0708  -20.2794   18.5828 H       1  UNL1        0.1442
     13 H          -8.5493  -20.7969   18.0127 H       1  UNL1        0.1442
     14 C         -10.0624  -17.9743   21.7338 C.ar    1  UNL1        0.0278
     15 C         -10.7409  -16.9224   20.9073 C.ar    1  UNL1        0.0021
     16 C         -12.2363  -16.9094   20.7902 C.ar    1  UNL1        0.0295
     17 C         -13.0532  -17.9483   21.4996 C.ar    1  UNL1        0.1424
     18 F         -14.5485  -17.9354   21.3825 F       1  UNL1       -0.2041
     19 C         -12.3746  -19.0003   22.3261 C.ar    1  UNL1        0.0590
     20 C         -10.8793  -19.0133   22.4432 C.ar    1  UNL1        0.1402
     21 F         -10.2008  -20.0652   23.2697 F       1  UNL1       -0.2044
     22 C          -6.5494  -15.6997   25.1594 C.2     1  UNL1        0.0293
     23 C          -7.0799  -15.5075   26.5493 C.2     1  UNL1        0.1175
     24 N          -6.0866  -14.6845   27.3148 N.2     1  UNL1       -0.1513
     25 N          -4.9422  -14.3680   26.3981 N.2     1  UNL1       -0.1698
     26 C          -5.2283  -14.9954   25.0660 C.3     1  UNL1        0.1752
@<TRIPOS>BOND
     1     1     2    1
     2     2     3    2
     3     3     4    1
     4     4    14    1
     5    14    15   ar
     6    15    16   ar
     7    16    17   ar
     8    17    18    1
     9    17    19   ar
    10    19    20   ar
    11    20    21    1
    12     4     5    1
    13     5     6    1
    14     6     7    1
    15     7    22    1
    16    22    23    2
    17    23    24    1
    18    24    25    2
    19    25    26    1
    20     7     8    1
    21     9     8    1
    22     9    10    1
    23    10    11    1
    24    11     2    1
    25     9     4    1
    26    20    14   ar
    27    26    22    1
    28     1    12    1
    29     1    13    1
@<TRIPOS>MOLECULE
*****
 26 29 0 0 0
SMALL
GASTEIGER

@<TRIPOS>ATOM
      1 N         -10.7189  -20.0585   19.8042 N.pl3   1  UNL1       -0.3380
      2 C          -9.7980  -19.2708   20.6881 C.2     1  UNL1        0.1482
      3 N         -10.3333  -18.5928   21.9144 N.2     1  UNL1       -0.2484
      4 C          -9.4123  -17.8051   22.7984 C.3     1  UNL1        0.1352
      5 C          -9.9477  -17.1271   24.0247 C.3     1  UNL1        0.1690
      6 O          -9.0267  -16.3394   24.9086 O.3     1  UNL1       -0.3497
      7 C          -7.5704  -16.2297   24.5663 C.3     1  UNL1        0.1372
      8 C          -7.0351  -16.9076   23.3400 C.3     1  UNL1        0.0371
      9 C          -7.9561  -17.6953   22.4560 C.3     1  UNL1        0.0410
     10 C          -7.4208  -18.3733   21.2298 C.3     1  UNL1        0.0672
     11 S          -8.3417  -19.1610   20.3458 S.3     1  UNL1       -0.0807
     12 H         -11.6747  -20.1305   20.0289 H       1  UNL1        0.1442
     13 H         -10.3676  -20.5034   18.9993 H       1  UNL1        0.1442
     14 C         -10.8686  -17.9148   23.1408 C.ar    1  UNL1        0.0278
     15 C         -11.3258  -18.9138   24.1621 C.ar    1  UNL1        0.0021
     16 C         -12.7821  -19.0235   24.5045 C.ar    1  UNL1        0.0295
     17 C         -13.7812  -18.1343   23.8255 C.ar    1  UNL1        0.1424
     18 F         -15.2375  -18.2440   24.1678 F       1  UNL1       -0.2041
     19 C         -13.3240  -17.1353   22.8041 C.ar    1  UNL1        0.0590
     20 C         -11.8678  -17.0256   22.4618 C.ar    1  UNL1        0.1402
     21 F         -11.4106  -16.0267   21.4404 F       1  UNL1       -0.2044
     22 C          -6.6494  -15.4420   25.4502 C.2     1  UNL1        0.0293
     23 C          -5.2916  -14.9277   25.0734 C.2     1  UNL1        0.1175
     24 N          -4.7276  -14.1981   26.2565 N.2     1  UNL1       -0.1513
     25 N          -5.7368  -14.2615   27.3644 N.2     1  UNL1       -0.1698
     26 C          -6.9246  -15.0302   26.8661 C.3     1  UNL1        0.1752
@<TRIPOS>BOND
     1     1     2    1
     2     2     3    2
     3     3     4    1
     4     4    14    1
     5    14    15   ar
     6    15    16   ar
     7    16    17   ar
     8    17    18    1
     9    17    19   ar
    10    19    20   ar
    11    20    21    1
    12     4     5    1
    13     5     6    1
    14     6     7    1
    15     7    22    1
    16    22    23    2
    17    23    24    1
    18    24    25    2
    19    25    26    1
    20     7     8    1
    21     9     8    1
    22     9    10    1
    23    10    11    1
    24    11     2    1
    25     9     4    1
    26    20    14   ar
    27    26    22    1
    28     1    12    1
    29     1    13    1
