@<TRIPOS>MOLECULE
*****
 24 27 0 0 0
SMALL
GASTEIGER

@<TRIPOS>ATOM
      1 C         -11.0789   -5.4522   18.9970 C.ar    1  UNL1        0.1418
      2 C         -11.4143   -4.0156   19.2678 C.ar    1  UNL1        0.0372
      3 C         -12.8467   -3.5940   19.4116 C.ar    1  UNL1        0.0095
      4 C         -13.9436   -4.6091   19.2846 C.ar    1  UNL1        0.0768
      5 C         -15.3759   -4.1875   19.4284 C.ar    1  UNL1        0.2350
      6 O         -15.7113   -2.7509   19.6992 O.2     1  UNL1       -0.2831
      7 C         -16.4729   -5.2027   19.3014 C.ar    1  UNL1        0.2081
      8 O         -17.9052   -4.7811   19.4452 O.3     1  UNL1       -0.5007
      9 C         -16.1375   -6.6394   19.0305 C.ar    1  UNL1        0.1819
     10 O         -14.7052   -7.0610   18.8867 O.2     1  UNL1       -0.4501
     11 C         -13.6082   -6.0458   19.0138 C.ar    1  UNL1        0.1516
     12 C         -12.1759   -6.4674   18.8700 C.ar    1  UNL1        0.0744
     13 H         -18.1147   -3.8836   19.6144 H       1  UNL1        0.2924
     14 C         -17.2345   -7.6546   18.9035 C.ar    1  UNL1        0.0409
     15 C         -17.9504   -8.1424   20.1280 C.ar    1  UNL1        0.0065
     16 C         -19.0474   -9.1576   20.0009 C.ar    1  UNL1        0.0403
     17 C         -19.4284   -9.6849   18.6494 C.ar    1  UNL1        0.1764
     18 C         -18.7125   -9.1970   17.4249 C.ar    1  UNL1        0.1765
     19 C         -17.6156   -8.1819   17.5519 C.ar    1  UNL1        0.0433
     20 O         -19.3028   -9.8933   16.2346 O.3     1  UNL1       -0.4346
     21 C         -20.3836  -10.8114   16.7234 C.3     1  UNL1        0.4294
     22 O         -20.4612  -10.6826   18.2159 O.3     1  UNL1       -0.4346
     23 C          -9.2726   -7.3196   18.9936 C.3     1  UNL1        0.2525
     24 O          -9.6466   -5.8738   18.8532 O.3     1  UNL1       -0.4713
@<TRIPOS>BOND
     1    23    24    1
     2    24     1    1
     3     1     2   ar
     4     2     3   ar
     5     3     4   ar
     6     4     5   ar
     7     5     6    2
     8     5     7   ar
     9     7     8    1
    10     7     9   ar
    11     9    14    1
    12    14    15   ar
    13    15    16   ar
    14    16    17   ar
    15    17    18   ar
    16    18    19   ar
    17    18    20    1
    18    20    21    1
    19    21    22    1
    20     9    10   ar
    21    10    11   ar
    22    11    12   ar
    23    12     1   ar
    24    11     4   ar
    25    19    14   ar
    26    22    17    1
    27     8    13    1
@<TRIPOS>MOLECULE
*****
 24 27 0 0 0
SMALL
GASTEIGER

@<TRIPOS>ATOM
      1 C           0.8736    0.6691   20.4065 C.ar    1  UNL1        0.1418
      2 C           0.8157    0.8671   18.9208 C.ar    1  UNL1        0.0372
      3 C           1.8823    0.2812   18.0439 C.ar    1  UNL1        0.0095
      4 C           3.0070   -0.5027   18.6526 C.ar    1  UNL1        0.0768
      5 C           4.0736   -1.0886   17.7757 C.ar    1  UNL1        0.2350
      6 O           4.0157   -0.8906   16.2900 O.2     1  UNL1       -0.2831
      7 C           5.1983   -1.8724   18.3845 C.ar    1  UNL1        0.2081
      8 O           6.2649   -2.4583   17.5076 O.3     1  UNL1       -0.5007
      9 C           5.2563   -2.0705   19.8703 C.ar    1  UNL1        0.1819
     10 O           4.1896   -1.4846   20.7472 O.2     1  UNL1       -0.4501
     11 C           3.0649   -0.7007   20.1384 C.ar    1  UNL1        0.1516
     12 C           1.9983   -0.1148   21.0153 C.ar    1  UNL1        0.0744
     13 H           6.2287   -2.3346   16.5795 H       1  UNL1        0.2924
     14 C           6.3809   -2.8544   20.4791 C.ar    1  UNL1        0.0409
     15 C           7.7538   -2.7862   19.8787 C.ar    1  UNL1        0.0065
     16 C           8.8785   -3.5701   20.4876 C.ar    1  UNL1        0.0403
     17 C           8.6302   -4.4222   21.6968 C.ar    1  UNL1        0.1764
     18 C           7.2573   -4.4904   22.2972 C.ar    1  UNL1        0.1765
     19 C           6.1327   -3.7065   21.6884 C.ar    1  UNL1        0.0433
     20 O           7.3143   -5.4098   23.4810 O.3     1  UNL1       -0.4346
     21 C           8.7224   -5.9098   23.6123 C.3     1  UNL1        0.4294
     22 O           9.5357   -5.2995   22.5096 O.3     1  UNL1       -0.4346
     23 C          -0.5874    2.6935   21.1254 C.3     1  UNL1        0.2525
     24 O          -0.1930    1.2550   21.2834 O.3     1  UNL1       -0.4713
@<TRIPOS>BOND
     1    23    24    1
     2    24     1    1
     3     1     2   ar
     4     2     3   ar
     5     3     4   ar
     6     4     5   ar
     7     5     6    2
     8     5     7   ar
     9     7     8    1
    10     7     9   ar
    11     9    14    1
    12    14    15   ar
    13    15    16   ar
    14    16    17   ar
    15    17    18   ar
    16    18    19   ar
    17    18    20    1
    18    20    21    1
    19    21    22    1
    20     9    10   ar
    21    10    11   ar
    22    11    12   ar
    23    12     1   ar
    24    11     4   ar
    25    19    14   ar
    26    22    17    1
    27     8    13    1
@<TRIPOS>MOLECULE
*****
 24 27 0 0 0
SMALL
GASTEIGER

@<TRIPOS>ATOM
      1 C         -11.0095   -5.7323   18.8575 C.ar    1  UNL1        0.1418
      2 C          -9.8975   -4.8383   18.3950 C.ar    1  UNL1        0.0372
      3 C         -10.1626   -3.3852   18.1337 C.ar    1  UNL1        0.0095
      4 C         -11.5399   -2.8262   18.3350 C.ar    1  UNL1        0.0768
      5 C         -11.8050   -1.3731   18.0737 C.ar    1  UNL1        0.2350
      6 O         -10.6929   -0.4791   17.6112 O.2     1  UNL1       -0.2831
      7 C         -13.1823   -0.8140   18.2749 C.ar    1  UNL1        0.2081
      8 O         -13.4474    0.6391   18.0137 O.3     1  UNL1       -0.5007
      9 C         -14.2945   -1.7080   18.7375 C.ar    1  UNL1        0.1819
     10 O         -14.0293   -3.1611   18.9988 O.2     1  UNL1       -0.4501
     11 C         -12.6520   -3.7201   18.7975 C.ar    1  UNL1        0.1516
     12 C         -12.3868   -5.1732   19.0588 C.ar    1  UNL1        0.0744
     13 H         -12.7527    1.1975   17.7247 H       1  UNL1        0.2924
     14 C         -15.6717   -1.1489   18.9387 C.ar    1  UNL1        0.0409
     15 C         -16.7139   -1.3207   17.8737 C.ar    1  UNL1        0.0065
     16 C         -18.0912   -0.7616   18.0750 C.ar    1  UNL1        0.0403
     17 C         -18.4263   -0.0307   19.3413 C.ar    1  UNL1        0.1764
     18 C         -17.3841    0.1411   20.4063 C.ar    1  UNL1        0.1765
     19 C         -16.0068   -0.4180   20.2051 C.ar    1  UNL1        0.0433
     20 O         -18.0023    0.9025   21.5412 O.3     1  UNL1       -0.4346
     21 C         -19.4265    1.2013   21.1777 C.3     1  UNL1        0.4294
     22 O         -19.6886    0.6246   19.8180 O.3     1  UNL1       -0.4346
     23 C          -9.4135   -7.7802   18.7656 C.3     1  UNL1        0.2525
     24 O         -10.7444   -7.1854   19.1188 O.3     1  UNL1       -0.4713
@<TRIPOS>BOND
     1    23    24    1
     2    24     1    1
     3     1     2   ar
     4     2     3   ar
     5     3     4   ar
     6     4     5   ar
     7     5     6    2
     8     5     7   ar
     9     7     8    1
    10     7     9   ar
    11     9    14    1
    12    14    15   ar
    13    15    16   ar
    14    16    17   ar
    15    17    18   ar
    16    18    19   ar
    17    18    20    1
    18    20    21    1
    19    21    22    1
    20     9    10   ar
    21    10    11   ar
    22    11    12   ar
    23    12     1   ar
    24    11     4   ar
    25    19    14   ar
    26    22    17    1
    27     8    13    1
@<TRIPOS>MOLECULE
*****
 24 27 0 0 0
SMALL
GASTEIGER

@<TRIPOS>ATOM
      1 C         -16.9854   -8.5886   19.3086 C.ar    1  UNL1        0.1418
      2 C         -16.0717   -9.5548   18.6147 C.ar    1  UNL1        0.0372
      3 C         -14.8049   -9.0643   17.9786 C.ar    1  UNL1        0.0095
      4 C         -14.4519   -7.6076   18.0362 C.ar    1  UNL1        0.0768
      5 C         -13.1851   -7.1171   17.4001 C.ar    1  UNL1        0.2350
      6 O         -12.2714   -8.0833   16.7062 O.2     1  UNL1       -0.2831
      7 C         -12.8321   -5.6604   17.4577 C.ar    1  UNL1        0.2081
      8 O         -11.5653   -5.1699   16.8216 O.3     1  UNL1       -0.5007
      9 C         -13.7459   -4.6941   18.1516 C.ar    1  UNL1        0.1819
     10 O         -15.0127   -5.1846   18.7878 O.2     1  UNL1       -0.4501
     11 C         -15.3656   -6.6414   18.7301 C.ar    1  UNL1        0.1516
     12 C         -16.6324   -7.1319   19.3662 C.ar    1  UNL1        0.0744
     13 H         -10.9945   -5.7735   16.3881 H       1  UNL1        0.2924
     14 C         -13.3929   -3.2374   18.2093 C.ar    1  UNL1        0.0409
     15 C         -12.1813   -2.7889   18.9714 C.ar    1  UNL1        0.0065
     16 C         -11.8283   -1.3321   19.0290 C.ar    1  UNL1        0.0403
     17 C         -12.6869   -0.3239   18.3246 C.ar    1  UNL1        0.1764
     18 C         -13.8985   -0.7724   17.5625 C.ar    1  UNL1        0.1765
     19 C         -14.2515   -2.2291   17.5048 C.ar    1  UNL1        0.0433
     20 O         -14.5505    0.4425   16.9718 O.3     1  UNL1       -0.4346
     21 C         -13.7419    1.6419   17.3689 C.3     1  UNL1        0.4294
     22 O         -12.5901    1.1682   18.2049 O.3     1  UNL1       -0.4346
     23 C         -19.2452   -8.0974   20.4928 C.3     1  UNL1        0.2525
     24 O         -18.2522   -9.0791   19.9448 O.3     1  UNL1       -0.4713
@<TRIPOS>BOND
     1    23    24    1
     2    24     1    1
     3     1     2   ar
     4     2     3   ar
     5     3     4   ar
     6     4     5   ar
     7     5     6    2
     8     5     7   ar
     9     7     8    1
    10     7     9   ar
    11     9    14    1
    12    14    15   ar
    13    15    16   ar
    14    16    17   ar
    15    17    18   ar
    16    18    19   ar
    17    18    20    1
    18    20    21    1
    19    21    22    1
    20     9    10   ar
    21    10    11   ar
    22    11    12   ar
    23    12     1   ar
    24    11     4   ar
    25    19    14   ar
    26    22    17    1
    27     8    13    1
@<TRIPOS>MOLECULE
*****
 24 27 0 0 0
SMALL
GASTEIGER

@<TRIPOS>ATOM
      1 C           7.0070   -5.6238   28.8104 C.ar    1  UNL1        0.1418
      2 C           7.8782   -6.8103   28.5219 C.ar    1  UNL1        0.0372
      3 C           8.3019   -7.1048   27.1134 C.ar    1  UNL1        0.0095
      4 C           7.8544   -6.2130   25.9935 C.ar    1  UNL1        0.0768
      5 C           8.2781   -6.5076   24.5851 C.ar    1  UNL1        0.2350
      6 O           9.1493   -7.6940   24.2965 O.2     1  UNL1       -0.2831
      7 C           7.8306   -5.6157   23.4651 C.ar    1  UNL1        0.2081
      8 O           8.2542   -5.9103   22.0567 O.3     1  UNL1       -0.5007
      9 C           6.9593   -4.4292   23.7536 C.ar    1  UNL1        0.1819
     10 O           6.5356   -4.1346   25.1621 O.2     1  UNL1       -0.4501
     11 C           6.9832   -5.0265   26.2820 C.ar    1  UNL1        0.1516
     12 C           6.5595   -4.7319   27.6905 C.ar    1  UNL1        0.0744
     13 H           8.7985   -6.6515   21.8765 H       1  UNL1        0.2924
     14 C           6.5118   -3.5373   22.6337 C.ar    1  UNL1        0.0409
     15 C           7.3836   -2.4022   22.1848 C.ar    1  UNL1        0.0065
     16 C           6.9360   -1.5103   21.0648 C.ar    1  UNL1        0.0403
     17 C           5.6167   -1.7536   20.3938 C.ar    1  UNL1        0.1764
     18 C           4.7449   -2.8886   20.8428 C.ar    1  UNL1        0.1765
     19 C           5.1924   -3.7805   21.9627 C.ar    1  UNL1        0.0433
     20 O           3.5053   -2.8832   19.9981 O.3     1  UNL1       -0.4346
     21 C           3.6110   -1.7448   19.0271 C.3     1  UNL1        0.4294
     22 O           4.9159   -1.0466   19.2717 O.3     1  UNL1       -0.4346
     23 C           7.3692   -5.8835   31.3699 C.3     1  UNL1        0.2525
     24 O           6.5833   -5.3292   30.2188 O.3     1  UNL1       -0.4713
@<TRIPOS>BOND
     1    23    24    1
     2    24     1    1
     3     1     2   ar
     4     2     3   ar
     5     3     4   ar
     6     4     5   ar
     7     5     6    2
     8     5     7   ar
     9     7     8    1
    10     7     9   ar
    11     9    14    1
    12    14    15   ar
    13    15    16   ar
    14    16    17   ar
    15    17    18   ar
    16    18    19   ar
    17    18    20    1
    18    20    21    1
    19    21    22    1
    20     9    10   ar
    21    10    11   ar
    22    11    12   ar
    23    12     1   ar
    24    11     4   ar
    25    19    14   ar
    26    22    17    1
    27     8    13    1
@<TRIPOS>MOLECULE
*****
 24 27 0 0 0
SMALL
GASTEIGER

@<TRIPOS>ATOM
      1 C           2.4322   -1.0142   19.5117 C.ar    1  UNL1        0.1418
      2 C           3.1385   -0.1075   18.5478 C.ar    1  UNL1        0.0372
      3 C           2.6373    1.2889   18.3268 C.ar    1  UNL1        0.0095
      4 C           1.4298    1.7787   19.0698 C.ar    1  UNL1        0.0768
      5 C           0.9285    3.1751   18.8488 C.ar    1  UNL1        0.2350
      6 O           1.6348    4.0817   17.8849 O.2     1  UNL1       -0.2831
      7 C          -0.2790    3.6649   19.5917 C.ar    1  UNL1        0.2081
      8 O          -0.7802    5.0613   19.3708 O.3     1  UNL1       -0.5007
      9 C          -0.9853    2.7582   20.5557 C.ar    1  UNL1        0.1819
     10 O          -0.4841    1.3618   20.7767 O.2     1  UNL1       -0.4501
     11 C           0.7235    0.8720   20.0337 C.ar    1  UNL1        0.1516
     12 C           1.2247   -0.5244   20.2546 C.ar    1  UNL1        0.0744
     13 H          -0.3390    5.6276   18.7686 H       1  UNL1        0.2924
     14 C          -2.1928    3.2480   21.2986 C.ar    1  UNL1        0.0409
     15 C          -2.0709    3.6697   22.7330 C.ar    1  UNL1        0.0065
     16 C          -3.2785    4.1595   23.4759 C.ar    1  UNL1        0.0403
     17 C          -4.6079    4.2276   22.7845 C.ar    1  UNL1        0.1764
     18 C          -4.7298    3.8059   21.3502 C.ar    1  UNL1        0.1765
     19 C          -3.5223    3.3161   20.6073 C.ar    1  UNL1        0.0433
     20 O          -6.1605    3.9819   20.9353 O.3     1  UNL1       -0.4346
     21 C          -6.9228    4.5124   22.1132 C.3     1  UNL1        0.4294
     22 O          -5.9633    4.6642   23.2560 O.3     1  UNL1       -0.4346
     23 C           4.1215   -2.9111   18.9660 C.3     1  UNL1        0.2525
     24 O           2.9334   -2.4106   19.7326 O.3     1  UNL1       -0.4713
@<TRIPOS>BOND
     1    23    24    1
     2    24     1    1
     3     1     2   ar
     4     2     3   ar
     5     3     4   ar
     6     4     5   ar
     7     5     6    2
     8     5     7   ar
     9     7     8    1
    10     7     9   ar
    11     9    14    1
    12    14    15   ar
    13    15    16   ar
    14    16    17   ar
    15    17    18   ar
    16    18    19   ar
    17    18    20    1
    18    20    21    1
    19    21    22    1
    20     9    10   ar
    21    10    11   ar
    22    11    12   ar
    23    12     1   ar
    24    11     4   ar
    25    19    14   ar
    26    22    17    1
    27     8    13    1
@<TRIPOS>MOLECULE
*****
 24 27 0 0 0
SMALL
GASTEIGER

@<TRIPOS>ATOM
      1 C         -11.3753   -5.7233   18.9865 C.ar    1  UNL1        0.1418
      2 C         -12.4381   -6.7688   19.1520 C.ar    1  UNL1        0.0372
      3 C         -13.8648   -6.3599   19.3696 C.ar    1  UNL1        0.0095
      4 C         -14.2287   -4.9057   19.4216 C.ar    1  UNL1        0.0768
      5 C         -15.6555   -4.4969   19.6392 C.ar    1  UNL1        0.2350
      6 O         -16.7183   -5.5423   19.8047 O.2     1  UNL1       -0.2831
      7 C         -16.0194   -3.0427   19.6913 C.ar    1  UNL1        0.2081
      8 O         -17.4461   -2.6339   19.9089 O.3     1  UNL1       -0.5007
      9 C         -14.9565   -1.9972   19.5257 C.ar    1  UNL1        0.1819
     10 O         -13.5298   -2.4060   19.3082 O.2     1  UNL1       -0.4501
     11 C         -13.1659   -3.8603   19.2561 C.ar    1  UNL1        0.1516
     12 C         -11.7392   -4.2691   19.0385 C.ar    1  UNL1        0.0744
     13 H         -18.1100   -3.2870   20.0122 H       1  UNL1        0.2924
     14 C         -15.3204   -0.5430   19.5778 C.ar    1  UNL1        0.0409
     15 C         -16.4317   -0.0795   20.4723 C.ar    1  UNL1        0.0065
     16 C         -16.7956    1.3749   20.5244 C.ar    1  UNL1        0.0403
     17 C         -16.0482    2.3656   19.6819 C.ar    1  UNL1        0.1764
     18 C         -14.9369    1.9021   18.7874 C.ar    1  UNL1        0.1765
     19 C         -14.5730    0.4479   18.7353 C.ar    1  UNL1        0.0433
     20 O         -14.3829    3.1014   18.0769 O.3     1  UNL1       -0.4346
     21 C         -15.1518    4.3062   18.5323 C.3     1  UNL1        0.4294
     22 O         -16.1810    3.8514   19.5243 O.3     1  UNL1       -0.4346
     23 C          -9.5973   -7.5836   18.6287 C.3     1  UNL1        0.2525
     24 O          -9.9486   -6.1321   18.7689 O.3     1  UNL1       -0.4713
@<TRIPOS>BOND
     1    23    24    1
     2    24     1    1
     3     1     2   ar
     4     2     3   ar
     5     3     4   ar
     6     4     5   ar
     7     5     6    2
     8     5     7   ar
     9     7     8    1
    10     7     9   ar
    11     9    14    1
    12    14    15   ar
    13    15    16   ar
    14    16    17   ar
    15    17    18   ar
    16    18    19   ar
    17    18    20    1
    18    20    21    1
    19    21    22    1
    20     9    10   ar
    21    10    11   ar
    22    11    12   ar
    23    12     1   ar
    24    11     4   ar
    25    19    14   ar
    26    22    17    1
    27     8    13    1
@<TRIPOS>MOLECULE
*****
 24 27 0 0 0
SMALL
GASTEIGER

@<TRIPOS>ATOM
      1 C          -0.2881    2.7125   24.9307 C.ar    1  UNL1        0.1418
      2 C          -1.2951    3.5060   24.1520 C.ar    1  UNL1        0.0372
      3 C          -1.3382    3.4011   22.6563 C.ar    1  UNL1        0.0095
      4 C          -0.3744    2.5028   21.9393 C.ar    1  UNL1        0.0768
      5 C          -0.4176    2.3979   20.4436 C.ar    1  UNL1        0.2350
      6 O          -1.4245    3.1913   19.6649 O.2     1  UNL1       -0.2831
      7 C           0.5462    1.4996   19.7266 C.ar    1  UNL1        0.2081
      8 O           0.5031    1.3947   18.2309 O.3     1  UNL1       -0.5007
      9 C           1.5532    0.7061   20.5054 C.ar    1  UNL1        0.1819
     10 O           1.5964    0.8110   22.0011 O.2     1  UNL1       -0.4501
     11 C           0.6325    1.7094   22.7181 C.ar    1  UNL1        0.1516
     12 C           0.6757    1.8142   24.2138 C.ar    1  UNL1        0.0744
     13 H          -0.1260    1.8904   17.7445 H       1  UNL1        0.2924
     14 C           2.5170   -0.1922   19.7884 C.ar    1  UNL1        0.0409
     15 C           3.4115    0.3665   18.7217 C.ar    1  UNL1        0.0065
     16 C           4.3753   -0.5319   18.0047 C.ar    1  UNL1        0.0403
     17 C           4.4447   -1.9889   18.3544 C.ar    1  UNL1        0.1764
     18 C           3.5502   -2.5476   19.4212 C.ar    1  UNL1        0.1765
     19 C           2.5864   -1.6493   20.1381 C.ar    1  UNL1        0.0433
     20 O           3.8412   -4.0135   19.5491 O.3     1  UNL1       -0.4346
     21 C           4.9154   -4.3609   18.5615 C.3     1  UNL1        0.4294
     22 O           5.2884   -3.1096   17.8232 O.3     1  UNL1       -0.4346
     23 C          -0.9525    1.7991   27.2704 C.3     1  UNL1        0.2525
     24 O          -0.2449    2.8174   26.4264 O.3     1  UNL1       -0.4713
@<TRIPOS>BOND
     1    23    24    1
     2    24     1    1
     3     1     2   ar
     4     2     3   ar
     5     3     4   ar
     6     4     5   ar
     7     5     6    2
     8     5     7   ar
     9     7     8    1
    10     7     9   ar
    11     9    14    1
    12    14    15   ar
    13    15    16   ar
    14    16    17   ar
    15    17    18   ar
    16    18    19   ar
    17    18    20    1
    18    20    21    1
    19    21    22    1
    20     9    10   ar
    21    10    11   ar
    22    11    12   ar
    23    12     1   ar
    24    11     4   ar
    25    19    14   ar
    26    22    17    1
    27     8    13    1
@<TRIPOS>MOLECULE
*****
 24 27 0 0 0
SMALL
GASTEIGER

@<TRIPOS>ATOM
      1 C           2.9085   -0.4893   29.4487 C.ar    1  UNL1        0.1418
      2 C           4.2640   -0.7525   30.0344 C.ar    1  UNL1        0.0372
      3 C           5.3773   -1.2444   29.1577 C.ar    1  UNL1        0.0095
      4 C           5.1350   -1.4731   27.6952 C.ar    1  UNL1        0.0768
      5 C           6.2483   -1.9649   26.8184 C.ar    1  UNL1        0.2350
      6 O           7.6039   -2.2281   27.4042 O.2     1  UNL1       -0.2831
      7 C           6.0060   -2.1936   25.3559 C.ar    1  UNL1        0.2081
      8 O           7.1193   -2.6854   24.4792 O.3     1  UNL1       -0.5007
      9 C           4.6504   -1.9304   24.7701 C.ar    1  UNL1        0.1819
     10 O           3.5371   -1.4385   25.6468 O.2     1  UNL1       -0.4501
     11 C           3.7795   -1.2099   27.1094 C.ar    1  UNL1        0.1516
     12 C           2.6662   -0.7180   27.9862 C.ar    1  UNL1        0.0744
     13 H           7.9661   -2.8499   24.8451 H       1  UNL1        0.2924
     14 C           4.4081   -2.1591   23.3076 C.ar    1  UNL1        0.0409
     15 C           3.9131   -1.0363   22.4448 C.ar    1  UNL1        0.0065
     16 C           3.6708   -1.2651   20.9822 C.ar    1  UNL1        0.0403
     17 C           3.9236   -2.6165   20.3825 C.ar    1  UNL1        0.1764
     18 C           4.4186   -3.7392   21.2453 C.ar    1  UNL1        0.1765
     19 C           4.6609   -3.5106   22.7078 C.ar    1  UNL1        0.0433
     20 O           4.5773   -4.9538   20.3795 O.3     1  UNL1       -0.4346
     21 C           4.1804   -4.5818   18.9816 C.3     1  UNL1        0.4294
     22 O           3.7764   -3.1372   18.9835 O.3     1  UNL1       -0.4346
     23 C           0.8085    1.0005   29.7959 C.3     1  UNL1        0.2525
     24 O           1.7952    0.0025   30.3254 O.3     1  UNL1       -0.4713
@<TRIPOS>BOND
     1    23    24    1
     2    24     1    1
     3     1     2   ar
     4     2     3   ar
     5     3     4   ar
     6     4     5   ar
     7     5     6    2
     8     5     7   ar
     9     7     8    1
    10     7     9   ar
    11     9    14    1
    12    14    15   ar
    13    15    16   ar
    14    16    17   ar
    15    17    18   ar
    16    18    19   ar
    17    18    20    1
    18    20    21    1
    19    21    22    1
    20     9    10   ar
    21    10    11   ar
    22    11    12   ar
    23    12     1   ar
    24    11     4   ar
    25    19    14   ar
    26    22    17    1
    27     8    13    1
