@<TRIPOS>MOLECULE
*****
 14 15 0 0 0
SMALL
GASTEIGER

@<TRIPOS>ATOM
      1 C         -11.0070  -18.7461   22.6665 C.ar    1  UNL1        0.0258
      2 C         -11.5001  -19.2079   21.3272 C.ar    1  UNL1        0.0077
      3 C         -10.5315  -19.4073   20.1993 C.ar    1  UNL1        0.0202
      4 C          -9.0699  -19.1448   20.4107 C.ar    1  UNL1        0.0893
      5 N          -7.8878  -19.2528   19.4936 N.ar    1  UNL1       -0.2245
      6 C          -6.6642  -18.8577   20.2660 C.ar    1  UNL1        0.1567
      7 N          -5.2611  -18.8213   19.7368 N.pl3   1  UNL1       -0.3375
      8 S          -7.0900  -18.5055   21.6605 S.2     1  UNL1       -0.0520
      9 C          -8.5768  -18.6829   21.7499 C.ar    1  UNL1        0.0502
     10 C          -9.5454  -18.4836   22.8778 C.ar    1  UNL1        0.0142
     11 H          -5.0809  -19.0718   18.8019 H       1  UNL1        0.1442
     12 H          -4.5203  -18.5468   20.3243 H       1  UNL1        0.1442
     13 C         -13.3020  -17.8952   23.5376 C.3     1  UNL1        0.0742
     14 S         -11.9756  -18.5468   23.7944 S.3     1  UNL1       -0.1127
@<TRIPOS>BOND
     1    13    14    1
     2    14     1    1
     3     1     2   ar
     4     2     3   ar
     5     3     4   ar
     6     4     5   ar
     7     5     6   ar
     8     6     7    1
     9     6     8   ar
    10     8     9   ar
    11     9    10   ar
    12    10     1   ar
    13     9     4   ar
    14     7    11    1
    15     7    12    1
@<TRIPOS>MOLECULE
*****
 14 15 0 0 0
SMALL
GASTEIGER

@<TRIPOS>ATOM
      1 C          -5.8069  -19.4040   20.5878 C.ar    1  UNL1        0.0258
      2 C          -5.4782  -19.6324   22.0333 C.ar    1  UNL1        0.0077
      3 C          -4.0868  -19.3820   22.5347 C.ar    1  UNL1        0.0202
      4 C          -3.0241  -18.9032   21.5906 C.ar    1  UNL1        0.0893
      5 N          -1.5751  -18.5734   21.7941 N.ar    1  UNL1       -0.2245
      6 C          -1.0082  -18.1413   20.4743 C.ar    1  UNL1        0.1567
      7 N           0.4087  -17.7203   20.2187 N.pl3   1  UNL1       -0.3375
      8 S          -2.1069  -18.2039   19.4550 S.2     1  UNL1       -0.0520
      9 C          -3.3528  -18.6749   20.1450 C.ar    1  UNL1        0.0502
     10 C          -4.7442  -18.9253   19.6436 C.ar    1  UNL1        0.0142
     11 H           1.0605  -17.7119   20.9565 H       1  UNL1        0.1442
     12 H           0.6868  -17.4523   19.3131 H       1  UNL1        0.1442
     13 C          -8.3793  -19.2498   20.9179 C.3     1  UNL1        0.0742
     14 S          -7.1982  -19.6544   20.0863 S.3     1  UNL1       -0.1127
@<TRIPOS>BOND
     1    13    14    1
     2    14     1    1
     3     1     2   ar
     4     2     3   ar
     5     3     4   ar
     6     4     5   ar
     7     5     6   ar
     8     6     7    1
     9     6     8   ar
    10     8     9   ar
    11     9    10   ar
    12    10     1   ar
    13     9     4   ar
    14     7    11    1
    15     7    12    1
@<TRIPOS>MOLECULE
*****
 14 15 0 0 0
SMALL
GASTEIGER

@<TRIPOS>ATOM
      1 C          -9.9744  -17.5969   24.5185 C.ar    1  UNL1        0.0258
      2 C         -11.1454  -18.5342   24.5254 C.ar    1  UNL1        0.0077
      3 C         -12.1249  -18.5191   23.3894 C.ar    1  UNL1        0.0202
      4 C         -11.9332  -17.5668   22.2465 C.ar    1  UNL1        0.0893
      5 N         -12.7276  -17.3252   20.9973 N.ar    1  UNL1       -0.2245
      6 C         -12.0475  -16.2386   20.2183 C.ar    1  UNL1        0.1567
      7 N         -12.5024  -15.6801   18.9025 N.pl3   1  UNL1       -0.3375
      8 S         -10.8328  -15.8087   20.9860 S.2     1  UNL1       -0.0520
      9 C         -10.7622  -16.6296   22.2395 C.ar    1  UNL1        0.0502
     10 C          -9.7827  -16.6446   23.3755 C.ar    1  UNL1        0.0142
     11 H         -13.3173  -16.0296   18.4746 H       1  UNL1        0.1442
     12 H         -11.9860  -14.9641   18.4667 H       1  UNL1        0.1442
     13 C          -8.4829  -16.3207   26.2205 C.3     1  UNL1        0.0742
     14 S          -8.9949  -17.6120   25.6545 S.3     1  UNL1       -0.1127
@<TRIPOS>BOND
     1    13    14    1
     2    14     1    1
     3     1     2   ar
     4     2     3   ar
     5     3     4   ar
     6     4     5   ar
     7     5     6   ar
     8     6     7    1
     9     6     8   ar
    10     8     9   ar
    11     9    10   ar
    12    10     1   ar
    13     9     4   ar
    14     7    11    1
    15     7    12    1
@<TRIPOS>MOLECULE
*****
 14 15 0 0 0
SMALL
GASTEIGER

@<TRIPOS>ATOM
      1 C         -10.0488  -18.6210   23.8862 C.ar    1  UNL1        0.0258
      2 C          -8.9367  -17.6230   23.7551 C.ar    1  UNL1        0.0077
      3 C          -8.9895  -16.5780   22.6803 C.ar    1  UNL1        0.0202
      4 C         -10.1544  -16.5310   21.7365 C.ar    1  UNL1        0.0893
      5 N         -10.4794  -15.6231   20.5876 N.ar    1  UNL1       -0.2245
      6 C         -11.7925  -16.0599   20.0087 C.ar    1  UNL1        0.1567
      7 N         -12.4956  -15.4294   18.8432 N.pl3   1  UNL1       -0.3375
      8 S         -12.2789  -17.2378   20.7997 S.2     1  UNL1       -0.0520
      9 C         -11.2665  -17.5290   21.8676 C.ar    1  UNL1        0.0502
     10 C         -11.2137  -18.5739   22.9424 C.ar    1  UNL1        0.0142
     11 H         -12.0941  -14.6552   18.3863 H       1  UNL1        0.1442
     12 H         -13.3584  -15.7897   18.5352 H       1  UNL1        0.1442
     13 C          -9.6035  -21.0730   24.6204 C.3     1  UNL1        0.0742
     14 S          -9.9960  -19.6659   24.9610 S.3     1  UNL1       -0.1127
@<TRIPOS>BOND
     1    13    14    1
     2    14     1    1
     3     1     2   ar
     4     2     3   ar
     5     3     4   ar
     6     4     5   ar
     7     5     6   ar
     8     6     7    1
     9     6     8   ar
    10     8     9   ar
    11     9    10   ar
    12    10     1   ar
    13     9     4   ar
    14     7    11    1
    15     7    12    1
@<TRIPOS>MOLECULE
*****
 14 15 0 0 0
SMALL
GASTEIGER

@<TRIPOS>ATOM
      1 C          -8.7387  -19.2086   20.9678 C.ar    1  UNL1        0.0258
      2 C          -9.5972  -18.8476   19.7919 C.ar    1  UNL1        0.0077
      3 C         -11.0209  -18.4256   20.0042 C.ar    1  UNL1        0.0202
      4 C         -11.5860  -18.3645   21.3923 C.ar    1  UNL1        0.0893
      5 N         -12.9433  -17.9877   21.9078 N.ar    1  UNL1       -0.2245
      6 C         -12.9237  -18.1158   23.4022 C.ar    1  UNL1        0.1567
      7 N         -14.0720  -17.8368   24.3262 N.pl3   1  UNL1       -0.3375
      8 S         -11.5542  -18.5717   23.8103 S.2     1  UNL1       -0.0520
      9 C         -10.7275  -18.7255   22.5681 C.ar    1  UNL1        0.0502
     10 C          -9.3038  -19.1475   22.3558 C.ar    1  UNL1        0.0142
     11 H         -14.9368  -17.5401   23.9610 H       1  UNL1        0.1442
     12 H         -13.9608  -17.9505   25.2978 H       1  UNL1        0.1442
     13 C          -6.4919  -20.1038   21.9167 C.3     1  UNL1        0.0742
     14 S          -7.3150  -19.6306   20.7555 S.3     1  UNL1       -0.1127
@<TRIPOS>BOND
     1    13    14    1
     2    14     1    1
     3     1     2   ar
     4     2     3   ar
     5     3     4   ar
     6     4     5   ar
     7     5     6   ar
     8     6     7    1
     9     6     8   ar
    10     8     9   ar
    11     9    10   ar
    12    10     1   ar
    13     9     4   ar
    14     7    11    1
    15     7    12    1
@<TRIPOS>MOLECULE
*****
 14 15 0 0 0
SMALL
GASTEIGER

@<TRIPOS>ATOM
      1 C         -10.4304  -17.2164   21.8270 C.ar    1  UNL1        0.0258
      2 C         -10.9814  -18.0136   22.9719 C.ar    1  UNL1        0.0077
      3 C         -10.3928  -17.8622   24.3433 C.ar    1  UNL1        0.0202
      4 C          -9.2532  -16.9136   24.5697 C.ar    1  UNL1        0.0893
      5 N          -8.4745  -16.5558   25.8008 N.ar    1  UNL1       -0.2245
      6 C          -7.4421  -15.5376   25.4168 C.ar    1  UNL1        0.1567
      7 N          -6.4443  -14.9024   26.3394 N.pl3   1  UNL1       -0.3375
      8 S          -7.5828  -15.2659   23.9484 S.2     1  UNL1       -0.0520
      9 C          -8.7021  -16.1164   23.4248 C.ar    1  UNL1        0.0502
     10 C          -9.2907  -16.2678   22.0535 C.ar    1  UNL1        0.0142
     11 H          -6.4301  -15.1472   27.2929 H       1  UNL1        0.1442
     12 H          -5.8036  -14.2409   25.9914 H       1  UNL1        0.1442
     13 C         -11.5655  -16.1697   19.7376 C.3     1  UNL1        0.0742
     14 S         -11.0190  -17.3678   20.4557 S.3     1  UNL1       -0.1127
@<TRIPOS>BOND
     1    13    14    1
     2    14     1    1
     3     1     2   ar
     4     2     3   ar
     5     3     4   ar
     6     4     5   ar
     7     5     6   ar
     8     6     7    1
     9     6     8   ar
    10     8     9   ar
    11     9    10   ar
    12    10     1   ar
    13     9     4   ar
    14     7    11    1
    15     7    12    1
@<TRIPOS>MOLECULE
*****
 14 15 0 0 0
SMALL
GASTEIGER

@<TRIPOS>ATOM
      1 C          -7.4294  -19.4598   20.5226 C.ar    1  UNL1        0.0258
      2 C          -8.4629  -19.8364   19.5028 C.ar    1  UNL1        0.0077
      3 C          -9.8212  -19.2012   19.5416 C.ar    1  UNL1        0.0202
      4 C         -10.1460  -18.1894   20.6003 C.ar    1  UNL1        0.0893
      5 N         -11.3895  -17.4014   20.8878 N.ar    1  UNL1       -0.2245
      6 C         -11.1246  -16.5379   22.0854 C.ar    1  UNL1        0.1567
      7 N         -12.0964  -15.5870   22.7191 N.pl3   1  UNL1       -0.3375
      8 S          -9.7173  -16.7921   22.5380 S.2     1  UNL1       -0.0520
      9 C          -9.1125  -17.8129   21.6201 C.ar    1  UNL1        0.0502
     10 C          -7.7542  -18.4481   21.5812 C.ar    1  UNL1        0.0142
     11 H         -13.0027  -15.4890   22.3473 H       1  UNL1        0.1442
     12 H         -11.8278  -15.0609   23.5067 H       1  UNL1        0.1442
     13 C          -4.8689  -19.2734   20.1236 C.3     1  UNL1        0.0742
     14 S          -6.0711  -20.0950   20.4837 S.3     1  UNL1       -0.1127
@<TRIPOS>BOND
     1    13    14    1
     2    14     1    1
     3     1     2   ar
     4     2     3   ar
     5     3     4   ar
     6     4     5   ar
     7     5     6   ar
     8     6     7    1
     9     6     8   ar
    10     8     9   ar
    11     9    10   ar
    12    10     1   ar
    13     9     4   ar
    14     7    11    1
    15     7    12    1
@<TRIPOS>MOLECULE
*****
 14 15 0 0 0
SMALL
GASTEIGER

@<TRIPOS>ATOM
      1 C         -10.2923  -17.8691   22.6969 C.ar    1  UNL1        0.0258
      2 C          -9.1350  -18.0570   21.7613 C.ar    1  UNL1        0.0077
      3 C          -7.7895  -17.4931   22.1099 C.ar    1  UNL1        0.0202
      4 C          -7.6013  -16.7412   23.3941 C.ar    1  UNL1        0.0893
      5 N          -6.4016  -16.0767   24.0016 N.ar    1  UNL1       -0.2245
      6 C          -6.8173  -15.4781   25.3126 C.ar    1  UNL1        0.1567
      7 N          -5.9318  -14.7183   26.2553 N.pl3   1  UNL1       -0.3375
      8 S          -8.2741  -15.7725   25.5154 S.2     1  UNL1       -0.0520
      9 C          -8.7586  -16.5532   24.3296 C.ar    1  UNL1        0.0502
     10 C         -10.1041  -17.1172   23.9810 C.ar    1  UNL1        0.0142
     11 H          -4.9834  -14.5758   26.0329 H       1  UNL1        0.1442
     12 H          -6.2990  -14.3621   27.0965 H       1  UNL1        0.1442
     13 C         -12.4818  -17.7676   21.3019 C.3     1  UNL1        0.0742
     14 S         -11.6378  -18.4331   22.3482 S.3     1  UNL1       -0.1127
@<TRIPOS>BOND
     1    13    14    1
     2    14     1    1
     3     1     2   ar
     4     2     3   ar
     5     3     4   ar
     6     4     5   ar
     7     5     6   ar
     8     6     7    1
     9     6     8   ar
    10     8     9   ar
    11     9    10   ar
    12    10     1   ar
    13     9     4   ar
    14     7    11    1
    15     7    12    1
@<TRIPOS>MOLECULE
*****
 14 15 0 0 0
SMALL
GASTEIGER

@<TRIPOS>ATOM
      1 C         -10.7591  -18.6824   21.9315 C.ar    1  UNL1        0.0258
      2 C         -10.4053  -19.3380   23.2334 C.ar    1  UNL1        0.0077
      3 C          -9.0496  -19.9523   23.4197 C.ar    1  UNL1        0.0202
      4 C          -8.0477  -19.9110   22.3042 C.ar    1  UNL1        0.0893
      5 N          -6.6439  -20.4283   22.1962 N.ar    1  UNL1       -0.2245
      6 C          -6.1301  -20.0923   20.8276 C.ar    1  UNL1        0.1567
      7 N          -4.7689  -20.4232   20.2911 N.pl3   1  UNL1       -0.3375
      8 S          -7.2163  -19.3674   20.0897 S.2     1  UNL1       -0.0520
      9 C          -8.4015  -19.2554   21.0023 C.ar    1  UNL1        0.0502
     10 C          -9.7572  -18.6411   20.8160 C.ar    1  UNL1        0.0142
     11 H          -4.1211  -20.9044   20.8551 H       1  UNL1        0.1442
     12 H          -4.5233  -20.1591   19.3750 H       1  UNL1        0.1442
     13 C         -12.9270  -17.6665   22.9406 C.3     1  UNL1        0.0742
     14 S         -12.1148  -18.0680   21.7452 S.3     1  UNL1       -0.1127
@<TRIPOS>BOND
     1    13    14    1
     2    14     1    1
     3     1     2   ar
     4     2     3   ar
     5     3     4   ar
     6     4     5   ar
     7     5     6   ar
     8     6     7    1
     9     6     8   ar
    10     8     9   ar
    11     9    10   ar
    12    10     1   ar
    13     9     4   ar
    14     7    11    1
    15     7    12    1
