@<TRIPOS>MOLECULE
*****
 34 37 0 0 0
SMALL
GASTEIGER

@<TRIPOS>ATOM
      1 C          -8.1878  -18.4199   22.9054 C.3     1  UNL1        0.1751
      2 C          -7.8778  -17.2365   23.7734 C.ar    1  UNL1        0.0089
      3 C          -6.7265  -16.2751   23.7860 C.ar    1  UNL1       -0.0021
      4 C          -6.6875  -15.1650   24.7940 C.ar    1  UNL1       -0.0003
      5 C          -7.7997  -15.0163   25.7894 C.ar    1  UNL1        0.0001
      6 C          -8.9510  -15.9777   25.7768 C.ar    1  UNL1        0.0043
      7 C          -8.9901  -17.0878   24.7688 C.ar    1  UNL1        0.0516
      8 C          -9.9874  -18.1793   24.5159 C.2     1  UNL1        0.2493
      9 O         -11.2575  -18.4075   25.2805 O.2     1  UNL1       -0.2699
     10 N          -9.4915  -19.0026   23.3643 N.am    1  UNL1       -0.2657
     11 O          -7.3283  -18.2073   20.4628 O.2     1  UNL1       -0.2729
     12 C          -7.3423  -18.9309   21.7766 C.2     1  UNL1        0.2451
     13 N          -6.5108  -20.1657   21.9616 N.am    1  UNL1       -0.2988
     14 H          -6.5200  -20.6407   22.8239 H       1  UNL1        0.1498
     15 C          -5.6654  -20.6767   20.8329 C.3     1  UNL1        0.1164
     16 C          -4.4426  -19.9184   20.4089 C.ar    1  UNL1       -0.0024
     17 C          -3.1611  -20.0741   21.1727 C.ar    1  UNL1        0.0005
     18 C          -1.9384  -19.3157   20.7487 C.ar    1  UNL1        0.0369
     19 C          -1.9971  -18.4017   19.5608 C.ar    1  UNL1        0.1468
     20 C          -3.2786  -18.2460   18.7969 C.ar    1  UNL1        0.0369
     21 C          -4.5014  -19.0043   19.2210 C.ar    1  UNL1        0.0005
     22 O          -0.7743  -17.6434   19.1368 O.3     1  UNL1       -0.4045
     23 C           0.4380  -17.6208   20.0199 C.3     1  UNL1        0.5753
     24 F           1.6503  -17.5982   20.9030 F       1  UNL1       -0.1328
     25 F           0.8014  -19.0003   19.5562 F       1  UNL1       -0.1328
     26 F           0.0745  -16.2413   20.4836 F       1  UNL1       -0.1328
     27 C         -10.1788  -20.1987   22.7750 C.3     1  UNL1        0.1007
     28 C         -11.0698  -20.0381   21.5791 C.3     1  UNL1        0.0673
     29 C         -11.3959  -18.6670   21.0654 C.ar    1  UNL1        0.0607
     30 C         -12.4678  -17.8532   21.7280 C.ar    1  UNL1        0.0148
     31 C         -12.7939  -16.4822   21.2144 C.ar    1  UNL1        0.0028
     32 C         -12.0481  -15.9249   20.0382 C.ar    1  UNL1        0.0207
     33 C         -10.9763  -16.7386   19.3757 C.ar    1  UNL1        0.0984
     34 N         -10.6502  -18.1097   19.8893 N.ar    1  UNL1       -0.2481
@<TRIPOS>BOND
     1    11    12    2
     2    12    13   am
     3    13    15    1
     4    15    16    1
     5    16    17   ar
     6    17    18   ar
     7    18    19   ar
     8    19    22    1
     9    22    23    1
    10    23    24    1
    11    23    25    1
    12    23    26    1
    13    19    20   ar
    14    20    21   ar
    15    12     1    1
    16     1     2    1
    17     2     3   ar
    18     3     4   ar
    19     4     5   ar
    20     5     6   ar
    21     6     7   ar
    22     7     8    1
    23     8     9    2
    24     8    10   am
    25    10    27    1
    26    27    28    1
    27    28    29    1
    28    29    30   ar
    29    30    31   ar
    30    31    32   ar
    31    32    33   ar
    32    33    34   ar
    33    21    16   ar
    34    10     1    1
    35    34    29   ar
    36     7     2   ar
    37    13    14    1
@<TRIPOS>MOLECULE
*****
 34 37 0 0 0
SMALL
GASTEIGER

@<TRIPOS>ATOM
      1 C          -4.3724  -18.2523   21.8781 C.3     1  UNL1        0.1751
      2 C          -3.0436  -17.7171   21.4333 C.ar    1  UNL1        0.0089
      3 C          -2.2703  -16.4945   21.8297 C.ar    1  UNL1       -0.0021
      4 C          -0.9381  -16.2129   21.2004 C.ar    1  UNL1       -0.0003
      5 C          -0.3793  -17.1540   20.1747 C.ar    1  UNL1        0.0001
      6 C          -1.1526  -18.3766   19.7783 C.ar    1  UNL1        0.0043
      7 C          -2.4847  -18.6582   20.4076 C.ar    1  UNL1        0.0516
      8 C          -3.4681  -19.7749   20.2185 C.2     1  UNL1        0.2493
      9 O          -3.3122  -20.9382   19.2845 O.2     1  UNL1       -0.2699
     10 N          -4.6348  -19.5241   21.1273 N.am    1  UNL1       -0.2657
     11 O          -4.7214  -17.1404   24.2001 O.2     1  UNL1       -0.2729
     12 C          -5.2795  -17.6257   22.8952 C.2     1  UNL1        0.2451
     13 N          -6.7449  -17.4844   22.6073 N.am    1  UNL1       -0.2988
     14 H          -7.1112  -17.8029   21.7508 H       1  UNL1        0.1498
     15 C          -7.6520  -16.8577   23.6244 C.3     1  UNL1        0.1164
     16 C          -9.1114  -17.2039   23.6420 C.ar    1  UNL1       -0.0024
     17 C          -9.5600  -18.5360   24.1657 C.ar    1  UNL1        0.0005
     18 C         -11.0194  -18.8820   24.1832 C.ar    1  UNL1        0.0369
     19 C         -12.0303  -17.8960   23.6772 C.ar    1  UNL1        0.1468
     20 C         -11.5817  -16.5639   23.1536 C.ar    1  UNL1        0.0369
     21 C         -10.1222  -16.2178   23.1360 C.ar    1  UNL1        0.0005
     22 O         -13.4897  -18.2422   23.6948 O.3     1  UNL1       -0.4045
     23 C         -14.1777  -18.5254   24.9973 C.3     1  UNL1        0.5753
     24 F         -14.8657  -18.8085   26.2997 F       1  UNL1       -0.1328
     25 F         -15.4904  -18.6358   24.2798 F       1  UNL1       -0.1328
     26 F         -12.8651  -18.4149   25.7147 F       1  UNL1       -0.1328
     27 C          -5.8504  -20.3926   21.2618 C.3     1  UNL1        0.1007
     28 C          -6.6558  -20.7486   20.0475 C.3     1  UNL1        0.0673
     29 C          -7.9999  -20.1201   19.8282 C.ar    1  UNL1        0.0607
     30 C          -8.8748  -20.5929   18.7052 C.ar    1  UNL1        0.0148
     31 C         -10.2190  -19.9644   18.4859 C.ar    1  UNL1        0.0028
     32 C         -10.6883  -18.8630   19.3897 C.ar    1  UNL1        0.0207
     33 C          -9.8135  -18.3903   20.5127 C.ar    1  UNL1        0.0984
     34 N          -8.4693  -19.0188   20.7320 N.ar    1  UNL1       -0.2481
@<TRIPOS>BOND
     1    11    12    2
     2    12    13   am
     3    13    15    1
     4    15    16    1
     5    16    17   ar
     6    17    18   ar
     7    18    19   ar
     8    19    22    1
     9    22    23    1
    10    23    24    1
    11    23    25    1
    12    23    26    1
    13    19    20   ar
    14    20    21   ar
    15    12     1    1
    16     1     2    1
    17     2     3   ar
    18     3     4   ar
    19     4     5   ar
    20     5     6   ar
    21     6     7   ar
    22     7     8    1
    23     8     9    2
    24     8    10   am
    25    10    27    1
    26    27    28    1
    27    28    29    1
    28    29    30   ar
    29    30    31   ar
    30    31    32   ar
    31    32    33   ar
    32    33    34   ar
    33    21    16   ar
    34    10     1    1
    35    34    29   ar
    36     7     2   ar
    37    13    14    1
@<TRIPOS>MOLECULE
*****
 34 37 0 0 0
SMALL
GASTEIGER

@<TRIPOS>ATOM
      1 C          -4.5277  -18.4334   21.4233 C.3     1  UNL1        0.1751
      2 C          -3.4909  -18.4226   20.3394 C.ar    1  UNL1        0.0089
      3 C          -3.4637  -19.0349   18.9703 C.ar    1  UNL1       -0.0021
      4 C          -2.2631  -18.8510   18.0902 C.ar    1  UNL1       -0.0003
      5 C          -1.0897  -18.0548   18.5792 C.ar    1  UNL1        0.0001
      6 C          -1.1169  -17.4425   19.9482 C.ar    1  UNL1        0.0043
      7 C          -2.3175  -17.6264   20.8283 C.ar    1  UNL1        0.0516
      8 C          -2.6291  -17.1451   22.2144 C.2     1  UNL1        0.2493
      9 O          -1.7322  -16.3114   23.0807 O.2     1  UNL1       -0.2699
     10 N          -3.9951  -17.6439   22.5822 N.am    1  UNL1       -0.2657
     11 O          -6.0915  -20.3892   22.1159 O.2     1  UNL1       -0.2729
     12 C          -5.8628  -19.1143   21.3596 C.2     1  UNL1        0.2451
     13 N          -6.9693  -18.5201   20.5393 N.am    1  UNL1       -0.2988
     14 H          -6.8193  -17.6833   20.0429 H       1  UNL1        0.1498
     15 C          -8.3044  -19.2009   20.4756 C.3     1  UNL1        0.1164
     16 C          -9.3344  -18.9323   21.5323 C.ar    1  UNL1       -0.0024
     17 C          -9.6508  -17.5209   21.9299 C.ar    1  UNL1        0.0005
     18 C         -10.6808  -17.2523   22.9866 C.ar    1  UNL1        0.0369
     19 C         -11.3946  -18.3951   23.6460 C.ar    1  UNL1        0.1468
     20 C         -11.0783  -19.8064   23.2485 C.ar    1  UNL1        0.0369
     21 C         -10.0482  -20.0750   22.1916 C.ar    1  UNL1        0.0005
     22 O         -12.4246  -18.1264   24.7028 O.3     1  UNL1       -0.4045
     23 C         -13.8754  -18.3798   24.4178 C.3     1  UNL1        0.5753
     24 F         -15.3261  -18.6332   24.1329 F       1  UNL1       -0.1328
     25 F         -14.0908  -18.7601   25.8527 F       1  UNL1       -0.1328
     26 F         -13.6599  -17.9995   22.9829 F       1  UNL1       -0.1328
     27 C          -4.7040  -17.3966   23.8807 C.3     1  UNL1        0.1007
     28 C          -5.0960  -16.0013   24.2673 C.3     1  UNL1        0.0673
     29 C          -6.2236  -15.7789   25.2313 C.ar    1  UNL1        0.0607
     30 C          -5.9320  -15.5219   26.6801 C.ar    1  UNL1        0.0148
     31 C          -7.0596  -15.2995   27.6441 C.ar    1  UNL1        0.0028
     32 C          -8.4786  -15.3340   27.1591 C.ar    1  UNL1        0.0207
     33 C          -8.7701  -15.5909   25.7104 C.ar    1  UNL1        0.0984
     34 N          -7.6426  -15.8133   24.7464 N.ar    1  UNL1       -0.2481
@<TRIPOS>BOND
     1    11    12    2
     2    12    13   am
     3    13    15    1
     4    15    16    1
     5    16    17   ar
     6    17    18   ar
     7    18    19   ar
     8    19    22    1
     9    22    23    1
    10    23    24    1
    11    23    25    1
    12    23    26    1
    13    19    20   ar
    14    20    21   ar
    15    12     1    1
    16     1     2    1
    17     2     3   ar
    18     3     4   ar
    19     4     5   ar
    20     5     6   ar
    21     6     7   ar
    22     7     8    1
    23     8     9    2
    24     8    10   am
    25    10    27    1
    26    27    28    1
    27    28    29    1
    28    29    30   ar
    29    30    31   ar
    30    31    32   ar
    31    32    33   ar
    32    33    34   ar
    33    21    16   ar
    34    10     1    1
    35    34    29   ar
    36     7     2   ar
    37    13    14    1
@<TRIPOS>MOLECULE
*****
 34 37 0 0 0
SMALL
GASTEIGER

@<TRIPOS>ATOM
      1 C           6.2043   -2.9956   27.8280 C.3     1  UNL1        0.1751
      2 C           6.2852   -2.7286   29.3019 C.ar    1  UNL1        0.0089
      3 C           5.9938   -1.5040   30.1175 C.ar    1  UNL1       -0.0021
      4 C           6.1696   -1.5355   31.6068 C.ar    1  UNL1       -0.0003
      5 C           6.6368   -2.7916   32.2805 C.ar    1  UNL1        0.0001
      6 C           6.9283   -4.0163   31.4648 C.ar    1  UNL1        0.0043
      7 C           6.7524   -3.9848   29.9755 C.ar    1  UNL1        0.0516
      8 C           6.9603   -5.0281   28.9180 C.2     1  UNL1        0.2493
      9 O           7.4253   -6.4356   29.1475 O.2     1  UNL1       -0.2699
     10 N           6.6215   -4.4168   27.5908 N.am    1  UNL1       -0.2657
     11 O           6.6768   -0.8661   26.4168 O.2     1  UNL1       -0.2729
     12 C           5.7805   -2.0138   26.7761 C.2     1  UNL1        0.2451
     13 N           4.4603   -2.1798   26.0835 N.am    1  UNL1       -0.2988
     14 H           3.8720   -2.9332   26.3194 H       1  UNL1        0.1498
     15 C           4.0365   -1.1980   25.0316 C.3     1  UNL1        0.1164
     16 C           3.9575   -1.6248   23.5958 C.ar    1  UNL1       -0.0024
     17 C           4.6279   -2.8910   23.1517 C.ar    1  UNL1        0.0005
     18 C           4.5488   -3.3176   21.7158 C.ar    1  UNL1        0.0369
     19 C           3.7993   -2.4781   20.7240 C.ar    1  UNL1        0.1468
     20 C           3.1289   -1.2119   21.1682 C.ar    1  UNL1        0.0369
     21 C           3.2080   -0.7852   22.6041 C.ar    1  UNL1        0.0005
     22 O           3.7203   -2.9048   19.2882 O.3     1  UNL1       -0.4045
     23 C           4.2191   -4.2592   18.8797 C.3     1  UNL1        0.5753
     24 F           4.7180   -5.6135   18.4712 F       1  UNL1       -0.1328
     25 F           5.5786   -3.6805   18.6212 F       1  UNL1       -0.1328
     26 F           2.8596   -4.8379   19.1382 F       1  UNL1       -0.1328
     27 C           6.6883   -5.1056   26.2600 C.3     1  UNL1        0.1007
     28 C           7.9754   -5.1268   25.4902 C.3     1  UNL1        0.0673
     29 C           8.0613   -4.4511   24.1538 C.ar    1  UNL1        0.0607
     30 C           8.2816   -2.9694   24.0753 C.ar    1  UNL1        0.0148
     31 C           8.3675   -2.2937   22.7389 C.ar    1  UNL1        0.0028
     32 C           8.2330   -3.0996   21.4809 C.ar    1  UNL1        0.0207
     33 C           8.0127   -4.5812   21.5594 C.ar    1  UNL1        0.0984
     34 N           7.9268   -5.2570   22.8958 N.ar    1  UNL1       -0.2481
@<TRIPOS>BOND
     1    11    12    2
     2    12    13   am
     3    13    15    1
     4    15    16    1
     5    16    17   ar
     6    17    18   ar
     7    18    19   ar
     8    19    22    1
     9    22    23    1
    10    23    24    1
    11    23    25    1
    12    23    26    1
    13    19    20   ar
    14    20    21   ar
    15    12     1    1
    16     1     2    1
    17     2     3   ar
    18     3     4   ar
    19     4     5   ar
    20     5     6   ar
    21     6     7   ar
    22     7     8    1
    23     8     9    2
    24     8    10   am
    25    10    27    1
    26    27    28    1
    27    28    29    1
    28    29    30   ar
    29    30    31   ar
    30    31    32   ar
    31    32    33   ar
    32    33    34   ar
    33    21    16   ar
    34    10     1    1
    35    34    29   ar
    36     7     2   ar
    37    13    14    1
@<TRIPOS>MOLECULE
*****
 34 37 0 0 0
SMALL
GASTEIGER

@<TRIPOS>ATOM
      1 C          -8.1444  -17.4762   22.3697 C.3     1  UNL1        0.1751
      2 C          -7.7915  -16.7247   23.6190 C.ar    1  UNL1        0.0089
      3 C          -6.5389  -16.6791   24.4428 C.ar    1  UNL1       -0.0021
      4 C          -6.4781  -15.8161   25.6681 C.ar    1  UNL1       -0.0003
      5 C          -7.6700  -14.9986   26.0696 C.ar    1  UNL1        0.0001
      6 C          -8.9226  -15.0442   25.2457 C.ar    1  UNL1        0.0043
      7 C          -8.9834  -15.9072   24.0204 C.ar    1  UNL1        0.0516
      8 C         -10.0729  -16.1535   23.0192 C.2     1  UNL1        0.2493
      9 O         -11.4407  -15.5381   23.0354 O.2     1  UNL1       -0.2699
     10 N          -9.5544  -17.1232   21.9990 N.am    1  UNL1       -0.2657
     11 O          -6.6467  -17.9980   20.3119 O.2     1  UNL1       -0.2729
     12 C          -7.2452  -18.4157   21.6223 C.2     1  UNL1        0.2451
     13 N          -6.9444  -19.7732   22.1853 N.am    1  UNL1       -0.2988
     14 H          -7.3372  -20.0474   23.0454 H       1  UNL1        0.1498
     15 C          -6.0452  -20.7128   21.4379 C.3     1  UNL1        0.1164
     16 C          -4.6692  -20.2723   21.0346 C.ar    1  UNL1       -0.0024
     17 C          -3.6987  -19.7971   22.0750 C.ar    1  UNL1        0.0005
     18 C          -2.3228  -19.3566   21.6716 C.ar    1  UNL1        0.0369
     19 C          -1.9172  -19.3913   20.2278 C.ar    1  UNL1        0.1468
     20 C          -2.8877  -19.8665   19.1875 C.ar    1  UNL1        0.0369
     21 C          -4.2638  -20.3070   19.5909 C.ar    1  UNL1        0.0005
     22 O          -0.5413  -18.9508   19.8245 O.3     1  UNL1       -0.4045
     23 C          -0.1473  -17.5093   19.9536 C.3     1  UNL1        0.5753
     24 F           0.2467  -16.0677   20.0827 F       1  UNL1       -0.1328
     25 F           1.2045  -17.9236   20.4546 F       1  UNL1       -0.1328
     26 F          -1.4991  -17.0949   19.4527 F       1  UNL1       -0.1328
     27 C         -10.3127  -17.6477   20.8159 C.3     1  UNL1        0.1007
     28 C         -11.6093  -18.3741   21.0181 C.3     1  UNL1        0.0673
     29 C         -12.2127  -18.4642   22.3884 C.ar    1  UNL1        0.0607
     30 C         -13.5913  -17.9279   22.6376 C.ar    1  UNL1        0.0148
     31 C         -14.1947  -18.0179   24.0080 C.ar    1  UNL1        0.0028
     32 C         -13.4195  -18.6443   25.1291 C.ar    1  UNL1        0.0207
     33 C         -12.0411  -19.1806   24.8799 C.ar    1  UNL1        0.0984
     34 N         -11.4377  -19.0906   23.5095 N.ar    1  UNL1       -0.2481
@<TRIPOS>BOND
     1    11    12    2
     2    12    13   am
     3    13    15    1
     4    15    16    1
     5    16    17   ar
     6    17    18   ar
     7    18    19   ar
     8    19    22    1
     9    22    23    1
    10    23    24    1
    11    23    25    1
    12    23    26    1
    13    19    20   ar
    14    20    21   ar
    15    12     1    1
    16     1     2    1
    17     2     3   ar
    18     3     4   ar
    19     4     5   ar
    20     5     6   ar
    21     6     7   ar
    22     7     8    1
    23     8     9    2
    24     8    10   am
    25    10    27    1
    26    27    28    1
    27    28    29    1
    28    29    30   ar
    29    30    31   ar
    30    31    32   ar
    31    32    33   ar
    32    33    34   ar
    33    21    16   ar
    34    10     1    1
    35    34    29   ar
    36     7     2   ar
    37    13    14    1
@<TRIPOS>MOLECULE
*****
 34 37 0 0 0
SMALL
GASTEIGER

@<TRIPOS>ATOM
      1 C           6.1473   -2.8248   27.7792 C.3     1  UNL1        0.1751
      2 C           6.6519   -4.2189   27.5511 C.ar    1  UNL1        0.0089
      3 C           6.8059   -5.0392   26.3048 C.ar    1  UNL1       -0.0021
      4 C           7.3509   -6.4342   26.3877 C.ar    1  UNL1       -0.0003
      5 C           7.7419   -7.0089   27.7169 C.ar    1  UNL1        0.0001
      6 C           7.5880   -6.1885   28.9632 C.ar    1  UNL1        0.0043
      7 C           7.0430   -4.7935   28.8803 C.ar    1  UNL1        0.0516
      8 C           6.7800   -3.7547   29.9299 C.2     1  UNL1        0.2493
      9 O           7.0272   -3.9060   31.4016 O.2     1  UNL1       -0.2699
     10 N           6.2265   -2.5379   29.2494 N.am    1  UNL1       -0.2657
     11 O           6.5416   -0.7884   26.2147 O.2     1  UNL1       -0.2729
     12 C           5.6507   -1.8831   26.7226 C.2     1  UNL1        0.2451
     13 N           4.2630   -2.0359   26.1737 N.am    1  UNL1       -0.2988
     14 H           3.6782   -2.7544   26.5070 H       1  UNL1        0.1498
     15 C           3.7664   -1.0941   25.1171 C.3     1  UNL1        0.1164
     16 C           3.7784   -1.5102   23.6761 C.ar    1  UNL1       -0.0024
     17 C           4.5860   -2.6986   23.2452 C.ar    1  UNL1        0.0005
     18 C           4.5979   -3.1146   21.8041 C.ar    1  UNL1        0.0369
     19 C           3.8023   -2.3422   20.7938 C.ar    1  UNL1        0.1468
     20 C           2.9948   -1.1539   21.2247 C.ar    1  UNL1        0.0369
     21 C           2.9829   -0.7378   22.6659 C.ar    1  UNL1        0.0005
     22 O           3.8143   -2.7583   19.3527 O.3     1  UNL1       -0.4045
     23 C           4.2640   -4.1383   18.9742 C.3     1  UNL1        0.5753
     24 F           4.7137   -5.5183   18.5956 F       1  UNL1       -0.1328
     25 F           2.9078   -4.6759   19.3230 F       1  UNL1       -0.1328
     26 F           5.6202   -3.6007   18.6254 F       1  UNL1       -0.1328
     27 C           5.8229   -1.2589   29.9211 C.3     1  UNL1        0.1007
     28 C           4.5754   -1.2095   30.7525 C.3     1  UNL1        0.0673
     29 C           3.3498   -0.5237   30.2259 C.ar    1  UNL1        0.0607
     30 C           2.6992    0.5670   31.0242 C.ar    1  UNL1        0.0148
     31 C           1.4735    1.2528   30.4976 C.ar    1  UNL1        0.0028
     32 C           0.8984    0.8480   29.1726 C.ar    1  UNL1        0.0207
     33 C           1.5490   -0.2427   28.3744 C.ar    1  UNL1        0.0984
     34 N           2.7746   -0.9285   28.9010 N.ar    1  UNL1       -0.2481
@<TRIPOS>BOND
     1    11    12    2
     2    12    13   am
     3    13    15    1
     4    15    16    1
     5    16    17   ar
     6    17    18   ar
     7    18    19   ar
     8    19    22    1
     9    22    23    1
    10    23    24    1
    11    23    25    1
    12    23    26    1
    13    19    20   ar
    14    20    21   ar
    15    12     1    1
    16     1     2    1
    17     2     3   ar
    18     3     4   ar
    19     4     5   ar
    20     5     6   ar
    21     6     7   ar
    22     7     8    1
    23     8     9    2
    24     8    10   am
    25    10    27    1
    26    27    28    1
    27    28    29    1
    28    29    30   ar
    29    30    31   ar
    30    31    32   ar
    31    32    33   ar
    32    33    34   ar
    33    21    16   ar
    34    10     1    1
    35    34    29   ar
    36     7     2   ar
    37    13    14    1
@<TRIPOS>MOLECULE
*****
 34 37 0 0 0
SMALL
GASTEIGER

@<TRIPOS>ATOM
      1 C         -14.9334   -6.5438   18.2375 C.3     1  UNL1        0.1751
      2 C         -16.2589   -6.8467   18.8709 C.ar    1  UNL1        0.0089
      3 C         -17.3430   -5.9577   19.4042 C.ar    1  UNL1       -0.0021
      4 C         -18.5843   -6.5595   19.9932 C.ar    1  UNL1       -0.0003
      5 C         -18.7415   -8.0502   20.0490 C.ar    1  UNL1        0.0001
      6 C         -17.6574   -8.9391   19.5157 C.ar    1  UNL1        0.0043
      7 C         -16.4161   -8.3374   18.9266 C.ar    1  UNL1        0.0516
      8 C         -15.1878   -8.9557   18.3276 C.2     1  UNL1        0.2493
      9 O         -14.9224  -10.4247   18.1803 O.2     1  UNL1       -0.2699
     10 N         -14.2714   -7.8472   17.9016 N.am    1  UNL1       -0.2657
     11 O         -14.5142   -4.5445   16.6321 O.2     1  UNL1       -0.2729
     12 C         -14.3690   -5.1773   17.9842 C.2     1  UNL1        0.2451
     13 N         -13.6593   -4.4434   19.0834 N.am    1  UNL1       -0.2988
     14 H         -13.5639   -4.8587   19.9709 H       1  UNL1        0.1498
     15 C         -13.0949   -3.0769   18.8302 C.3     1  UNL1        0.1164
     16 C         -13.9635   -1.8649   18.9925 C.ar    1  UNL1       -0.0024
     17 C         -15.2045   -1.9384   19.8320 C.ar    1  UNL1        0.0005
     18 C         -16.0731   -0.7264   19.9943 C.ar    1  UNL1        0.0369
     19 C         -15.7008    0.5594   19.3172 C.ar    1  UNL1        0.1468
     20 C         -14.4599    0.6329   18.4777 C.ar    1  UNL1        0.0369
     21 C         -13.5912   -0.5792   18.3154 C.ar    1  UNL1        0.0005
     22 O         -16.5694    1.7714   19.4795 O.3     1  UNL1       -0.4045
     23 C         -16.6103    2.4944   20.7931 C.3     1  UNL1        0.5753
     24 F         -16.6512    3.2173   22.1068 F       1  UNL1       -0.1328
     25 F         -17.8984    1.8047   21.1326 F       1  UNL1       -0.1328
     26 F         -15.3222    3.1840   20.4537 F       1  UNL1       -0.1328
     27 C         -12.9288   -8.0130   17.2536 C.3     1  UNL1        0.1007
     28 C         -11.6822   -7.6624   18.0106 C.3     1  UNL1        0.0673
     29 C         -10.9986   -6.3503   17.7634 C.ar    1  UNL1        0.0607
     30 C         -10.2608   -5.6675   18.8767 C.ar    1  UNL1        0.0148
     31 C          -9.5772   -4.3554   18.6295 C.ar    1  UNL1        0.0028
     32 C          -9.6314   -3.7262   17.2689 C.ar    1  UNL1        0.0207
     33 C         -10.3693   -4.4090   16.1556 C.ar    1  UNL1        0.0984
     34 N         -11.0529   -5.7210   16.4029 N.ar    1  UNL1       -0.2481
@<TRIPOS>BOND
     1    11    12    2
     2    12    13   am
     3    13    15    1
     4    15    16    1
     5    16    17   ar
     6    17    18   ar
     7    18    19   ar
     8    19    22    1
     9    22    23    1
    10    23    24    1
    11    23    25    1
    12    23    26    1
    13    19    20   ar
    14    20    21   ar
    15    12     1    1
    16     1     2    1
    17     2     3   ar
    18     3     4   ar
    19     4     5   ar
    20     5     6   ar
    21     6     7   ar
    22     7     8    1
    23     8     9    2
    24     8    10   am
    25    10    27    1
    26    27    28    1
    27    28    29    1
    28    29    30   ar
    29    30    31   ar
    30    31    32   ar
    31    32    33   ar
    32    33    34   ar
    33    21    16   ar
    34    10     1    1
    35    34    29   ar
    36     7     2   ar
    37    13    14    1
@<TRIPOS>MOLECULE
*****
 34 37 0 0 0
SMALL
GASTEIGER

@<TRIPOS>ATOM
      1 C           7.6643   -4.5335   23.8323 C.3     1  UNL1        0.1751
      2 C           8.1493   -5.7791   24.5130 C.ar    1  UNL1        0.0089
      3 C           8.9874   -6.9255   24.0299 C.ar    1  UNL1       -0.0021
      4 C           9.3180   -8.0562   24.9583 C.ar    1  UNL1       -0.0003
      5 C           8.8106   -8.0407   26.3698 C.ar    1  UNL1        0.0001
      6 C           7.9724   -6.8943   26.8529 C.ar    1  UNL1        0.0043
      7 C           7.6418   -5.7635   25.9245 C.ar    1  UNL1        0.0516
      8 C           6.8432   -4.5083   26.1161 C.2     1  UNL1        0.2493
      9 O           6.1521   -4.0873   27.3790 O.2     1  UNL1       -0.2699
     10 N           6.8571   -3.7481   24.8231 N.am    1  UNL1       -0.2657
     11 O           7.6723   -5.1147   21.3001 O.2     1  UNL1       -0.2729
     12 C           7.9384   -4.1421   22.4105 C.2     1  UNL1        0.2451
     13 N           8.4787   -2.7778   22.0990 N.am    1  UNL1       -0.2988
     14 H           8.6534   -2.1393   22.8277 H       1  UNL1        0.1498
     15 C           8.7528   -2.3864   20.6771 C.3     1  UNL1        0.1164
     16 C           7.7299   -1.6093   19.9027 C.ar    1  UNL1       -0.0024
     17 C           7.3295   -2.0581   18.5285 C.ar    1  UNL1        0.0005
     18 C           6.3066   -1.2810   17.7542 C.ar    1  UNL1        0.0369
     19 C           5.6839   -0.0551   18.3539 C.ar    1  UNL1        0.1468
     20 C           6.0842    0.3936   19.7281 C.ar    1  UNL1        0.0369
     21 C           7.1073   -0.3835   20.5025 C.ar    1  UNL1        0.0005
     22 O           4.6609    0.7219   17.5795 O.3     1  UNL1       -0.4045
     23 C           3.1995    0.4677   17.8022 C.3     1  UNL1        0.5753
     24 F           1.7381    0.2136   18.0248 F       1  UNL1       -0.1328
     25 F           3.2512   -0.6774   16.8347 F       1  UNL1       -0.1328
     26 F           3.1478    1.6128   18.7697 F       1  UNL1       -0.1328
     27 C           6.1823   -2.4334   24.5659 C.3     1  UNL1        0.1007
     28 C           4.7298   -2.3961   24.1934 C.3     1  UNL1        0.0673
     29 C           4.3222   -2.4949   22.7532 C.ar    1  UNL1        0.0607
     30 C           3.5512   -1.3784   22.1137 C.ar    1  UNL1        0.0148
     31 C           3.1435   -1.4772   20.6735 C.ar    1  UNL1        0.0028
     32 C           3.5068   -2.6926   19.8729 C.ar    1  UNL1        0.0207
     33 C           4.2778   -3.8091   20.5125 C.ar    1  UNL1        0.0984
     34 N           4.6854   -3.7102   21.9526 N.ar    1  UNL1       -0.2481
@<TRIPOS>BOND
     1    11    12    2
     2    12    13   am
     3    13    15    1
     4    15    16    1
     5    16    17   ar
     6    17    18   ar
     7    18    19   ar
     8    19    22    1
     9    22    23    1
    10    23    24    1
    11    23    25    1
    12    23    26    1
    13    19    20   ar
    14    20    21   ar
    15    12     1    1
    16     1     2    1
    17     2     3   ar
    18     3     4   ar
    19     4     5   ar
    20     5     6   ar
    21     6     7   ar
    22     7     8    1
    23     8     9    2
    24     8    10   am
    25    10    27    1
    26    27    28    1
    27    28    29    1
    28    29    30   ar
    29    30    31   ar
    30    31    32   ar
    31    32    33   ar
    32    33    34   ar
    33    21    16   ar
    34    10     1    1
    35    34    29   ar
    36     7     2   ar
    37    13    14    1
@<TRIPOS>MOLECULE
*****
 34 37 0 0 0
SMALL
GASTEIGER

@<TRIPOS>ATOM
      1 C           7.4771   -4.4095   27.8550 C.3     1  UNL1        0.1751
      2 C           7.8102   -5.7737   27.3277 C.ar    1  UNL1        0.0089
      3 C           7.8056   -6.3419   25.9395 C.ar    1  UNL1       -0.0021
      4 C           8.1951   -7.7727   25.7135 C.ar    1  UNL1       -0.0003
      5 C           8.5893   -8.6352   26.8757 C.ar    1  UNL1        0.0001
      6 C           8.5939   -8.0670   28.2638 C.ar    1  UNL1        0.0043
      7 C           8.2044   -6.6363   28.4899 C.ar    1  UNL1        0.0516
      8 C           8.1149   -5.8051   29.7353 C.2     1  UNL1        0.2493
      9 O           8.4211   -6.2689   31.1286 O.2     1  UNL1       -0.2699
     10 N           7.6654   -4.4289   29.3430 N.am    1  UNL1       -0.2657
     11 O           7.8699   -1.9880   26.9994 O.2     1  UNL1       -0.2729
     12 C           7.0336   -3.2325   27.0377 C.2     1  UNL1        0.2451
     13 N           5.7535   -3.3001   26.2585 N.am    1  UNL1       -0.2988
     14 H           5.2045   -4.1169   26.2836 H       1  UNL1        0.1498
     15 C           5.3099   -2.1231   25.4412 C.3     1  UNL1        0.1164
     16 C           4.8919   -2.3162   24.0137 C.ar    1  UNL1       -0.0024
     17 C           5.3783   -3.5086   23.2444 C.ar    1  UNL1        0.0005
     18 C           4.9602   -3.7016   21.8169 C.ar    1  UNL1        0.0369
     19 C           4.0558   -2.7023   21.1584 C.ar    1  UNL1        0.1468
     20 C           3.5694   -1.5099   21.9277 C.ar    1  UNL1        0.0369
     21 C           3.9875   -1.3169   23.3553 C.ar    1  UNL1        0.0005
     22 O           3.6378   -2.8954   19.7309 O.3     1  UNL1       -0.4045
     23 C           4.1249   -4.0873   18.9614 C.3     1  UNL1        0.5753
     24 F           4.6120   -5.2791   18.1919 F       1  UNL1       -0.1328
     25 F           2.9006   -4.8515   19.3701 F       1  UNL1       -0.1328
     26 F           5.3492   -3.3231   18.5527 F       1  UNL1       -0.1328
     27 C           7.4432   -3.2748   30.2749 C.3     1  UNL1        0.1007
     28 C           6.5431   -3.4337   31.4643 C.3     1  UNL1        0.0673
     29 C           5.5787   -2.3432   31.8260 C.ar    1  UNL1        0.0607
     30 C           5.0936   -2.2093   33.2391 C.ar    1  UNL1        0.0148
     31 C           4.1292   -1.1189   33.6009 C.ar    1  UNL1        0.0028
     32 C           3.6499   -0.1623   32.5495 C.ar    1  UNL1        0.0207
     33 C           4.1350   -0.2962   31.1365 C.ar    1  UNL1        0.0984
     34 N           5.0994   -1.3867   30.7747 N.ar    1  UNL1       -0.2481
@<TRIPOS>BOND
     1    11    12    2
     2    12    13   am
     3    13    15    1
     4    15    16    1
     5    16    17   ar
     6    17    18   ar
     7    18    19   ar
     8    19    22    1
     9    22    23    1
    10    23    24    1
    11    23    25    1
    12    23    26    1
    13    19    20   ar
    14    20    21   ar
    15    12     1    1
    16     1     2    1
    17     2     3   ar
    18     3     4   ar
    19     4     5   ar
    20     5     6   ar
    21     6     7   ar
    22     7     8    1
    23     8     9    2
    24     8    10   am
    25    10    27    1
    26    27    28    1
    27    28    29    1
    28    29    30   ar
    29    30    31   ar
    30    31    32   ar
    31    32    33   ar
    32    33    34   ar
    33    21    16   ar
    34    10     1    1
    35    34    29   ar
    36     7     2   ar
    37    13    14    1
