@<TRIPOS>MOLECULE
*****
 32 36 0 0 0
SMALL
GASTEIGER

@<TRIPOS>ATOM
      1 C          -2.2267    5.2089   20.7546 C.2     1  UNL1        0.2496
      2 O          -1.9519    6.6321   20.3690 O.2     1  UNL1       -0.2699
      3 N          -1.2523    4.1301   20.3849 N.am    1  UNL1       -0.2661
      4 C           0.0324    4.3217   19.6347 C.3     1  UNL1        0.1236
      5 C           0.6872    2.9803   19.4866 C.ar    1  UNL1        0.0338
      6 C           1.8859    2.2698   18.9315 C.ar    1  UNL1        0.0991
      7 N           1.7468    0.8099   19.2471 N.ar    1  UNL1       -0.2271
      8 N           0.4620    0.6183   19.9973 N.ar    1  UNL1       -0.1680
      9 C          -0.1928    1.9597   20.1453 C.ar    1  UNL1        0.0981
     10 C          -1.3915    2.6703   20.7005 C.3     1  UNL1        0.1414
     11 C           2.7212   -0.2688   18.8774 C.ar    1  UNL1        0.1042
     12 C           3.5325   -0.1485   17.6214 C.ar    1  UNL1        0.1181
     13 N           4.5069   -1.2272   17.2517 N.ar    1  UNL1       -0.2384
     14 C           4.6701   -2.4264   18.1380 C.ar    1  UNL1        0.1285
     15 C           3.8589   -2.5468   19.3940 C.ar    1  UNL1        0.1607
     16 F           4.0222   -3.7459   20.2802 F       1  UNL1       -0.2025
     17 C           2.8845   -1.4679   19.7636 C.ar    1  UNL1        0.0520
     18 C          -4.6778    4.3466   23.7545 C.ar    1  UNL1        0.0686
     19 C          -5.9747    4.1754   23.0206 C.ar    1  UNL1        0.0103
     20 C          -6.0224    4.3487   21.5314 C.ar    1  UNL1        0.0008
     21 C          -4.7731    4.6932   20.7760 C.ar    1  UNL1        0.0045
     22 C          -3.4761    4.8644   21.5099 C.ar    1  UNL1        0.0543
     23 C          -3.4284    4.6911   22.9990 C.ar    1  UNL1        0.0148
     24 C          -4.8208    4.8665   19.2869 C.ar    1  UNL1        0.0024
     25 C          -5.3356    6.1458   18.6968 C.ar    1  UNL1        0.0001
     26 C          -5.3832    6.3191   17.2076 C.ar    1  UNL1        0.0023
     27 C          -4.9160    5.2131   16.3085 C.ar    1  UNL1        0.0296
     28 C          -4.4012    3.9337   16.8986 C.ar    1  UNL1        0.1401
     29 F          -3.9341    2.8277   15.9994 F       1  UNL1       -0.2042
     30 C          -4.3536    3.7604   18.3877 C.ar    1  UNL1        0.0296
     31 N          -4.5825    4.0000   26.7329 N.1     1  UNL1       -0.1908
     32 C          -4.6301    4.1733   25.2437 C.1     1  UNL1        0.1004
@<TRIPOS>BOND
     1    31    32    3
     2    32    18    1
     3    18    19   ar
     4    19    20   ar
     5    20    21   ar
     6    21    24    1
     7    24    25   ar
     8    25    26   ar
     9    26    27   ar
    10    27    28   ar
    11    28    29    1
    12    28    30   ar
    13    21    22   ar
    14    22     1    1
    15     1     2    2
    16     1     3   am
    17     3     4    1
    18     4     5    1
    19     5     6   ar
    20     6     7   ar
    21     7    11    1
    22    11    12   ar
    23    12    13   ar
    24    13    14   ar
    25    14    15   ar
    26    15    16    1
    27    15    17   ar
    28     7     8   ar
    29     8     9   ar
    30     9    10    1
    31    22    23   ar
    32    23    18   ar
    33    30    24   ar
    34    10     3    1
    35     9     5   ar
    36    17    11   ar
@<TRIPOS>MOLECULE
*****
 32 36 0 0 0
SMALL
GASTEIGER

@<TRIPOS>ATOM
      1 C           4.5248    0.5663   22.6542 C.2     1  UNL1        0.2496
      2 O           5.6865    1.2987   22.0510 O.2     1  UNL1       -0.2699
      3 N           4.5467    0.1915   24.1065 N.am    1  UNL1       -0.2661
      4 C           5.6552    0.4804   25.0749 C.3     1  UNL1        0.1236
      5 C           5.2577   -0.0705   26.4122 C.ar    1  UNL1        0.0338
      6 C           5.6971   -0.2324   27.8373 C.ar    1  UNL1        0.0991
      7 N           4.6145   -0.9620   28.5761 N.ar    1  UNL1       -0.2271
      8 N           3.5060   -1.2509   27.6076 N.ar    1  UNL1       -0.1680
      9 C           3.9036   -0.6999   26.2703 C.ar    1  UNL1        0.0981
     10 C           3.4641   -0.5380   24.8453 C.3     1  UNL1        0.1414
     11 C           4.6365   -1.3367   30.0283 C.ar    1  UNL1        0.1042
     12 C           3.5141   -0.9138   30.9292 C.ar    1  UNL1        0.1181
     13 N           3.5361   -1.2885   32.3814 N.ar    1  UNL1       -0.2384
     14 C           4.6805   -2.0863   32.9329 C.ar    1  UNL1        0.1285
     15 C           5.8029   -2.5092   32.0321 C.ar    1  UNL1        0.1607
     16 F           6.9472   -3.3069   32.5836 F       1  UNL1       -0.2025
     17 C           5.7808   -2.1344   30.5798 C.ar    1  UNL1        0.0520
     18 C           0.9687    0.7644   20.9034 C.ar    1  UNL1        0.0686
     19 C           0.9736   -0.5068   20.1071 C.ar    1  UNL1        0.0103
     20 C           2.1622   -1.4202   20.1598 C.ar    1  UNL1        0.0008
     21 C           3.3459   -1.0626   21.0088 C.ar    1  UNL1        0.0045
     22 C           3.3411    0.2086   21.8052 C.ar    1  UNL1        0.0543
     23 C           2.1525    1.1220   21.7524 C.ar    1  UNL1        0.0148
     24 C           4.5345   -1.9761   21.0616 C.ar    1  UNL1        0.0024
     25 C           4.6453   -3.0005   22.1517 C.ar    1  UNL1        0.0001
     26 C           5.8339   -3.9139   22.2045 C.ar    1  UNL1        0.0023
     27 C           6.9116   -3.8031   21.1671 C.ar    1  UNL1        0.0296
     28 C           6.8008   -2.7787   20.0770 C.ar    1  UNL1        0.1401
     29 F           7.8786   -2.6679   19.0396 F       1  UNL1       -0.2042
     30 C           5.6122   -1.8652   20.0242 C.ar    1  UNL1        0.0296
     31 N          -1.4085    2.5914   20.7979 N.1     1  UNL1       -0.1908
     32 C          -0.2199    1.6779   20.8506 C.1     1  UNL1        0.1004
@<TRIPOS>BOND
     1    31    32    3
     2    32    18    1
     3    18    19   ar
     4    19    20   ar
     5    20    21   ar
     6    21    24    1
     7    24    25   ar
     8    25    26   ar
     9    26    27   ar
    10    27    28   ar
    11    28    29    1
    12    28    30   ar
    13    21    22   ar
    14    22     1    1
    15     1     2    2
    16     1     3   am
    17     3     4    1
    18     4     5    1
    19     5     6   ar
    20     6     7   ar
    21     7    11    1
    22    11    12   ar
    23    12    13   ar
    24    13    14   ar
    25    14    15   ar
    26    15    16    1
    27    15    17   ar
    28     7     8   ar
    29     8     9   ar
    30     9    10    1
    31    22    23   ar
    32    23    18   ar
    33    30    24   ar
    34    10     3    1
    35     9     5   ar
    36    17    11   ar
@<TRIPOS>MOLECULE
*****
 32 36 0 0 0
SMALL
GASTEIGER

@<TRIPOS>ATOM
      1 C          -2.9492    5.6967   21.4699 C.2     1  UNL1        0.2496
      2 O          -2.7120    7.1217   21.0662 O.2     1  UNL1       -0.2699
      3 N          -1.9855    4.6273   21.0482 N.am    1  UNL1       -0.2661
      4 C          -0.7473    4.8306   20.2263 C.3     1  UNL1        0.1236
      5 C          -0.0874    3.4959   20.0446 C.ar    1  UNL1        0.0338
      6 C           1.0858    2.7967   19.4242 C.ar    1  UNL1        0.0991
      7 N           0.9805    1.3363   19.7505 N.ar    1  UNL1       -0.2271
      8 N          -0.2577    1.1331   20.5724 N.ar    1  UNL1       -0.1680
      9 C          -0.9177    2.4678   20.7542 C.ar    1  UNL1        0.0981
     10 C          -2.0908    3.1670   21.3745 C.3     1  UNL1        0.1414
     11 C           1.9442    0.2670   19.3288 C.ar    1  UNL1        0.1042
     12 C           2.1640   -0.9318   20.2032 C.ar    1  UNL1        0.1181
     13 N           3.1276   -2.0011   19.7816 N.ar    1  UNL1       -0.2384
     14 C           3.8716   -1.8716   18.4855 C.ar    1  UNL1        0.1285
     15 C           3.6519   -0.6728   17.6111 C.ar    1  UNL1        0.1607
     16 F           4.3959   -0.5433   16.3150 F       1  UNL1       -0.2025
     17 C           2.6881    0.3965   18.0328 C.ar    1  UNL1        0.0520
     18 C          -5.2665    5.0115   24.6181 C.ar    1  UNL1        0.0686
     19 C          -6.5520    4.6296   23.9461 C.ar    1  UNL1        0.0103
     20 C          -6.6366    4.6035   22.4487 C.ar    1  UNL1        0.0008
     21 C          -5.4358    4.9591   21.6233 C.ar    1  UNL1        0.0045
     22 C          -4.1502    5.3410   22.2953 C.ar    1  UNL1        0.0543
     23 C          -4.0656    5.3671   23.7926 C.ar    1  UNL1        0.0148
     24 C          -5.5204    4.9330   20.1259 C.ar    1  UNL1        0.0024
     25 C          -5.1683    3.6822   19.3766 C.ar    1  UNL1        0.0001
     26 C          -5.2530    3.6560   17.8792 C.ar    1  UNL1        0.0023
     27 C          -5.6896    4.8807   17.1312 C.ar    1  UNL1        0.0296
     28 C          -6.0417    6.1315   17.8805 C.ar    1  UNL1        0.1401
     29 F          -6.4783    7.3561   17.1325 F       1  UNL1       -0.2042
     30 C          -5.9571    6.1576   19.3779 C.ar    1  UNL1        0.0296
     31 N          -5.0973    5.0638   27.6129 N.1     1  UNL1       -0.1908
     32 C          -5.1819    5.0376   26.1155 C.1     1  UNL1        0.1004
@<TRIPOS>BOND
     1    31    32    3
     2    32    18    1
     3    18    19   ar
     4    19    20   ar
     5    20    21   ar
     6    21    24    1
     7    24    25   ar
     8    25    26   ar
     9    26    27   ar
    10    27    28   ar
    11    28    29    1
    12    28    30   ar
    13    21    22   ar
    14    22     1    1
    15     1     2    2
    16     1     3   am
    17     3     4    1
    18     4     5    1
    19     5     6   ar
    20     6     7   ar
    21     7    11    1
    22    11    12   ar
    23    12    13   ar
    24    13    14   ar
    25    14    15   ar
    26    15    16    1
    27    15    17   ar
    28     7     8   ar
    29     8     9   ar
    30     9    10    1
    31    22    23   ar
    32    23    18   ar
    33    30    24   ar
    34    10     3    1
    35     9     5   ar
    36    17    11   ar
@<TRIPOS>MOLECULE
*****
 32 36 0 0 0
SMALL
GASTEIGER

@<TRIPOS>ATOM
      1 C          -0.6802    4.0532   22.2598 C.2     1  UNL1        0.2496
      2 O          -0.0892    5.3794   22.6365 O.2     1  UNL1       -0.2699
      3 N           0.1928    2.9810   21.6782 N.am    1  UNL1       -0.2661
      4 C           1.6659    3.0888   21.4168 C.3     1  UNL1        0.1236
      5 C           2.1296    1.7872   20.8331 C.ar    1  UNL1        0.0338
      6 C           3.3266    1.0494   20.3107 C.ar    1  UNL1        0.0991
      7 N           2.8799   -0.3190   19.8886 N.ar    1  UNL1       -0.2271
      8 N           1.4067   -0.4268   20.1501 N.ar    1  UNL1       -0.1680
      9 C           0.9431    0.8749   20.7338 C.ar    1  UNL1        0.0981
     10 C          -0.2539    1.6127   21.2561 C.3     1  UNL1        0.1414
     11 C           3.7529   -1.3911   19.3071 C.ar    1  UNL1        0.1042
     12 C           4.9389   -1.0193   18.4673 C.ar    1  UNL1        0.1181
     13 N           5.8119   -2.0914   17.8859 N.ar    1  UNL1       -0.2384
     14 C           5.4990   -3.5356   18.1441 C.ar    1  UNL1        0.1285
     15 C           4.3130   -3.9075   18.9839 C.ar    1  UNL1        0.1607
     16 F           4.0002   -5.3516   19.2421 F       1  UNL1       -0.2025
     17 C           3.4400   -2.8352   19.5654 C.ar    1  UNL1        0.0520
     18 C          -4.5439    3.5632   21.4968 C.ar    1  UNL1        0.0686
     19 C          -5.0726    3.2914   22.8740 C.ar    1  UNL1        0.0103
     20 C          -4.1371    3.2735   24.0464 C.ar    1  UNL1        0.0008
     21 C          -2.6730    3.5274   23.8417 C.ar    1  UNL1        0.0045
     22 C          -2.1443    3.7993   22.4645 C.ar    1  UNL1        0.0543
     23 C          -3.0797    3.8172   21.2921 C.ar    1  UNL1        0.0148
     24 C          -1.7376    3.5095   25.0141 C.ar    1  UNL1        0.0024
     25 C          -1.5735    4.7363   25.8615 C.ar    1  UNL1        0.0001
     26 C          -0.6380    4.7184   27.0339 C.ar    1  UNL1        0.0023
     27 C           0.1333    3.4737   27.3590 C.ar    1  UNL1        0.0296
     28 C          -0.0307    2.2469   26.5117 C.ar    1  UNL1        0.1401
     29 F           0.7407    1.0022   26.8368 F       1  UNL1       -0.2042
     30 C          -0.9662    2.2648   25.3392 C.ar    1  UNL1        0.0296
     31 N          -6.4148    3.5990   19.1519 N.1     1  UNL1       -0.1908
     32 C          -5.4794    3.5811   20.3244 C.1     1  UNL1        0.1004
@<TRIPOS>BOND
     1    31    32    3
     2    32    18    1
     3    18    19   ar
     4    19    20   ar
     5    20    21   ar
     6    21    24    1
     7    24    25   ar
     8    25    26   ar
     9    26    27   ar
    10    27    28   ar
    11    28    29    1
    12    28    30   ar
    13    21    22   ar
    14    22     1    1
    15     1     2    2
    16     1     3   am
    17     3     4    1
    18     4     5    1
    19     5     6   ar
    20     6     7   ar
    21     7    11    1
    22    11    12   ar
    23    12    13   ar
    24    13    14   ar
    25    14    15   ar
    26    15    16    1
    27    15    17   ar
    28     7     8   ar
    29     8     9   ar
    30     9    10    1
    31    22    23   ar
    32    23    18   ar
    33    30    24   ar
    34    10     3    1
    35     9     5   ar
    36    17    11   ar
@<TRIPOS>MOLECULE
*****
 32 36 0 0 0
SMALL
GASTEIGER

@<TRIPOS>ATOM
      1 C           1.9569    0.0320   20.2685 C.2     1  UNL1        0.2496
      2 O           0.8832    0.4448   19.3058 O.2     1  UNL1       -0.2699
      3 N           1.7924    0.2995   21.7353 N.am    1  UNL1       -0.2661
      4 C           0.6159    0.9673   22.3832 C.3     1  UNL1        0.1236
      5 C           0.8719    1.0267   23.8600 C.ar    1  UNL1        0.0338
      6 C           0.3030    1.4762   25.1731 C.ar    1  UNL1        0.0991
      7 N           1.2861    1.1228   26.2495 N.ar    1  UNL1       -0.2271
      8 N           2.4626    0.4549   25.6015 N.ar    1  UNL1       -0.1680
      9 C           2.2066    0.3955   24.1247 C.ar    1  UNL1        0.0981
     10 C           2.7756   -0.0540   22.8116 C.3     1  UNL1        0.1414
     11 C           1.1216    1.3902   27.7162 C.ar    1  UNL1        0.1042
     12 C           1.1851    0.2571   28.6970 C.ar    1  UNL1        0.1181
     13 N           1.0206    0.5246   30.1637 N.ar    1  UNL1       -0.2384
     14 C           0.7926    1.9253   30.6497 C.ar    1  UNL1        0.1285
     15 C           0.7290    3.0584   29.6690 C.ar    1  UNL1        0.1607
     16 F           0.5010    4.4591   30.1550 F       1  UNL1       -0.2025
     17 C           0.8936    2.7909   28.2022 C.ar    1  UNL1        0.0520
     18 C           4.4928   -2.8263   19.1962 C.ar    1  UNL1        0.0686
     19 C           5.6713   -2.0092   18.7563 C.ar    1  UNL1        0.0103
     20 C           5.6117   -0.5118   18.8205 C.ar    1  UNL1        0.0008
     21 C           4.3736    0.1686   19.3245 C.ar    1  UNL1        0.0045
     22 C           3.1950   -0.6484   19.7644 C.ar    1  UNL1        0.0543
     23 C           3.2547   -2.1458   19.7002 C.ar    1  UNL1        0.0148
     24 C           4.3140    1.6660   19.3887 C.ar    1  UNL1        0.0024
     25 C           4.8025    2.3843   20.6116 C.ar    1  UNL1        0.0001
     26 C           4.7429    3.8818   20.6757 C.ar    1  UNL1        0.0023
     27 C           4.1948    4.6609   19.5171 C.ar    1  UNL1        0.0296
     28 C           3.7063    3.9426   18.2942 C.ar    1  UNL1        0.1401
     29 F           3.1582    4.7218   17.1355 F       1  UNL1       -0.2042
     30 C           3.7659    2.4452   18.2300 C.ar    1  UNL1        0.0296
     31 N           4.6120   -5.8212   19.0678 N.1     1  UNL1       -0.1908
     32 C           4.5524   -4.3237   19.1320 C.1     1  UNL1        0.1004
@<TRIPOS>BOND
     1    31    32    3
     2    32    18    1
     3    18    19   ar
     4    19    20   ar
     5    20    21   ar
     6    21    24    1
     7    24    25   ar
     8    25    26   ar
     9    26    27   ar
    10    27    28   ar
    11    28    29    1
    12    28    30   ar
    13    21    22   ar
    14    22     1    1
    15     1     2    2
    16     1     3   am
    17     3     4    1
    18     4     5    1
    19     5     6   ar
    20     6     7   ar
    21     7    11    1
    22    11    12   ar
    23    12    13   ar
    24    13    14   ar
    25    14    15   ar
    26    15    16    1
    27    15    17   ar
    28     7     8   ar
    29     8     9   ar
    30     9    10    1
    31    22    23   ar
    32    23    18   ar
    33    30    24   ar
    34    10     3    1
    35     9     5   ar
    36    17    11   ar
@<TRIPOS>MOLECULE
*****
 32 36 0 0 0
SMALL
GASTEIGER

@<TRIPOS>ATOM
      1 C           4.3358    0.5520   21.7911 C.2     1  UNL1        0.2496
      2 O           5.4276    1.1087   20.9263 O.2     1  UNL1       -0.2699
      3 N           4.6742   -0.1031   23.0975 N.am    1  UNL1       -0.2661
      4 C           6.0511   -0.2740   23.6675 C.3     1  UNL1        0.1236
      5 C           5.9229   -0.9787   24.9854 C.ar    1  UNL1        0.0338
      6 C           6.6947   -1.5199   26.1522 C.ar    1  UNL1        0.0991
      7 N           5.7156   -2.1191   27.1179 N.ar    1  UNL1       -0.2271
      8 N           4.3387   -1.9481   26.5478 N.ar    1  UNL1       -0.1680
      9 C           4.4668   -1.2434   25.2298 C.ar    1  UNL1        0.0981
     10 C           3.6950   -0.7022   24.0630 C.3     1  UNL1        0.1414
     11 C           6.0540   -2.7741   28.4241 C.ar    1  UNL1        0.1042
     12 C           5.9995   -1.9819   29.6967 C.ar    1  UNL1        0.1181
     13 N           6.3379   -2.6369   31.0030 N.ar    1  UNL1       -0.2384
     14 C           6.7307   -4.0842   31.0367 C.ar    1  UNL1        0.1285
     15 C           6.7852   -4.8764   29.7642 C.ar    1  UNL1        0.1607
     16 F           7.1780   -6.3237   29.7979 F       1  UNL1       -0.2025
     17 C           6.4468   -4.2213   28.4579 C.ar    1  UNL1        0.0520
     18 C           0.5527    1.7305   21.5678 C.ar    1  UNL1        0.0686
     19 C           0.0452    0.8471   20.4669 C.ar    1  UNL1        0.0103
     20 C           0.9678   -0.1346   19.8074 C.ar    1  UNL1        0.0008
     21 C           2.3980   -0.2330   20.2487 C.ar    1  UNL1        0.0045
     22 C           2.9056    0.6503   21.3497 C.ar    1  UNL1        0.0543
     23 C           1.9830    1.6321   22.0092 C.ar    1  UNL1        0.0148
     24 C           3.3206   -1.2147   19.5892 C.ar    1  UNL1        0.0024
     25 C           4.2052   -0.7718   18.4617 C.ar    1  UNL1        0.0001
     26 C           5.1278   -1.7535   17.8022 C.ar    1  UNL1        0.0023
     27 C           5.1659   -3.1782   18.2702 C.ar    1  UNL1        0.0296
     28 C           4.2813   -3.6211   19.3978 C.ar    1  UNL1        0.1401
     29 F           4.3194   -5.0457   19.8658 F       1  UNL1       -0.2042
     30 C           3.3587   -2.6393   20.0573 C.ar    1  UNL1        0.0296
     31 N          -1.2926    3.6939   22.8868 N.1     1  UNL1       -0.1908
     32 C          -0.3699    2.7122   22.2273 C.1     1  UNL1        0.1004
@<TRIPOS>BOND
     1    31    32    3
     2    32    18    1
     3    18    19   ar
     4    19    20   ar
     5    20    21   ar
     6    21    24    1
     7    24    25   ar
     8    25    26   ar
     9    26    27   ar
    10    27    28   ar
    11    28    29    1
    12    28    30   ar
    13    21    22   ar
    14    22     1    1
    15     1     2    2
    16     1     3   am
    17     3     4    1
    18     4     5    1
    19     5     6   ar
    20     6     7   ar
    21     7    11    1
    22    11    12   ar
    23    12    13   ar
    24    13    14   ar
    25    14    15   ar
    26    15    16    1
    27    15    17   ar
    28     7     8   ar
    29     8     9   ar
    30     9    10    1
    31    22    23   ar
    32    23    18   ar
    33    30    24   ar
    34    10     3    1
    35     9     5   ar
    36    17    11   ar
@<TRIPOS>MOLECULE
*****
 32 36 0 0 0
SMALL
GASTEIGER

@<TRIPOS>ATOM
      1 C           2.4876    0.8889   19.4650 C.2     1  UNL1        0.2496
      2 O           1.4037    0.3960   18.5528 O.2     1  UNL1       -0.2699
      3 N           2.2180    1.0498   20.9318 N.am    1  UNL1       -0.2661
      4 C           0.9210    0.7589   21.6269 C.3     1  UNL1        0.1236
      5 C           1.0995    1.0591   23.0857 C.ar    1  UNL1        0.0338
      6 C           0.4082    1.0649   24.4169 C.ar    1  UNL1        0.0991
      7 N           1.3883    1.5448   25.4461 N.ar    1  UNL1       -0.2271
      8 N           2.6853    1.8356   24.7509 N.ar    1  UNL1       -0.1680
      9 C           2.5068    1.5355   23.2921 C.ar    1  UNL1        0.0981
     10 C           3.1981    1.5297   21.9609 C.3     1  UNL1        0.1414
     11 C           1.1187    1.7057   26.9128 C.ar    1  UNL1        0.1042
     12 C           2.0014    2.5876   27.7454 C.ar    1  UNL1        0.1181
     13 N           1.7318    2.7485   29.2120 N.ar    1  UNL1       -0.2384
     14 C           0.5795    2.0273   29.8464 C.ar    1  UNL1        0.1285
     15 C          -0.3032    1.1454   29.0139 C.ar    1  UNL1        0.1607
     16 F          -1.4555    0.4243   29.6482 F       1  UNL1       -0.2025
     17 C          -0.0336    0.9846   27.5471 C.ar    1  UNL1        0.0520
     18 C           5.4444    2.8993   17.7427 C.ar    1  UNL1        0.0686
     19 C           6.5482    1.8853   17.8010 C.ar    1  UNL1        0.0103
     20 C           6.2985    0.5392   18.4139 C.ar    1  UNL1        0.0008
     21 C           4.9450    0.2070   18.9685 C.ar    1  UNL1        0.0045
     22 C           3.8411    1.2210   18.9103 C.ar    1  UNL1        0.0543
     23 C           4.0908    2.5671   18.2974 C.ar    1  UNL1        0.0148
     24 C           4.6953   -1.1390   19.5814 C.ar    1  UNL1        0.0024
     25 C           5.2147   -1.4458   20.9548 C.ar    1  UNL1        0.0001
     26 C           4.9650   -2.7919   21.5677 C.ar    1  UNL1        0.0023
     27 C           4.1959   -3.8312   20.8072 C.ar    1  UNL1        0.0296
     28 C           3.6766   -3.5245   19.4339 C.ar    1  UNL1        0.1401
     29 F           2.9075   -4.5639   18.6734 F       1  UNL1       -0.2042
     30 C           3.9263   -2.1784   18.8210 C.ar    1  UNL1        0.0296
     31 N           5.9438    5.5915   16.5169 N.1     1  UNL1       -0.1908
     32 C           5.6941    4.2454   17.1298 C.1     1  UNL1        0.1004
@<TRIPOS>BOND
     1    31    32    3
     2    32    18    1
     3    18    19   ar
     4    19    20   ar
     5    20    21   ar
     6    21    24    1
     7    24    25   ar
     8    25    26   ar
     9    26    27   ar
    10    27    28   ar
    11    28    29    1
    12    28    30   ar
    13    21    22   ar
    14    22     1    1
    15     1     2    2
    16     1     3   am
    17     3     4    1
    18     4     5    1
    19     5     6   ar
    20     6     7   ar
    21     7    11    1
    22    11    12   ar
    23    12    13   ar
    24    13    14   ar
    25    14    15   ar
    26    15    16    1
    27    15    17   ar
    28     7     8   ar
    29     8     9   ar
    30     9    10    1
    31    22    23   ar
    32    23    18   ar
    33    30    24   ar
    34    10     3    1
    35     9     5   ar
    36    17    11   ar
@<TRIPOS>MOLECULE
*****
 32 36 0 0 0
SMALL
GASTEIGER

@<TRIPOS>ATOM
      1 C           5.5369   -0.0280   21.4396 C.2     1  UNL1        0.2496
      2 O           6.1182    1.1055   20.6476 O.2     1  UNL1       -0.2699
      3 N           4.8451    0.2445   22.7423 N.am    1  UNL1       -0.2661
      4 C           4.6583    1.5909   23.3766 C.3     1  UNL1        0.1236
      5 C           3.9163    1.3970   24.6657 C.ar    1  UNL1        0.0338
      6 C           3.3423    2.1094   25.8545 C.ar    1  UNL1        0.0991
      7 N           2.7157    1.0833   26.7516 N.ar    1  UNL1       -0.2271
      8 N           2.9026   -0.2631   26.1173 N.ar    1  UNL1       -0.1680
      9 C           3.6445   -0.0692   24.8281 C.ar    1  UNL1        0.0981
     10 C           4.2185   -0.7815   23.6394 C.3     1  UNL1        0.1414
     11 C           2.0239    1.3559   28.0543 C.ar    1  UNL1        0.1042
     12 C           1.7144    0.2251   28.9901 C.ar    1  UNL1        0.1181
     13 N           1.0226    0.4977   30.2928 N.ar    1  UNL1       -0.2384
     14 C           0.6402    1.9010   30.6597 C.ar    1  UNL1        0.1285
     15 C           0.9496    3.0317   29.7239 C.ar    1  UNL1        0.1607
     16 F           0.5672    4.4350   30.0909 F       1  UNL1       -0.2025
     17 C           1.6415    2.7591   28.4212 C.ar    1  UNL1        0.0520
     18 C           6.9139   -3.7007   20.8349 C.ar    1  UNL1        0.0686
     19 C           5.8688   -4.2462   19.9075 C.ar    1  UNL1        0.0103
     20 C           4.7131   -3.3856   19.4907 C.ar    1  UNL1        0.0008
     21 C           4.6024   -1.9796   20.0014 C.ar    1  UNL1        0.0045
     22 C           5.6475   -1.4340   20.9289 C.ar    1  UNL1        0.0543
     23 C           6.8032   -2.2946   21.3456 C.ar    1  UNL1        0.0148
     24 C           3.4467   -1.1190   19.5846 C.ar    1  UNL1        0.0024
     25 C           3.5488   -0.2722   18.3507 C.ar    1  UNL1        0.0001
     26 C           2.3930    0.5883   17.9339 C.ar    1  UNL1        0.0023
     27 C           1.1352    0.6021   18.7511 C.ar    1  UNL1        0.0296
     28 C           1.0331   -0.2446   19.9850 C.ar    1  UNL1        0.1401
     29 F          -0.2247   -0.2308   20.8021 F       1  UNL1       -0.2042
     30 C           2.1889   -1.1052   20.4017 C.ar    1  UNL1        0.0296
     31 N           9.2254   -5.4219   21.6684 N.1     1  UNL1       -0.1908
     32 C           8.0697   -4.5613   21.2517 C.1     1  UNL1        0.1004
@<TRIPOS>BOND
     1    31    32    3
     2    32    18    1
     3    18    19   ar
     4    19    20   ar
     5    20    21   ar
     6    21    24    1
     7    24    25   ar
     8    25    26   ar
     9    26    27   ar
    10    27    28   ar
    11    28    29    1
    12    28    30   ar
    13    21    22   ar
    14    22     1    1
    15     1     2    2
    16     1     3   am
    17     3     4    1
    18     4     5    1
    19     5     6   ar
    20     6     7   ar
    21     7    11    1
    22    11    12   ar
    23    12    13   ar
    24    13    14   ar
    25    14    15   ar
    26    15    16    1
    27    15    17   ar
    28     7     8   ar
    29     8     9   ar
    30     9    10    1
    31    22    23   ar
    32    23    18   ar
    33    30    24   ar
    34    10     3    1
    35     9     5   ar
    36    17    11   ar
@<TRIPOS>MOLECULE
*****
 32 36 0 0 0
SMALL
GASTEIGER

@<TRIPOS>ATOM
      1 C          -1.4654    5.2428   23.7209 C.2     1  UNL1        0.2496
      2 O          -0.8455    6.5722   24.0349 O.2     1  UNL1       -0.2699
      3 N          -0.6974    4.2251   22.9307 N.am    1  UNL1       -0.2661
      4 C           0.6918    4.3934   22.3906 C.3     1  UNL1        0.1236
      5 C           1.0641    3.1327   21.6680 C.ar    1  UNL1        0.0338
      6 C           2.1527    2.4576   20.8876 C.ar    1  UNL1        0.0991
      7 N           1.6664    1.0928   20.4988 N.ar    1  UNL1       -0.2271
      8 N           0.2772    0.9246   21.0391 N.ar    1  UNL1       -0.1680
      9 C          -0.0951    2.1853   21.7616 C.ar    1  UNL1        0.0981
     10 C          -1.1837    2.8604   22.5420 C.3     1  UNL1        0.1414
     11 C           2.4344    0.0752   19.7087 C.ar    1  UNL1        0.1042
     12 C           2.9286    0.4109   18.3328 C.ar    1  UNL1        0.1181
     13 N           3.6966   -0.6068   17.5427 N.ar    1  UNL1       -0.2384
     14 C           3.9705   -1.9604   18.1284 C.ar    1  UNL1        0.1285
     15 C           3.4763   -2.2961   19.5043 C.ar    1  UNL1        0.1607
     16 F           3.7502   -3.6496   20.0900 F       1  UNL1       -0.2025
     17 C           2.7083   -1.2783   20.2944 C.ar    1  UNL1        0.0520
     18 C          -5.4224    4.9519   23.8103 C.ar    1  UNL1        0.0686
     19 C          -5.6291    4.3081   25.1493 C.ar    1  UNL1        0.0103
     20 C          -4.4479    3.9759   26.0121 C.ar    1  UNL1        0.0008
     21 C          -3.0600    4.2874   25.5360 C.ar    1  UNL1        0.0045
     22 C          -2.8532    4.9312   24.1971 C.ar    1  UNL1        0.0543
     23 C          -4.0344    5.2635   23.3342 C.ar    1  UNL1        0.0148
     24 C          -1.8789    3.9552   26.3988 C.ar    1  UNL1        0.0024
     25 C          -1.2864    5.0023   27.2947 C.ar    1  UNL1        0.0001
     26 C          -0.1052    4.6700   28.1575 C.ar    1  UNL1        0.0023
     27 C           0.4835    3.2908   28.1245 C.ar    1  UNL1        0.0296
     28 C          -0.1090    2.2437   27.2286 C.ar    1  UNL1        0.1401
     29 F           0.4797    0.8644   27.1955 F       1  UNL1       -0.2042
     30 C          -1.2902    2.5759   26.3658 C.ar    1  UNL1        0.0296
     31 N          -7.7847    5.6163   22.0847 N.1     1  UNL1       -0.1908
     32 C          -6.6035    5.2841   22.9475 C.1     1  UNL1        0.1004
@<TRIPOS>BOND
     1    31    32    3
     2    32    18    1
     3    18    19   ar
     4    19    20   ar
     5    20    21   ar
     6    21    24    1
     7    24    25   ar
     8    25    26   ar
     9    26    27   ar
    10    27    28   ar
    11    28    29    1
    12    28    30   ar
    13    21    22   ar
    14    22     1    1
    15     1     2    2
    16     1     3   am
    17     3     4    1
    18     4     5    1
    19     5     6   ar
    20     6     7   ar
    21     7    11    1
    22    11    12   ar
    23    12    13   ar
    24    13    14   ar
    25    14    15   ar
    26    15    16    1
    27    15    17   ar
    28     7     8   ar
    29     8     9   ar
    30     9    10    1
    31    22    23   ar
    32    23    18   ar
    33    30    24   ar
    34    10     3    1
    35     9     5   ar
    36    17    11   ar
