@<TRIPOS>MOLECULE
*****
 30 33 0 0 0
SMALL
GASTEIGER

@<TRIPOS>ATOM
      1 C           6.1979   -3.0780   22.1599 C.3     1  UNL1        0.0999
      2 C           6.2045   -3.8006   23.4744 C.3     1  UNL1        0.1138
      3 N           7.4803   -4.3878   24.0010 N.pl3   1  UNL1       -0.2763
      4 C           8.7496   -4.2525   23.2132 C.3     1  UNL1        0.1107
      5 C           8.7430   -3.5299   21.8987 C.3     1  UNL1        0.0906
      6 N           7.4671   -2.9427   21.3721 N.3     1  UNL1       -0.2922
      7 H           7.2972   -3.3743   20.4636 H       1  UNL1        0.1236
      8 C           7.4869   -5.1103   25.3155 C.ar    1  UNL1        0.2035
      9 N           7.1709   -4.3688   26.5806 N.ar    1  UNL1       -0.2133
     10 C           7.1775   -5.0914   27.8950 C.ar    1  UNL1        0.1065
     11 C           7.5001   -6.5554   27.9445 C.ar    1  UNL1        0.0815
     12 C           7.8161   -7.2970   26.6795 C.ar    1  UNL1        0.2646
     13 O           8.1386   -8.7611   26.7289 O.2     1  UNL1       -0.2668
     14 N           7.8095   -6.5745   25.3650 N.ar    1  UNL1       -0.2667
     15 C           8.1254   -7.3160   24.0999 C.3     1  UNL1        0.1363
     16 C           6.8615   -4.3498   29.1601 C.ar    1  UNL1        0.1024
     17 C           7.0267   -5.0276   30.4880 C.ar    1  UNL1        0.0414
     18 C           6.7107   -4.2860   31.7529 C.ar    1  UNL1        0.1023
     19 N           6.2296   -2.8667   31.6900 N.ar    1  UNL1       -0.2224
     20 C           6.0644   -2.1889   30.3622 C.ar    1  UNL1        0.1989
     21 N           6.3804   -2.9305   29.0972 N.ar    1  UNL1       -0.2224
     22 C           4.4640   -2.8171   20.2427 C.ar    1  UNL1        0.1382
     23 C           3.1882   -2.2299   19.7161 C.ar    1  UNL1        0.0662
     24 C           2.3703   -1.3163   20.5801 C.ar    1  UNL1        0.1431
     25 F           1.0944   -0.7291   20.0534 F       1  UNL1       -0.2041
     26 C           2.8282   -0.9900   21.9707 C.ar    1  UNL1        0.0296
     27 C           4.1041   -1.5773   22.4973 C.ar    1  UNL1        0.0024
     28 C           4.9220   -2.4908   21.6332 C.ar    1  UNL1        0.0278
     29 C           4.6737   -4.9867   18.8289 C.3     1  UNL1        0.2525
     30 O           5.2819   -3.7306   19.3787 O.3     1  UNL1       -0.4716
@<TRIPOS>BOND
     1    29    30    1
     2    30    22    1
     3    22    23   ar
     4    23    24   ar
     5    24    25    1
     6    24    26   ar
     7    26    27   ar
     8    27    28   ar
     9    28     1    1
    10     1     2    1
    11     2     3    1
    12     3     8    1
    13     8     9   ar
    14     9    10   ar
    15    10    16    1
    16    16    17   ar
    17    17    18   ar
    18    18    19   ar
    19    19    20   ar
    20    20    21   ar
    21    10    11   ar
    22    11    12   ar
    23    12    13    2
    24    12    14   ar
    25    14    15    1
    26     3     4    1
    27     4     5    1
    28     5     6    1
    29    28    22   ar
    30     6     1    1
    31    14     8   ar
    32    21    16   ar
    33     6     7    1
@<TRIPOS>MOLECULE
*****
 30 33 0 0 0
SMALL
GASTEIGER

@<TRIPOS>ATOM
      1 C           7.5576   -3.5410   24.3296 C.3     1  UNL1        0.0999
      2 C           6.8835   -3.3209   23.0078 C.3     1  UNL1        0.1138
      3 N           6.9164   -1.9658   22.3655 N.pl3   1  UNL1       -0.2763
      4 C           7.6233   -0.8307   23.0451 C.3     1  UNL1        0.1107
      5 C           8.2974   -1.0507   24.3669 C.3     1  UNL1        0.0906
      6 N           8.2645   -2.4059   25.0092 N.3     1  UNL1       -0.2922
      7 H           7.8240   -2.2887   25.9216 H       1  UNL1        0.1236
      8 C           6.2423   -1.7457   21.0437 C.ar    1  UNL1        0.2035
      9 N           4.8725   -1.1366   20.9926 N.ar    1  UNL1       -0.2133
     10 C           4.1984   -0.9165   19.6708 C.ar    1  UNL1        0.1065
     11 C           4.8941   -1.3056   18.4001 C.ar    1  UNL1        0.0815
     12 C           6.2639   -1.9148   18.4512 C.ar    1  UNL1        0.2646
     13 O           6.9596   -2.3039   17.1806 O.2     1  UNL1       -0.2668
     14 N           6.9380   -2.1349   19.7730 N.ar    1  UNL1       -0.2667
     15 C           8.3078   -2.7440   19.8242 C.3     1  UNL1        0.1363
     16 C           2.8286   -0.3074   19.6196 C.ar    1  UNL1        0.1024
     17 C           1.8758   -0.5073   20.7608 C.ar    1  UNL1        0.0414
     18 C           0.5061    0.1019   20.7096 C.ar    1  UNL1        0.1023
     19 N           0.0891    0.9110   19.5173 N.ar    1  UNL1       -0.2224
     20 C           1.0419    1.1109   18.3762 C.ar    1  UNL1        0.1989
     21 N           2.4116    0.5017   18.4274 N.ar    1  UNL1       -0.2224
     22 C           6.9989   -5.0519   26.3680 C.ar    1  UNL1        0.1382
     23 C           6.9661   -6.4070   27.0102 C.ar    1  UNL1        0.0662
     24 C           7.4589   -7.6065   26.2563 C.ar    1  UNL1        0.1431
     25 F           7.4260   -8.9617   26.8985 F       1  UNL1       -0.2041
     26 C           7.9846   -7.4507   24.8601 C.ar    1  UNL1        0.0296
     27 C           8.0175   -6.0956   24.2179 C.ar    1  UNL1        0.0024
     28 C           7.5247   -4.8962   24.9719 C.ar    1  UNL1        0.0278
     29 C           6.4743   -3.8702   28.6215 C.3     1  UNL1        0.2525
     30 O           6.5061   -3.8525   27.1220 O.3     1  UNL1       -0.4716
@<TRIPOS>BOND
     1    29    30    1
     2    30    22    1
     3    22    23   ar
     4    23    24   ar
     5    24    25    1
     6    24    26   ar
     7    26    27   ar
     8    27    28   ar
     9    28     1    1
    10     1     2    1
    11     2     3    1
    12     3     8    1
    13     8     9   ar
    14     9    10   ar
    15    10    16    1
    16    16    17   ar
    17    17    18   ar
    18    18    19   ar
    19    19    20   ar
    20    20    21   ar
    21    10    11   ar
    22    11    12   ar
    23    12    13    2
    24    12    14   ar
    25    14    15    1
    26     3     4    1
    27     4     5    1
    28     5     6    1
    29    28    22   ar
    30     6     1    1
    31    14     8   ar
    32    21    16   ar
    33     6     7    1
@<TRIPOS>MOLECULE
*****
 30 33 0 0 0
SMALL
GASTEIGER

@<TRIPOS>ATOM
      1 C         -10.1816  -18.7552   22.0812 C.3     1  UNL1        0.0999
      2 C          -8.8821  -18.1946   22.5781 C.3     1  UNL1        0.1138
      3 N          -7.6390  -18.3359   21.7508 N.pl3   1  UNL1       -0.2763
      4 C          -7.6953  -19.0378   20.4263 C.3     1  UNL1        0.1107
      5 C          -8.9948  -19.5985   19.9293 C.3     1  UNL1        0.0906
      6 N         -10.2380  -19.4571   20.7568 N.3     1  UNL1       -0.2922
      7 H         -10.5799  -20.4009   20.9380 H       1  UNL1        0.1236
      8 C          -6.3395  -17.7752   22.2478 C.ar    1  UNL1        0.2035
      9 N          -5.0579  -18.1192   21.5483 N.ar    1  UNL1       -0.2133
     10 C          -3.7584  -17.5585   22.0453 C.ar    1  UNL1        0.1065
     11 C          -3.7405  -16.6540   23.2417 C.ar    1  UNL1        0.0815
     12 C          -5.0221  -16.3100   23.9412 C.ar    1  UNL1        0.2646
     13 O          -5.0042  -15.4055   25.1376 O.2     1  UNL1       -0.2668
     14 N          -6.3216  -16.8707   23.4442 N.ar    1  UNL1       -0.2667
     15 C          -7.6032  -16.5268   24.1437 C.3     1  UNL1        0.1363
     16 C          -2.4768  -17.9025   21.3458 C.ar    1  UNL1        0.1024
     17 C          -1.5523  -16.8109   20.8947 C.ar    1  UNL1        0.0414
     18 C          -0.2707  -17.1549   20.1953 C.ar    1  UNL1        0.1023
     19 N           0.0863  -18.5904   19.9470 N.ar    1  UNL1       -0.2224
     20 C          -0.8382  -19.6820   20.3981 C.ar    1  UNL1        0.1989
     21 N          -2.1198  -19.3381   21.0976 N.ar    1  UNL1       -0.2224
     22 C         -12.6630  -18.0190   22.3063 C.ar    1  UNL1        0.1382
     23 C         -13.9061  -17.8777   23.1338 C.ar    1  UNL1        0.0662
     24 C         -13.9109  -18.3312   24.5636 C.ar    1  UNL1        0.1431
     25 F         -15.1541  -18.1898   25.3910 F       1  UNL1       -0.2041
     26 C         -12.6727  -18.9260   25.1659 C.ar    1  UNL1        0.0296
     27 C         -11.4296  -19.0673   24.3384 C.ar    1  UNL1        0.0024
     28 C         -11.4248  -18.6138   22.9086 C.ar    1  UNL1        0.0278
     29 C         -12.0935  -16.2231   20.5174 C.3     1  UNL1        0.2525
     30 O         -12.6582  -17.5655   20.8765 O.3     1  UNL1       -0.4716
@<TRIPOS>BOND
     1    29    30    1
     2    30    22    1
     3    22    23   ar
     4    23    24   ar
     5    24    25    1
     6    24    26   ar
     7    26    27   ar
     8    27    28   ar
     9    28     1    1
    10     1     2    1
    11     2     3    1
    12     3     8    1
    13     8     9   ar
    14     9    10   ar
    15    10    16    1
    16    16    17   ar
    17    17    18   ar
    18    18    19   ar
    19    19    20   ar
    20    20    21   ar
    21    10    11   ar
    22    11    12   ar
    23    12    13    2
    24    12    14   ar
    25    14    15    1
    26     3     4    1
    27     4     5    1
    28     5     6    1
    29    28    22   ar
    30     6     1    1
    31    14     8   ar
    32    21    16   ar
    33     6     7    1
@<TRIPOS>MOLECULE
*****
 30 33 0 0 0
SMALL
GASTEIGER

@<TRIPOS>ATOM
      1 C           3.4387   -0.2837   22.7125 C.3     1  UNL1        0.0999
      2 C           2.8982   -0.4514   24.1016 C.3     1  UNL1        0.1138
      3 N           2.7015    0.7487   24.9798 N.pl3   1  UNL1       -0.2763
      4 C           3.0454    2.1164   24.4688 C.3     1  UNL1        0.1107
      5 C           3.5860    2.2841   23.0797 C.3     1  UNL1        0.0906
      6 N           3.7826    1.0840   22.2015 N.3     1  UNL1       -0.2922
      7 H           4.7703    1.0637   21.9475 H       1  UNL1        0.1236
      8 C           2.1610    0.5810   26.3689 C.ar    1  UNL1        0.2035
      9 N           3.0542    0.0831   27.4663 N.ar    1  UNL1       -0.2133
     10 C           2.5137   -0.0845   28.8554 C.ar    1  UNL1        0.1065
     11 C           1.0799    0.2457   29.1472 C.ar    1  UNL1        0.0815
     12 C           0.1866    0.7436   28.0498 C.ar    1  UNL1        0.2646
     13 O          -1.2472    1.0739   28.3416 O.2     1  UNL1       -0.2668
     14 N           0.7271    0.9113   26.6607 N.ar    1  UNL1       -0.2667
     15 C          -0.1661    1.4092   25.5634 C.3     1  UNL1        0.1363
     16 C           3.4070   -0.5825   29.9528 C.ar    1  UNL1        0.1024
     17 C           4.8502   -0.8770   29.6695 C.ar    1  UNL1        0.0414
     18 C           5.7434   -1.3749   30.7668 C.ar    1  UNL1        0.1023
     19 N           5.1934   -1.5783   32.1474 N.ar    1  UNL1       -0.2224
     20 C           3.7502   -1.2838   32.4307 C.ar    1  UNL1        0.1989
     21 N           2.8570   -0.7859   31.3334 N.ar    1  UNL1       -0.2224
     22 C           3.1139   -1.4776   20.4279 C.ar    1  UNL1        0.1382
     23 C           3.3106   -2.6777   19.5498 C.ar    1  UNL1        0.0662
     24 C           4.0287   -3.8840   20.0781 C.ar    1  UNL1        0.1431
     25 F           4.2254   -5.0841   19.2000 F       1  UNL1       -0.2041
     26 C           4.5502   -3.8902   21.4845 C.ar    1  UNL1        0.0296
     27 C           4.3535   -2.6901   22.3626 C.ar    1  UNL1        0.0024
     28 C           3.6354   -1.4838   21.8343 C.ar    1  UNL1        0.0278
     29 C           0.9021   -0.1823   20.0039 C.3     1  UNL1        0.2525
     30 O           2.3957   -0.2713   19.8996 O.3     1  UNL1       -0.4716
@<TRIPOS>BOND
     1    29    30    1
     2    30    22    1
     3    22    23   ar
     4    23    24   ar
     5    24    25    1
     6    24    26   ar
     7    26    27   ar
     8    27    28   ar
     9    28     1    1
    10     1     2    1
    11     2     3    1
    12     3     8    1
    13     8     9   ar
    14     9    10   ar
    15    10    16    1
    16    16    17   ar
    17    17    18   ar
    18    18    19   ar
    19    19    20   ar
    20    20    21   ar
    21    10    11   ar
    22    11    12   ar
    23    12    13    2
    24    12    14   ar
    25    14    15    1
    26     3     4    1
    27     4     5    1
    28     5     6    1
    29    28    22   ar
    30     6     1    1
    31    14     8   ar
    32    21    16   ar
    33     6     7    1
@<TRIPOS>MOLECULE
*****
 30 33 0 0 0
SMALL
GASTEIGER

@<TRIPOS>ATOM
      1 C           3.5509   -0.2414   21.4388 C.3     1  UNL1        0.0999
      2 C           2.5773    0.0081   22.5523 C.3     1  UNL1        0.1138
      3 N           2.4035    1.3936   23.1002 N.pl3   1  UNL1       -0.2763
      4 C           3.2034    2.5296   22.5347 C.3     1  UNL1        0.1107
      5 C           4.1770    2.2801   21.4212 C.3     1  UNL1        0.0906
      6 N           4.3507    0.8945   20.8733 N.3     1  UNL1       -0.2922
      7 H           5.3339    0.6512   20.9941 H       1  UNL1        0.1236
      8 C           1.4299    1.6431   24.2137 C.ar    1  UNL1        0.2035
      9 N           1.7863    1.2642   25.6206 N.ar    1  UNL1       -0.2133
     10 C           0.8127    1.5138   26.7341 C.ar    1  UNL1        0.1065
     11 C          -0.5173    2.1421   26.4407 C.ar    1  UNL1        0.0815
     12 C          -0.8738    2.5210   25.0337 C.ar    1  UNL1        0.2646
     13 O          -2.2038    3.1494   24.7403 O.2     1  UNL1       -0.2668
     14 N           0.0998    2.2715   23.9202 N.ar    1  UNL1       -0.2667
     15 C          -0.2566    2.6504   22.5133 C.3     1  UNL1        0.1363
     16 C           1.1692    1.1349   28.1410 C.ar    1  UNL1        0.1024
     17 C           0.8046    2.0432   29.2776 C.ar    1  UNL1        0.0414
     18 C           1.1611    1.6643   30.6845 C.ar    1  UNL1        0.1023
     19 N           1.8821    0.3770   30.9547 N.ar    1  UNL1       -0.2224
     20 C           2.2467   -0.5313   29.8181 C.ar    1  UNL1        0.1989
     21 N           1.8902   -0.1524   28.4113 N.ar    1  UNL1       -0.2224
     22 C           3.4789   -1.8941   19.4355 C.ar    1  UNL1        0.1382
     23 C           3.6526   -3.2796   18.8876 C.ar    1  UNL1        0.0662
     24 C           4.0721   -4.3979   19.7951 C.ar    1  UNL1        0.1431
     25 F           4.2458   -5.7834   19.2471 F       1  UNL1       -0.2041
     26 C           4.3178   -4.1307   21.2505 C.ar    1  UNL1        0.0296
     27 C           4.1441   -2.7452   21.7983 C.ar    1  UNL1        0.0024
     28 C           3.7246   -1.6269   20.8908 C.ar    1  UNL1        0.0278
     29 C           3.8157   -0.5160   17.2590 C.3     1  UNL1        0.2525
     30 O           3.0594   -0.7759   18.5280 O.3     1  UNL1       -0.4716
@<TRIPOS>BOND
     1    29    30    1
     2    30    22    1
     3    22    23   ar
     4    23    24   ar
     5    24    25    1
     6    24    26   ar
     7    26    27   ar
     8    27    28   ar
     9    28     1    1
    10     1     2    1
    11     2     3    1
    12     3     8    1
    13     8     9   ar
    14     9    10   ar
    15    10    16    1
    16    16    17   ar
    17    17    18   ar
    18    18    19   ar
    19    19    20   ar
    20    20    21   ar
    21    10    11   ar
    22    11    12   ar
    23    12    13    2
    24    12    14   ar
    25    14    15    1
    26     3     4    1
    27     4     5    1
    28     5     6    1
    29    28    22   ar
    30     6     1    1
    31    14     8   ar
    32    21    16   ar
    33     6     7    1
@<TRIPOS>MOLECULE
*****
 30 33 0 0 0
SMALL
GASTEIGER

@<TRIPOS>ATOM
      1 C          -1.7312    3.2210   20.8626 C.3     1  UNL1        0.0999
      2 C          -0.5433    2.5660   20.2222 C.3     1  UNL1        0.1138
      3 N           0.6801    2.2696   21.0378 N.pl3   1  UNL1       -0.2763
      4 C           0.7157    2.6281   22.4939 C.3     1  UNL1        0.1107
      5 C          -0.4721    3.2831   23.1344 C.3     1  UNL1        0.0906
      6 N          -1.6956    3.5795   22.3186 N.3     1  UNL1       -0.2922
      7 H          -1.8525    4.5856   22.3780 H       1  UNL1        0.1236
      8 C           1.8679    1.6147   20.3974 C.ar    1  UNL1        0.2035
      9 N           2.1787    0.1764   20.6881 N.ar    1  UNL1       -0.2133
     10 C           3.3665   -0.4786   20.0477 C.ar    1  UNL1        0.1065
     11 C           4.2436    0.3048   19.1166 C.ar    1  UNL1        0.0815
     12 C           3.9328    1.7432   18.8258 C.ar    1  UNL1        0.2646
     13 O           4.8099    2.5266   17.8947 O.2     1  UNL1       -0.2668
     14 N           2.7450    2.3982   19.4662 N.ar    1  UNL1       -0.2667
     15 C           2.4342    3.8365   19.1755 C.3     1  UNL1        0.1363
     16 C           3.6773   -1.9170   20.3385 C.ar    1  UNL1        0.1024
     17 C           3.4609   -2.9594   19.2819 C.ar    1  UNL1        0.0414
     18 C           3.7717   -4.3978   19.5727 C.ar    1  UNL1        0.1023
     19 N           4.2988   -4.7937   20.9200 N.ar    1  UNL1       -0.2224
     20 C           4.5152   -3.7512   21.9766 C.ar    1  UNL1        0.1989
     21 N           4.2044   -2.3129   21.6858 N.ar    1  UNL1       -0.2224
     22 C          -4.3169    3.2413   20.6106 C.ar    1  UNL1        0.1382
     23 C          -5.5403    3.5377   19.7948 C.ar    1  UNL1        0.0662
     24 C          -5.4014    4.1102   18.4154 C.ar    1  UNL1        0.1431
     25 F          -6.6248    4.4066   17.5996 F       1  UNL1       -0.2041
     26 C          -4.0390    4.3863   17.8516 C.ar    1  UNL1        0.0296
     27 C          -2.8157    4.0899   18.6673 C.ar    1  UNL1        0.0024
     28 C          -2.9546    3.5174   20.0468 C.ar    1  UNL1        0.0278
     29 C          -5.3197    3.3577   23.0045 C.3     1  UNL1        0.2525
     30 O          -4.4559    2.6688   21.9900 O.3     1  UNL1       -0.4716
@<TRIPOS>BOND
     1    29    30    1
     2    30    22    1
     3    22    23   ar
     4    23    24   ar
     5    24    25    1
     6    24    26   ar
     7    26    27   ar
     8    27    28   ar
     9    28     1    1
    10     1     2    1
    11     2     3    1
    12     3     8    1
    13     8     9   ar
    14     9    10   ar
    15    10    16    1
    16    16    17   ar
    17    17    18   ar
    18    18    19   ar
    19    19    20   ar
    20    20    21   ar
    21    10    11   ar
    22    11    12   ar
    23    12    13    2
    24    12    14   ar
    25    14    15    1
    26     3     4    1
    27     4     5    1
    28     5     6    1
    29    28    22   ar
    30     6     1    1
    31    14     8   ar
    32    21    16   ar
    33     6     7    1
@<TRIPOS>MOLECULE
*****
 30 33 0 0 0
SMALL
GASTEIGER

@<TRIPOS>ATOM
      1 C           4.3696   -0.0129   28.8250 C.3     1  UNL1        0.0999
      2 C           4.7770   -1.4554   28.8830 C.3     1  UNL1        0.1138
      3 N           6.1958   -1.8217   29.2034 N.pl3   1  UNL1       -0.2763
      4 C           7.2073   -0.7455   29.4659 C.3     1  UNL1        0.1107
      5 C           6.7999    0.6969   29.4079 C.3     1  UNL1        0.0906
      6 N           5.3810    1.0632   29.0874 N.3     1  UNL1       -0.2922
      7 H           5.4096    1.6501   28.2537 H       1  UNL1        0.1236
      8 C           6.6032   -3.2641   29.2614 C.ar    1  UNL1        0.2035
      9 N           7.0603   -3.9650   28.0166 N.ar    1  UNL1       -0.2133
     10 C           7.4677   -5.4075   28.0746 C.ar    1  UNL1        0.1065
     11 C           7.4180   -6.1490   29.3774 C.ar    1  UNL1        0.0815
     12 C           6.9609   -5.4482   30.6224 C.ar    1  UNL1        0.2646
     13 O           6.9112   -6.1897   31.9253 O.2     1  UNL1       -0.2668
     14 N           6.5535   -4.0057   30.5644 N.ar    1  UNL1       -0.2667
     15 C           6.0964   -3.3048   31.8093 C.3     1  UNL1        0.1363
     16 C           7.9249   -6.1083   26.8296 C.ar    1  UNL1        0.1024
     17 C           7.4735   -5.6198   25.4852 C.ar    1  UNL1        0.0414
     18 C           7.9306   -6.3207   24.2403 C.ar    1  UNL1        0.1023
     19 N           8.8391   -7.5101   24.3398 N.ar    1  UNL1       -0.2224
     20 C           9.2905   -7.9986   25.6843 C.ar    1  UNL1        0.1989
     21 N           8.8334   -7.2978   26.9291 N.ar    1  UNL1       -0.2224
     22 C           1.8895    0.2355   29.5579 C.ar    1  UNL1        0.1382
     23 C           0.4707    0.6018   29.2374 C.ar    1  UNL1        0.0662
     24 C           0.1131    1.0859   27.8635 C.ar    1  UNL1        0.1431
     25 F          -1.3058    1.4522   27.5430 F       1  UNL1       -0.2041
     26 C           1.1743    1.2037   26.8100 C.ar    1  UNL1        0.0296
     27 C           2.5931    0.8375   27.1305 C.ar    1  UNL1        0.0024
     28 C           2.9507    0.3533   28.5045 C.ar    1  UNL1        0.0278
     29 C           2.7378    0.7219   31.9649 C.3     1  UNL1        0.2525
     30 O           2.2470   -0.2486   30.9319 O.3     1  UNL1       -0.4716
@<TRIPOS>BOND
     1    29    30    1
     2    30    22    1
     3    22    23   ar
     4    23    24   ar
     5    24    25    1
     6    24    26   ar
     7    26    27   ar
     8    27    28   ar
     9    28     1    1
    10     1     2    1
    11     2     3    1
    12     3     8    1
    13     8     9   ar
    14     9    10   ar
    15    10    16    1
    16    16    17   ar
    17    17    18   ar
    18    18    19   ar
    19    19    20   ar
    20    20    21   ar
    21    10    11   ar
    22    11    12   ar
    23    12    13    2
    24    12    14   ar
    25    14    15    1
    26     3     4    1
    27     4     5    1
    28     5     6    1
    29    28    22   ar
    30     6     1    1
    31    14     8   ar
    32    21    16   ar
    33     6     7    1
@<TRIPOS>MOLECULE
*****
 30 33 0 0 0
SMALL
GASTEIGER

@<TRIPOS>ATOM
      1 C           4.3436   -0.4051   20.9731 C.3     1  UNL1        0.0999
      2 C           3.1613   -0.0558   21.8275 C.3     1  UNL1        0.1138
      3 N           3.0464    1.3154   22.4246 N.pl3   1  UNL1       -0.2763
      4 C           4.1139    2.3374   22.1673 C.3     1  UNL1        0.1107
      5 C           5.2963    1.9880   21.3128 C.3     1  UNL1        0.0906
      6 N           5.4111    0.6167   20.7157 N.3     1  UNL1       -0.2922
      7 H           6.2869    0.2197   21.0561 H       1  UNL1        0.1236
      8 C           1.8641    1.6648   23.2790 C.ar    1  UNL1        0.2035
      9 N           1.7855    1.1652   24.6912 N.ar    1  UNL1       -0.2133
     10 C           0.6032    1.5145   25.5456 C.ar    1  UNL1        0.1065
     11 C          -0.5005    2.3635   24.9879 C.ar    1  UNL1        0.0815
     12 C          -0.4220    2.8631   23.5757 C.ar    1  UNL1        0.2646
     13 O          -1.5257    3.7121   23.0180 O.2     1  UNL1       -0.2668
     14 N           0.7604    2.5138   22.7213 N.ar    1  UNL1       -0.2667
     15 C           0.8390    3.0134   21.3091 C.3     1  UNL1        0.1363
     16 C           0.5246    1.0149   26.9578 C.ar    1  UNL1        0.1024
     17 C          -0.7904    1.0097   27.6794 C.ar    1  UNL1        0.0414
     18 C          -0.8689    0.5100   29.0916 C.ar    1  UNL1        0.1023
     19 N           0.3675    0.0157   29.7821 N.ar    1  UNL1       -0.2224
     20 C           1.6825    0.0209   29.0605 C.ar    1  UNL1        0.1989
     21 N           1.7610    0.5205   27.6483 N.ar    1  UNL1       -0.2224
     22 C           5.7577   -2.5220   20.4538 C.ar    1  UNL1        0.1382
     23 C           5.8724   -3.8932   19.8567 C.ar    1  UNL1        0.0662
     24 C           4.6880   -4.5189   19.1818 C.ar    1  UNL1        0.1431
     25 F           4.8028   -5.8902   18.5847 F       1  UNL1       -0.2041
     26 C           3.3887   -3.7734   19.1040 C.ar    1  UNL1        0.0296
     27 C           3.2739   -2.4021   19.7011 C.ar    1  UNL1        0.0024
     28 C           4.4584   -1.7764   20.3760 C.ar    1  UNL1        0.0278
     29 C           8.3314   -2.2885   20.7211 C.3     1  UNL1        0.2525
     30 O           6.9422   -1.8963   21.1287 O.3     1  UNL1       -0.4716
@<TRIPOS>BOND
     1    29    30    1
     2    30    22    1
     3    22    23   ar
     4    23    24   ar
     5    24    25    1
     6    24    26   ar
     7    26    27   ar
     8    27    28   ar
     9    28     1    1
    10     1     2    1
    11     2     3    1
    12     3     8    1
    13     8     9   ar
    14     9    10   ar
    15    10    16    1
    16    16    17   ar
    17    17    18   ar
    18    18    19   ar
    19    19    20   ar
    20    20    21   ar
    21    10    11   ar
    22    11    12   ar
    23    12    13    2
    24    12    14   ar
    25    14    15    1
    26     3     4    1
    27     4     5    1
    28     5     6    1
    29    28    22   ar
    30     6     1    1
    31    14     8   ar
    32    21    16   ar
    33     6     7    1
@<TRIPOS>MOLECULE
*****
 30 33 0 0 0
SMALL
GASTEIGER

@<TRIPOS>ATOM
      1 C           3.5198   -0.0662   22.2422 C.3     1  UNL1        0.0999
      2 C           2.4713    0.1126   23.2999 C.3     1  UNL1        0.1138
      3 N           2.3176    1.4368   23.9873 N.pl3   1  UNL1       -0.2763
      4 C           3.2125    2.5824   23.6172 C.3     1  UNL1        0.1107
      5 C           4.2611    2.4036   22.5596 C.3     1  UNL1        0.0906
      6 N           4.4147    1.0792   21.8721 N.3     1  UNL1       -0.2922
      7 H           5.3725    0.7704   22.0386 H       1  UNL1        0.1236
      8 C           1.2690    1.6157   25.0449 C.ar    1  UNL1        0.2035
      9 N          -0.0083    2.3323   24.7211 N.ar    1  UNL1       -0.2133
     10 C          -1.0568    2.5112   25.7787 C.ar    1  UNL1        0.1065
     11 C          -0.8281    1.9733   27.1601 C.ar    1  UNL1        0.0815
     12 C           0.4492    1.2566   27.4840 C.ar    1  UNL1        0.2646
     13 O           0.6779    0.7187   28.8654 O.2     1  UNL1       -0.2668
     14 N           1.4978    1.0777   26.4264 N.ar    1  UNL1       -0.2667
     15 C           2.7750    0.3611   26.7502 C.3     1  UNL1        0.1363
     16 C          -2.3341    3.2279   25.4549 C.ar    1  UNL1        0.1024
     17 C          -3.2917    3.5869   26.5522 C.ar    1  UNL1        0.0414
     18 C          -4.5689    4.3036   26.2283 C.ar    1  UNL1        0.1023
     19 N          -4.8886    4.6613   24.8071 N.ar    1  UNL1       -0.2224
     20 C          -3.9311    4.3022   23.7097 C.ar    1  UNL1        0.1989
     21 N          -2.6539    3.5855   24.0336 N.ar    1  UNL1       -0.2224
     22 C           3.2472   -1.5475   20.1252 C.ar    1  UNL1        0.1382
     23 C           3.4009   -2.8718   19.4378 C.ar    1  UNL1        0.0662
     24 C           3.9808   -4.0392   20.1800 C.ar    1  UNL1        0.1431
     25 F           4.1344   -5.3636   19.4925 F       1  UNL1       -0.2041
     26 C           4.4070   -3.8824   21.6095 C.ar    1  UNL1        0.0296
     27 C           4.2534   -2.5580   22.2969 C.ar    1  UNL1        0.0024
     28 C           3.6735   -1.3906   21.5548 C.ar    1  UNL1        0.0278
     29 C           1.2123   -0.0462   19.5292 C.3     1  UNL1        0.2525
     30 O           2.6673   -0.3800   19.3831 O.3     1  UNL1       -0.4716
@<TRIPOS>BOND
     1    29    30    1
     2    30    22    1
     3    22    23   ar
     4    23    24   ar
     5    24    25    1
     6    24    26   ar
     7    26    27   ar
     8    27    28   ar
     9    28     1    1
    10     1     2    1
    11     2     3    1
    12     3     8    1
    13     8     9   ar
    14     9    10   ar
    15    10    16    1
    16    16    17   ar
    17    17    18   ar
    18    18    19   ar
    19    19    20   ar
    20    20    21   ar
    21    10    11   ar
    22    11    12   ar
    23    12    13    2
    24    12    14   ar
    25    14    15    1
    26     3     4    1
    27     4     5    1
    28     5     6    1
    29    28    22   ar
    30     6     1    1
    31    14     8   ar
    32    21    16   ar
    33     6     7    1
