@<TRIPOS>MOLECULE
*****
 29 33 0 0 0
SMALL
GASTEIGER

@<TRIPOS>ATOM
      1 C         -16.6637    2.0433   19.4552 C.ar    1  UNL1        0.1384
      2 C         -17.2686    0.8039   20.0450 C.ar    1  UNL1        0.0400
      3 C         -16.4929   -0.4799   20.0504 C.ar    1  UNL1        0.0397
      4 C         -15.1121   -0.5243   19.4659 C.ar    1  UNL1        0.1344
      5 C         -14.5071    0.7151   18.8760 C.ar    1  UNL1        0.0149
      6 C         -15.2830    1.9989   18.8707 C.ar    1  UNL1        0.0356
      7 C         -13.1264    0.6707   18.2916 C.3     1  UNL1        0.0331
      8 C         -12.3506   -0.6131   18.2969 C.3     1  UNL1        0.0449
      9 C         -12.9555   -1.8525   18.8867 C.3     1  UNL1        0.1361
     10 C         -11.5749   -1.8969   18.3022 C.3     1  UNL1        0.0574
     11 C         -10.7991   -3.1806   18.3076 C.3     1  UNL1        0.0756
     12 N         -11.4040   -4.4201   18.8974 N.3     1  UNL1       -0.2737
     13 C         -12.7847   -4.3757   19.4819 C.3     1  UNL1        0.0756
     14 C         -13.5605   -3.0919   19.4766 C.3     1  UNL1        0.0574
     15 O         -14.3363   -1.8081   19.4712 O.3     1  UNL1       -0.4828
     16 C         -10.6282   -5.7039   18.9028 C.3     1  UNL1        0.0575
     17 C          -9.2508   -6.1090   19.3369 C.3     1  UNL1        0.0160
     18 C          -9.5311   -7.5195   18.9103 C.3     1  UNL1        0.0028
     19 C         -10.9086   -7.1143   18.4761 C.3     1  UNL1        0.0160
     20 O         -17.4394    3.3271   19.4498 O.3     1  UNL1       -0.4755
     21 C         -17.7232    4.0373   20.7402 C.3     1  UNL1        0.2054
     22 O         -13.9720    4.9757   24.9698 O.2     1  UNL1       -0.1730
     23 S         -14.3445    5.0868   23.5211 S.O2    1  UNL1       -0.0100
     24 O         -12.9915    5.7338   23.4925 O.2     1  UNL1       -0.1730
     25 C         -14.2471    5.4225   22.0624 C.3     1  UNL1        0.1509
     26 C         -15.3734    5.0727   21.1354 C.3     1  UNL1        0.0291
     27 C         -16.5970    4.3871   21.6672 C.3     1  UNL1        0.0472
     28 C         -16.6944    4.0513   23.1259 C.3     1  UNL1        0.0291
     29 C         -15.5682    4.4011   24.0528 C.3     1  UNL1        0.1509
@<TRIPOS>BOND
     1    22    23    2
     2    23    24    2
     3    23    25    1
     4    25    26    1
     5    26    27    1
     6    27    21    1
     7    21    20    1
     8    20     1    1
     9     1     2   ar
    10     2     3   ar
    11     3     4   ar
    12     4     5   ar
    13     5     6   ar
    14     5     7    1
    15     7     8    1
    16     8     9    1
    17     9    10    1
    18    10    11    1
    19    11    12    1
    20    12    16    1
    21    16    17    1
    22    17    18    1
    23    18    19    1
    24    12    13    1
    25    13    14    1
    26     9    15    1
    27    27    28    1
    28    28    29    1
    29    29    23    1
    30     6     1   ar
    31    14     9    1
    32    15     4    1
    33    19    16    1
@<TRIPOS>MOLECULE
*****
 29 33 0 0 0
SMALL
GASTEIGER

@<TRIPOS>ATOM
      1 C           6.9325   -4.5089   24.1167 C.ar    1  UNL1        0.1384
      2 C           6.3979   -3.1089   24.1822 C.ar    1  UNL1        0.0400
      3 C           6.1386   -2.4665   25.5126 C.ar    1  UNL1        0.0397
      4 C           6.4139   -3.2241   26.7777 C.ar    1  UNL1        0.1344
      5 C           6.9486   -4.6240   26.7122 C.ar    1  UNL1        0.0149
      6 C           7.2079   -5.2664   25.3817 C.ar    1  UNL1        0.0356
      7 C           7.2239   -5.3816   27.9772 C.3     1  UNL1        0.0331
      8 C           6.9646   -4.7392   29.3077 C.3     1  UNL1        0.0449
      9 C           6.4300   -3.3392   29.3731 C.3     1  UNL1        0.1361
     10 C           6.7054   -4.0968   30.6381 C.3     1  UNL1        0.0574
     11 C           6.4461   -3.4544   31.9685 C.3     1  UNL1        0.0756
     12 N           5.9114   -2.0545   32.0340 N.3     1  UNL1       -0.2737
     13 C           5.6361   -1.2969   30.7690 C.3     1  UNL1        0.0756
     14 C           5.8954   -1.9393   29.4386 C.3     1  UNL1        0.0574
     15 O           6.1546   -2.5817   28.1081 O.3     1  UNL1       -0.4828
     16 C           5.6522   -1.4121   33.3645 C.3     1  UNL1        0.0575
     17 C           6.4550   -0.5674   34.3090 C.3     1  UNL1        0.0160
     18 C           5.2854   -0.5036   35.2461 C.3     1  UNL1        0.0028
     19 C           4.4826   -1.3483   34.3015 C.3     1  UNL1        0.0160
     20 O           7.1918   -5.1513   22.7863 O.3     1  UNL1       -0.4755
     21 C           8.0990   -4.4841   21.7953 C.3     1  UNL1        0.2054
     22 O           5.0675   -2.1636   17.5214 O.2     1  UNL1       -0.1730
     23 S           6.3582   -2.2859   18.2757 S.O2    1  UNL1       -0.0100
     24 O           6.7600   -1.2856   17.2326 O.2     1  UNL1       -0.1730
     25 C           7.7885   -2.0608   18.6678 C.3     1  UNL1        0.1509
     26 C           8.3687   -2.7936   19.8411 C.3     1  UNL1        0.0291
     27 C           7.5187   -3.7514   20.6222 C.3     1  UNL1        0.0472
     28 C           6.0885   -3.9764   20.2301 C.3     1  UNL1        0.0291
     29 C           5.5082   -3.2437   19.0569 C.3     1  UNL1        0.1509
@<TRIPOS>BOND
     1    22    23    2
     2    23    24    2
     3    23    25    1
     4    25    26    1
     5    26    27    1
     6    27    21    1
     7    21    20    1
     8    20     1    1
     9     1     2   ar
    10     2     3   ar
    11     3     4   ar
    12     4     5   ar
    13     5     6   ar
    14     5     7    1
    15     7     8    1
    16     8     9    1
    17     9    10    1
    18    10    11    1
    19    11    12    1
    20    12    16    1
    21    16    17    1
    22    17    18    1
    23    18    19    1
    24    12    13    1
    25    13    14    1
    26     9    15    1
    27    27    28    1
    28    28    29    1
    29    29    23    1
    30     6     1   ar
    31    14     9    1
    32    15     4    1
    33    19    16    1
@<TRIPOS>MOLECULE
*****
 29 33 0 0 0
SMALL
GASTEIGER

@<TRIPOS>ATOM
      1 C         -16.1600    2.7577   18.7335 C.ar    1  UNL1        0.1384
      2 C         -14.8852    2.8613   17.9499 C.ar    1  UNL1        0.0400
      3 C         -13.9536    1.6881   17.8747 C.ar    1  UNL1        0.0397
      4 C         -14.2967    0.4112   18.5832 C.ar    1  UNL1        0.1344
      5 C         -15.5716    0.3076   19.3668 C.ar    1  UNL1        0.0149
      6 C         -16.5032    1.4809   19.4420 C.ar    1  UNL1        0.0356
      7 C         -15.9148   -0.9692   20.0753 C.3     1  UNL1        0.0331
      8 C         -14.9831   -2.1425   20.0001 C.3     1  UNL1        0.0449
      9 C         -13.7083   -2.0389   19.2165 C.3     1  UNL1        0.1361
     10 C         -14.0515   -3.3156   19.9250 C.3     1  UNL1        0.0574
     11 C         -13.1199   -4.4888   19.8498 C.3     1  UNL1        0.0756
     12 N         -11.8451   -4.3852   19.0661 N.3     1  UNL1       -0.2737
     13 C         -11.5019   -3.1084   18.3577 C.3     1  UNL1        0.0756
     14 C         -12.4335   -1.9352   18.4329 C.3     1  UNL1        0.0574
     15 O         -13.3651   -0.7620   18.5080 O.3     1  UNL1       -0.4828
     16 C         -10.9134   -5.5585   18.9910 C.3     1  UNL1        0.0575
     17 C          -9.4602   -5.7797   19.2893 C.3     1  UNL1        0.0160
     18 C          -9.5960   -7.2177   18.8847 C.3     1  UNL1        0.0028
     19 C         -11.0493   -6.9965   18.5864 C.3     1  UNL1        0.0160
     20 O         -17.0916    3.9308   18.8087 O.3     1  UNL1       -0.4755
     21 C         -17.4723    4.5020   20.1425 C.3     1  UNL1        0.2054
     22 O         -14.0561    4.8173   24.7328 O.2     1  UNL1       -0.1730
     23 S         -14.3263    5.1471   23.2947 S.O2    1  UNL1       -0.0100
     24 O         -12.9899    5.8062   23.4664 O.2     1  UNL1       -0.1730
     25 C         -14.1324    5.7057   21.9162 C.3     1  UNL1        0.1509
     26 C         -15.1811    5.4907   20.8654 C.3     1  UNL1        0.0291
     27 C         -16.4237    4.7170   21.1932 C.3     1  UNL1        0.0472
     28 C         -16.6176    4.1584   22.5717 C.3     1  UNL1        0.0291
     29 C         -15.5690    4.3734   23.6225 C.3     1  UNL1        0.1509
@<TRIPOS>BOND
     1    22    23    2
     2    23    24    2
     3    23    25    1
     4    25    26    1
     5    26    27    1
     6    27    21    1
     7    21    20    1
     8    20     1    1
     9     1     2   ar
    10     2     3   ar
    11     3     4   ar
    12     4     5   ar
    13     5     6   ar
    14     5     7    1
    15     7     8    1
    16     8     9    1
    17     9    10    1
    18    10    11    1
    19    11    12    1
    20    12    16    1
    21    16    17    1
    22    17    18    1
    23    18    19    1
    24    12    13    1
    25    13    14    1
    26     9    15    1
    27    27    28    1
    28    28    29    1
    29    29    23    1
    30     6     1   ar
    31    14     9    1
    32    15     4    1
    33    19    16    1
@<TRIPOS>MOLECULE
*****
 29 33 0 0 0
SMALL
GASTEIGER

@<TRIPOS>ATOM
      1 C           5.9547   -3.8509   22.5496 C.ar    1  UNL1        0.1384
      2 C           5.6748   -3.0551   23.7900 C.ar    1  UNL1        0.0400
      3 C           4.6163   -1.9925   23.7764 C.ar    1  UNL1        0.0397
      4 C           3.8375   -1.7256   22.5224 C.ar    1  UNL1        0.1344
      5 C           4.1174   -2.5214   21.2821 C.ar    1  UNL1        0.0149
      6 C           5.1760   -3.5841   21.2957 C.ar    1  UNL1        0.0356
      7 C           3.3387   -2.2545   20.0282 C.3     1  UNL1        0.0331
      8 C           2.2800   -1.1918   20.0145 C.3     1  UNL1        0.0449
      9 C           2.0002   -0.3961   21.2549 C.3     1  UNL1        0.1361
     10 C           1.2215   -0.1292   20.0010 C.3     1  UNL1        0.0574
     11 C           0.1629    0.9334   19.9874 C.3     1  UNL1        0.0756
     12 N          -0.1169    1.7292   21.2277 N.3     1  UNL1       -0.2737
     13 C           0.6618    1.4623   22.4816 C.3     1  UNL1        0.0756
     14 C           1.7203    0.3997   22.4952 C.3     1  UNL1        0.0574
     15 O           2.7790   -0.6630   22.5088 O.3     1  UNL1       -0.4828
     16 C          -1.1755    2.7919   21.2141 C.3     1  UNL1        0.0575
     17 C          -1.8451    3.6356   22.2581 C.3     1  UNL1        0.0160
     18 C          -2.6726    4.2947   21.1947 C.3     1  UNL1        0.0028
     19 C          -2.0031    3.4510   20.1507 C.3     1  UNL1        0.0160
     20 O           7.0132   -4.9135   22.5632 O.3     1  UNL1       -0.4755
     21 C           8.1581   -4.8194   23.5278 C.3     1  UNL1        0.2054
     22 O           8.2143   -7.1457   28.7648 O.2     1  UNL1       -0.1730
     23 S           8.1536   -7.3108   27.2752 S.O2    1  UNL1       -0.0100
     24 O           8.0906   -8.7482   27.6993 O.2     1  UNL1       -0.1730
     25 C           8.0711   -7.9751   25.9329 C.3     1  UNL1        0.1509
     26 C           8.0726   -7.1446   24.6837 C.3     1  UNL1        0.0291
     27 C           8.1566   -5.6498   24.7769 C.3     1  UNL1        0.0472
     28 C           8.2392   -4.9856   26.1193 C.3     1  UNL1        0.0291
     29 C           8.2377   -5.8160   27.3684 C.3     1  UNL1        0.1509
@<TRIPOS>BOND
     1    22    23    2
     2    23    24    2
     3    23    25    1
     4    25    26    1
     5    26    27    1
     6    27    21    1
     7    21    20    1
     8    20     1    1
     9     1     2   ar
    10     2     3   ar
    11     3     4   ar
    12     4     5   ar
    13     5     6   ar
    14     5     7    1
    15     7     8    1
    16     8     9    1
    17     9    10    1
    18    10    11    1
    19    11    12    1
    20    12    16    1
    21    16    17    1
    22    17    18    1
    23    18    19    1
    24    12    13    1
    25    13    14    1
    26     9    15    1
    27    27    28    1
    28    28    29    1
    29    29    23    1
    30     6     1   ar
    31    14     9    1
    32    15     4    1
    33    19    16    1
@<TRIPOS>MOLECULE
*****
 29 33 0 0 0
SMALL
GASTEIGER

@<TRIPOS>ATOM
      1 C           1.1059    1.2327   22.9595 C.ar    1  UNL1        0.1384
      2 C           0.1505    1.7294   24.0037 C.ar    1  UNL1        0.0400
      3 C           0.4272    1.4739   25.4557 C.ar    1  UNL1        0.0397
      4 C           1.6594    0.7218   25.8634 C.ar    1  UNL1        0.1344
      5 C           2.6148    0.2252   24.8191 C.ar    1  UNL1        0.0149
      6 C           2.3380    0.4807   23.3671 C.ar    1  UNL1        0.0356
      7 C           3.8469   -0.5269   25.2267 C.3     1  UNL1        0.0331
      8 C           4.1237   -0.7823   26.6787 C.3     1  UNL1        0.0449
      9 C           3.1683   -0.2857   27.7230 C.3     1  UNL1        0.1361
     10 C           4.4004   -1.0378   28.1306 C.3     1  UNL1        0.0574
     11 C           4.6771   -1.2932   29.5826 C.3     1  UNL1        0.0756
     12 N           3.7217   -0.7966   30.6269 N.3     1  UNL1       -0.2737
     13 C           2.4896   -0.0445   30.2192 C.3     1  UNL1        0.0756
     14 C           2.2129    0.2109   28.7673 C.3     1  UNL1        0.0574
     15 O           1.9361    0.4664   27.3153 O.3     1  UNL1       -0.4828
     16 C           3.9985   -1.0520   32.0788 C.3     1  UNL1        0.0575
     17 C           3.9072   -0.2378   33.3353 C.3     1  UNL1        0.0160
     18 C           4.3899   -1.4134   34.1322 C.3     1  UNL1        0.0028
     19 C           4.4813   -2.2276   32.8757 C.3     1  UNL1        0.0160
     20 O           0.8292    1.4882   21.5075 O.3     1  UNL1       -0.4755
     21 C           0.5707    0.3382   20.5796 C.3     1  UNL1        0.2054
     22 O           4.6392   -1.0481   16.7893 O.2     1  UNL1       -0.1730
     23 S           3.9169   -1.3273   18.0739 S.O2    1  UNL1       -0.0100
     24 O           4.9034   -2.4572   18.0789 O.2     1  UNL1       -0.1730
     25 C           3.5372   -1.9990   19.3603 C.3     1  UNL1        0.1509
     26 C           2.4217   -1.4438   20.1955 C.3     1  UNL1        0.0291
     27 C           1.6860   -0.2169   19.7444 C.3     1  UNL1        0.0472
     28 C           2.0657    0.4547   18.4581 C.3     1  UNL1        0.0291
     29 C           3.1811   -0.1004   17.6228 C.3     1  UNL1        0.1509
@<TRIPOS>BOND
     1    22    23    2
     2    23    24    2
     3    23    25    1
     4    25    26    1
     5    26    27    1
     6    27    21    1
     7    21    20    1
     8    20     1    1
     9     1     2   ar
    10     2     3   ar
    11     3     4   ar
    12     4     5   ar
    13     5     6   ar
    14     5     7    1
    15     7     8    1
    16     8     9    1
    17     9    10    1
    18    10    11    1
    19    11    12    1
    20    12    16    1
    21    16    17    1
    22    17    18    1
    23    18    19    1
    24    12    13    1
    25    13    14    1
    26     9    15    1
    27    27    28    1
    28    28    29    1
    29    29    23    1
    30     6     1   ar
    31    14     9    1
    32    15     4    1
    33    19    16    1
@<TRIPOS>MOLECULE
*****
 29 33 0 0 0
SMALL
GASTEIGER

@<TRIPOS>ATOM
      1 C           1.8944    0.6622   23.3760 C.ar    1  UNL1        0.1384
      2 C           3.0410   -0.2780   23.6025 C.ar    1  UNL1        0.0400
      3 C           3.5050   -0.5725   24.9981 C.ar    1  UNL1        0.0397
      4 C           2.8224    0.0732   26.1674 C.ar    1  UNL1        0.1344
      5 C           1.6758    1.0134   25.9410 C.ar    1  UNL1        0.0149
      6 C           1.2118    1.3078   24.5452 C.ar    1  UNL1        0.0356
      7 C           0.9932    1.6590   27.1102 C.3     1  UNL1        0.0331
      8 C           1.4572    1.3646   28.5059 C.3     1  UNL1        0.0449
      9 C           2.6039    0.4244   28.7324 C.3     1  UNL1        0.1361
     10 C           1.9213    1.0701   29.9016 C.3     1  UNL1        0.0574
     11 C           2.3853    0.7756   31.2972 C.3     1  UNL1        0.0756
     12 N           3.5320   -0.1646   31.5237 N.3     1  UNL1       -0.2737
     13 C           4.2146   -0.8103   30.3545 C.3     1  UNL1        0.0756
     14 C           3.7505   -0.5158   28.9588 C.3     1  UNL1        0.0574
     15 O           3.2865   -0.2213   27.5631 O.3     1  UNL1       -0.4828
     16 C           3.9960   -0.4591   32.9194 C.3     1  UNL1        0.0575
     17 C           4.3157    0.3698   34.1280 C.3     1  UNL1        0.0160
     18 C           4.6522   -0.8757   34.8932 C.3     1  UNL1        0.0028
     19 C           4.3325   -1.7046   33.6847 C.3     1  UNL1        0.0160
     20 O           1.4303    0.9567   21.9804 O.3     1  UNL1       -0.4755
     21 C           1.1130   -0.1699   21.0421 C.3     1  UNL1        0.2054
     22 O           5.0798   -2.2136   17.4465 O.2     1  UNL1       -0.1730
     23 S           3.9874   -1.2304   17.7462 S.O2    1  UNL1       -0.0100
     24 O           4.3629   -0.7888   16.3627 O.2     1  UNL1       -0.1730
     25 C           3.0253   -0.0938   17.5654 C.3     1  UNL1        0.1509
     26 C           2.0672    0.2597   18.6641 C.3     1  UNL1        0.0291
     27 C           2.0711   -0.5234   19.9435 C.3     1  UNL1        0.0472
     28 C           3.0331   -1.6600   20.1242 C.3     1  UNL1        0.0291
     29 C           3.9913   -2.0135   19.0256 C.3     1  UNL1        0.1509
@<TRIPOS>BOND
     1    22    23    2
     2    23    24    2
     3    23    25    1
     4    25    26    1
     5    26    27    1
     6    27    21    1
     7    21    20    1
     8    20     1    1
     9     1     2   ar
    10     2     3   ar
    11     3     4   ar
    12     4     5   ar
    13     5     6   ar
    14     5     7    1
    15     7     8    1
    16     8     9    1
    17     9    10    1
    18    10    11    1
    19    11    12    1
    20    12    16    1
    21    16    17    1
    22    17    18    1
    23    18    19    1
    24    12    13    1
    25    13    14    1
    26     9    15    1
    27    27    28    1
    28    28    29    1
    29    29    23    1
    30     6     1   ar
    31    14     9    1
    32    15     4    1
    33    19    16    1
@<TRIPOS>MOLECULE
*****
 29 33 0 0 0
SMALL
GASTEIGER

@<TRIPOS>ATOM
      1 C          -0.6998    2.7348   21.3870 C.ar    1  UNL1        0.1384
      2 C          -0.3339    2.8496   22.8372 C.ar    1  UNL1        0.0400
      3 C           0.6997    1.9350   23.4246 C.ar    1  UNL1        0.0397
      4 C           1.3675    0.9055   22.5619 C.ar    1  UNL1        0.1344
      5 C           1.0016    0.7907   21.1117 C.ar    1  UNL1        0.0149
      6 C          -0.0321    1.7053   20.5243 C.ar    1  UNL1        0.0356
      7 C           1.6693   -0.2388   20.2490 C.3     1  UNL1        0.0331
      8 C           2.7030   -1.1534   20.8364 C.3     1  UNL1        0.0449
      9 C           3.0689   -1.0386   22.2866 C.3     1  UNL1        0.1361
     10 C           3.7366   -2.0680   21.4239 C.3     1  UNL1        0.0574
     11 C           4.7703   -2.9826   22.0113 C.3     1  UNL1        0.0756
     12 N           5.1361   -2.8677   23.4614 N.3     1  UNL1       -0.2737
     13 C           4.4684   -1.8383   24.3242 C.3     1  UNL1        0.0756
     14 C           3.4348   -0.9237   23.7367 C.3     1  UNL1        0.0574
     15 O           2.4011   -0.0091   23.1493 O.3     1  UNL1       -0.4828
     16 C           6.1698   -3.7824   24.0489 C.3     1  UNL1        0.0575
     17 C           6.5541   -4.1950   25.4389 C.3     1  UNL1        0.0160
     18 C           7.6317   -5.0759   24.8795 C.3     1  UNL1        0.0028
     19 C           7.2474   -4.6632   23.4895 C.3     1  UNL1        0.0160
     20 O          -1.7334    3.6493   20.7996 O.3     1  UNL1       -0.4755
     21 C          -3.1057    3.1291   20.4890 C.3     1  UNL1        0.2054
     22 O          -7.9934    4.9799   22.8397 O.2     1  UNL1       -0.1730
     23 S          -6.6169    4.4051   22.9975 S.O2    1  UNL1       -0.0100
     24 O          -7.0335    4.4820   24.4364 O.2     1  UNL1       -0.1730
     25 C          -5.3851    3.8571   23.6550 C.3     1  UNL1        0.1509
     26 C          -4.2147    3.4317   22.8188 C.3     1  UNL1        0.0291
     27 C          -4.2761    3.5544   21.3251 C.3     1  UNL1        0.0472
     28 C          -5.5079    4.1025   20.6676 C.3     1  UNL1        0.0291
     29 C          -6.6782    4.5278   21.5037 C.3     1  UNL1        0.1509
@<TRIPOS>BOND
     1    22    23    2
     2    23    24    2
     3    23    25    1
     4    25    26    1
     5    26    27    1
     6    27    21    1
     7    21    20    1
     8    20     1    1
     9     1     2   ar
    10     2     3   ar
    11     3     4   ar
    12     4     5   ar
    13     5     6   ar
    14     5     7    1
    15     7     8    1
    16     8     9    1
    17     9    10    1
    18    10    11    1
    19    11    12    1
    20    12    16    1
    21    16    17    1
    22    17    18    1
    23    18    19    1
    24    12    13    1
    25    13    14    1
    26     9    15    1
    27    27    28    1
    28    28    29    1
    29    29    23    1
    30     6     1   ar
    31    14     9    1
    32    15     4    1
    33    19    16    1
@<TRIPOS>MOLECULE
*****
 29 33 0 0 0
SMALL
GASTEIGER

@<TRIPOS>ATOM
      1 C           6.0708   -2.0047   20.2576 C.ar    1  UNL1        0.1384
      2 C           6.5690   -3.4071   20.4451 C.ar    1  UNL1        0.0400
      3 C           6.7411   -3.9633   21.8275 C.ar    1  UNL1        0.0397
      4 C           6.4150   -3.1172   23.0224 C.ar    1  UNL1        0.1344
      5 C           5.9169   -1.7148   22.8349 C.ar    1  UNL1        0.0149
      6 C           5.7448   -1.1586   21.4525 C.ar    1  UNL1        0.0356
      7 C           5.5908   -0.8687   24.0297 C.3     1  UNL1        0.0331
      8 C           5.7629   -1.4249   25.4122 C.3     1  UNL1        0.0449
      9 C           6.2611   -2.8272   25.5997 C.3     1  UNL1        0.1361
     10 C           5.9350   -1.9811   26.7945 C.3     1  UNL1        0.0574
     11 C           6.1071   -2.5373   28.1769 C.3     1  UNL1        0.0756
     12 N           6.6053   -3.9397   28.3644 N.3     1  UNL1       -0.2737
     13 C           6.9314   -4.7858   27.1696 C.3     1  UNL1        0.0756
     14 C           6.7593   -4.2296   25.7872 C.3     1  UNL1        0.0574
     15 O           6.5872   -3.6734   24.4048 O.3     1  UNL1       -0.4828
     16 C           6.7774   -4.4959   29.7469 C.3     1  UNL1        0.0575
     17 C           7.1114   -5.8438   30.3139 C.3     1  UNL1        0.0160
     18 C           7.0207   -5.2824   31.7019 C.3     1  UNL1        0.0028
     19 C           6.6868   -3.9345   31.1349 C.3     1  UNL1        0.0160
     20 O           5.8987   -1.4485   18.8753 O.3     1  UNL1       -0.4755
     21 C           4.5934   -1.6178   18.1558 C.3     1  UNL1        0.2054
     22 O           0.1662    1.8194   19.3504 O.2     1  UNL1       -0.1730
     23 S           0.9274    0.5523   19.6053 S.O2    1  UNL1       -0.0100
     24 O          -0.1836    0.3934   20.6005 O.2     1  UNL1       -0.1730
     25 C           1.3027   -0.7700   20.2058 C.3     1  UNL1        0.1509
     26 C           2.5248   -1.4934   19.7226 C.3     1  UNL1        0.0291
     27 C           3.3714   -0.8944   18.6390 C.3     1  UNL1        0.0472
     28 C           2.9961    0.4279   18.0385 C.3     1  UNL1        0.0291
     29 C           1.7741    1.1512   18.5216 C.3     1  UNL1        0.1509
@<TRIPOS>BOND
     1    22    23    2
     2    23    24    2
     3    23    25    1
     4    25    26    1
     5    26    27    1
     6    27    21    1
     7    21    20    1
     8    20     1    1
     9     1     2   ar
    10     2     3   ar
    11     3     4   ar
    12     4     5   ar
    13     5     6   ar
    14     5     7    1
    15     7     8    1
    16     8     9    1
    17     9    10    1
    18    10    11    1
    19    11    12    1
    20    12    16    1
    21    16    17    1
    22    17    18    1
    23    18    19    1
    24    12    13    1
    25    13    14    1
    26     9    15    1
    27    27    28    1
    28    28    29    1
    29    29    23    1
    30     6     1   ar
    31    14     9    1
    32    15     4    1
    33    19    16    1
@<TRIPOS>MOLECULE
*****
 29 33 0 0 0
SMALL
GASTEIGER

@<TRIPOS>ATOM
      1 C           6.0448   -3.7406   20.7282 C.ar    1  UNL1        0.1384
      2 C           5.6888   -3.4239   19.3059 C.ar    1  UNL1        0.0400
      3 C           4.6152   -2.4198   19.0073 C.ar    1  UNL1        0.0397
      4 C           3.8978   -1.7322   20.1310 C.ar    1  UNL1        0.1344
      5 C           4.2538   -2.0489   21.5533 C.ar    1  UNL1        0.0149
      6 C           5.3274   -3.0531   21.8519 C.ar    1  UNL1        0.0356
      7 C           3.5364   -1.3614   22.6769 C.3     1  UNL1        0.0331
      8 C           2.4628   -0.3572   22.3783 C.3     1  UNL1        0.0449
      9 C           2.1068   -0.0405   20.9560 C.3     1  UNL1        0.1361
     10 C           1.3893    0.6469   22.0796 C.3     1  UNL1        0.0574
     11 C           0.3158    1.6511   21.7810 C.3     1  UNL1        0.0756
     12 N          -0.0403    1.9677   20.3587 N.3     1  UNL1       -0.2737
     13 C           0.6772    1.2802   19.2350 C.3     1  UNL1        0.0756
     14 C           1.7507    0.2761   19.5337 C.3     1  UNL1        0.0574
     15 O           2.8242   -0.7281   19.8323 O.3     1  UNL1       -0.4828
     16 C          -1.1138    2.9719   20.0600 C.3     1  UNL1        0.0575
     17 C          -2.3661    3.4233   20.7516 C.3     1  UNL1        0.0160
     18 C          -2.6320    4.3920   19.6377 C.3     1  UNL1        0.0028
     19 C          -1.3798    3.9407   18.9462 C.3     1  UNL1        0.0160
     20 O           7.1184   -4.7447   21.0269 O.3     1  UNL1       -0.4755
     21 C           8.0580   -4.5193   22.1742 C.3     1  UNL1        0.2054
     22 O           7.2305   -7.0254   27.2610 O.2     1  UNL1       -0.1730
     23 S           7.7641   -7.0836   25.8604 S.O2    1  UNL1       -0.0100
     24 O           8.1476   -8.4514   26.3422 O.2     1  UNL1       -0.1730
     25 C           8.4309   -7.6168   24.6271 C.3     1  UNL1        0.1509
     26 C           8.5288   -6.7619   23.3983 C.3     1  UNL1        0.0291
     27 C           7.9600   -5.3740   23.4029 C.3     1  UNL1        0.0472
     28 C           7.2932   -4.8408   24.6363 C.3     1  UNL1        0.0291
     29 C           7.1953   -5.6956   25.8650 C.3     1  UNL1        0.1509
@<TRIPOS>BOND
     1    22    23    2
     2    23    24    2
     3    23    25    1
     4    25    26    1
     5    26    27    1
     6    27    21    1
     7    21    20    1
     8    20     1    1
     9     1     2   ar
    10     2     3   ar
    11     3     4   ar
    12     4     5   ar
    13     5     6   ar
    14     5     7    1
    15     7     8    1
    16     8     9    1
    17     9    10    1
    18    10    11    1
    19    11    12    1
    20    12    16    1
    21    16    17    1
    22    17    18    1
    23    18    19    1
    24    12    13    1
    25    13    14    1
    26     9    15    1
    27    27    28    1
    28    28    29    1
    29    29    23    1
    30     6     1   ar
    31    14     9    1
    32    15     4    1
    33    19    16    1
