@<TRIPOS>MOLECULE
*****
 29 32 0 0 0
SMALL
GASTEIGER

@<TRIPOS>ATOM
      1 N         -10.4492  -19.7843   23.1007 N.3     1  UNL1       -0.2908
      2 H         -10.9276  -20.6764   23.2257 H       1  UNL1        0.1237
      3 C          -8.9887  -20.0407   23.3266 C.3     1  UNL1        0.1341
      4 C          -5.9098  -19.3269   21.0735 C.ar    1  UNL1        0.1449
      5 C          -7.0308  -19.1780   20.0880 C.ar    1  UNL1        0.0403
      6 C          -8.3206  -19.4273   20.8122 C.ar    1  UNL1        0.0375
      7 C          -7.9968  -19.7302   22.2450 C.ar    1  UNL1        0.1388
      8 O          -6.5068  -19.6682   22.4066 O.2     1  UNL1       -0.4564
      9 O          -0.0641  -18.6722   19.8905 O.3     1  UNL1       -0.5055
     10 C          -1.5255  -18.8359   20.1863 C.ar    1  UNL1        0.1337
     11 C          -2.5410  -18.5844   19.1113 C.ar    1  UNL1        0.0367
     12 C          -4.0024  -18.7481   19.4071 C.ar    1  UNL1        0.0061
     13 C          -4.4483  -19.1632   20.7778 C.ar    1  UNL1        0.0347
     14 C          -3.4328  -19.4147   21.8528 C.ar    1  UNL1        0.0061
     15 C          -1.9714  -19.2511   21.5570 C.ar    1  UNL1        0.0367
     16 H           0.2145  -18.4129   19.0343 H       1  UNL1        0.2922
     17 C         -11.1745  -18.7816   23.9485 C.3     1  UNL1        0.0737
     18 C         -11.2534  -17.3484   23.5129 C.3     1  UNL1        0.0451
     19 C         -10.0315  -16.6563   22.9856 C.ar    1  UNL1        0.0013
     20 C          -9.7727  -16.2935   21.5533 C.ar    1  UNL1        0.0963
     21 N          -8.4351  -15.6186   21.4806 N.ar    1  UNL1       -0.2273
     22 C          -7.8672  -15.5643   22.8679 C.ar    1  UNL1        0.1404
     23 N          -6.5792  -15.0138   23.4043 N.ar    1  UNL1       -0.3356
     24 C          -6.2778  -15.1045   24.8708 C.ar    1  UNL1        0.1035
     25 C          -7.2644  -15.7459   25.8010 C.ar    1  UNL1        0.1572
     26 F          -6.9630  -15.8367   27.2676 F       1  UNL1       -0.2026
     27 C          -8.5525  -16.2965   25.2646 C.ar    1  UNL1        0.0339
     28 C          -8.8539  -16.2057   23.7980 C.ar    1  UNL1        0.0338
     29 H          -5.9316  -14.5928   22.7938 H       1  UNL1        0.1675
@<TRIPOS>BOND
     1     9    10    1
     2    10    11   ar
     3    11    12   ar
     4    12    13   ar
     5    13     4    1
     6     4     5   ar
     7     5     6   ar
     8     6     7   ar
     9     7     3    1
    10     3     1    1
    11     1    17    1
    12    17    18    1
    13    18    19    1
    14    19    20   ar
    15    20    21   ar
    16    21    22   ar
    17    22    23   ar
    18    23    24   ar
    19    24    25   ar
    20    25    26    1
    21    25    27   ar
    22    27    28   ar
    23     7     8   ar
    24    13    14   ar
    25    14    15   ar
    26    15    10   ar
    27     8     4   ar
    28    28    19   ar
    29    28    22    1
    30     9    16    1
    31     1     2    1
    32    23    29    1
@<TRIPOS>MOLECULE
*****
 29 32 0 0 0
SMALL
GASTEIGER

@<TRIPOS>ATOM
      1 N         -12.2342  -18.1555   21.4014 N.3     1  UNL1       -0.2908
      2 H         -13.1984  -18.4374   21.2247 H       1  UNL1        0.1237
      3 C         -11.4313  -19.4158   21.5307 C.3     1  UNL1        0.1341
      4 C          -7.6734  -19.6466   20.5872 C.ar    1  UNL1        0.1449
      5 C          -8.3146  -19.6701   19.2313 C.ar    1  UNL1        0.0403
      6 C          -9.8004  -19.5865   19.4198 C.ar    1  UNL1        0.0375
      7 C         -10.0774  -19.5113   20.8920 C.ar    1  UNL1        0.1388
      8 O          -8.7629  -19.5485   21.6135 O.2     1  UNL1       -0.4564
      9 O          -1.7845  -19.9007   21.7082 O.3     1  UNL1       -0.5055
     10 C          -3.2567  -19.8371   21.4280 C.ar    1  UNL1        0.1337
     11 C          -3.8171  -20.5041   20.2069 C.ar    1  UNL1        0.0367
     12 C          -5.2894  -20.4406   19.9267 C.ar    1  UNL1        0.0061
     13 C          -6.2011  -19.7101   20.8675 C.ar    1  UNL1        0.0347
     14 C          -5.6407  -19.0431   22.0885 C.ar    1  UNL1        0.0061
     15 C          -4.1684  -19.1067   22.3688 C.ar    1  UNL1        0.0367
     16 H          -1.2150  -20.3570   21.1205 H       1  UNL1        0.2922
     17 C         -12.2713  -17.1706   22.5322 C.3     1  UNL1        0.0737
     18 C         -11.1074  -17.0641   23.4725 C.3     1  UNL1        0.0451
     19 C          -9.8237  -16.4414   23.0095 C.ar    1  UNL1        0.0013
     20 C          -9.4788  -16.0803   21.5951 C.ar    1  UNL1        0.0963
     21 N          -8.1015  -15.4863   21.5911 N.ar    1  UNL1       -0.2273
     22 C          -7.5951  -15.4803   23.0031 C.ar    1  UNL1        0.1404
     23 N          -6.3023  -15.0135   23.6037 N.ar    1  UNL1       -0.3356
     24 C          -6.0740  -15.1372   25.0811 C.ar    1  UNL1        0.1035
     25 C          -7.1384  -15.7275   25.9577 C.ar    1  UNL1        0.1572
     26 F          -6.9100  -15.8511   27.4351 F       1  UNL1       -0.2026
     27 C          -8.4312  -16.1942   25.3570 C.ar    1  UNL1        0.0339
     28 C          -8.6595  -16.0706   23.8797 C.ar    1  UNL1        0.0338
     29 H          -5.6037  -14.6261   23.0284 H       1  UNL1        0.1675
@<TRIPOS>BOND
     1     9    10    1
     2    10    11   ar
     3    11    12   ar
     4    12    13   ar
     5    13     4    1
     6     4     5   ar
     7     5     6   ar
     8     6     7   ar
     9     7     3    1
    10     3     1    1
    11     1    17    1
    12    17    18    1
    13    18    19    1
    14    19    20   ar
    15    20    21   ar
    16    21    22   ar
    17    22    23   ar
    18    23    24   ar
    19    24    25   ar
    20    25    26    1
    21    25    27   ar
    22    27    28   ar
    23     7     8   ar
    24    13    14   ar
    25    14    15   ar
    26    15    10   ar
    27     8     4   ar
    28    28    19   ar
    29    28    22    1
    30     9    16    1
    31     1     2    1
    32    23    29    1
@<TRIPOS>MOLECULE
*****
 29 32 0 0 0
SMALL
GASTEIGER

@<TRIPOS>ATOM
      1 N         -11.4372  -18.9417   24.2604 N.3     1  UNL1       -0.2908
      2 H         -10.7734  -18.1695   24.2002 H       1  UNL1        0.1237
      3 C         -10.8533  -20.0769   23.4729 C.3     1  UNL1        0.1341
      4 C          -7.4803  -19.6174   21.6083 C.ar    1  UNL1        0.1449
      5 C          -8.4592  -19.2653   20.5276 C.ar    1  UNL1        0.0403
      6 C          -9.8418  -19.3946   21.0946 C.ar    1  UNL1        0.0375
      7 C          -9.7176  -19.8266   22.5256 C.ar    1  UNL1        0.1388
      8 O          -8.2580  -19.9643   22.8431 O.2     1  UNL1       -0.4564
      9 O          -1.5032  -19.6351   21.0839 O.3     1  UNL1       -0.5055
     10 C          -2.9975  -19.6307   21.2150 C.ar    1  UNL1        0.1337
     11 C          -3.6503  -18.8675   22.3291 C.ar    1  UNL1        0.0367
     12 C          -5.1446  -18.8631   22.4602 C.ar    1  UNL1        0.0061
     13 C          -5.9860  -19.6219   21.4772 C.ar    1  UNL1        0.0347
     14 C          -5.3331  -20.3851   20.3631 C.ar    1  UNL1        0.0061
     15 C          -3.8389  -20.3895   20.2320 C.ar    1  UNL1        0.0367
     16 H          -0.9777  -19.1611   21.6980 H       1  UNL1        0.2922
     17 C         -12.7814  -18.3869   23.8925 C.3     1  UNL1        0.0737
     18 C         -12.8855  -17.0313   23.2588 C.3     1  UNL1        0.0451
     19 C         -11.7973  -16.5431   22.3490 C.ar    1  UNL1        0.0013
     20 C         -11.9168  -16.3245   20.8698 C.ar    1  UNL1        0.0963
     21 N         -10.5920  -15.8342   20.3653 N.ar    1  UNL1       -0.2273
     22 C          -9.6538  -15.7498   21.5327 C.ar    1  UNL1        0.1404
     23 N          -8.2174  -15.3306   21.6376 N.ar    1  UNL1       -0.3356
     24 C          -7.5260  -15.3496   22.9686 C.ar    1  UNL1        0.1035
     25 C          -8.2710  -15.7877   24.1946 C.ar    1  UNL1        0.1572
     26 F          -7.5795  -15.8067   25.5256 F       1  UNL1       -0.2026
     27 C          -9.7073  -16.2069   24.0896 C.ar    1  UNL1        0.0339
     28 C         -10.3988  -16.1880   22.7586 C.ar    1  UNL1        0.0338
     29 H          -7.7285  -15.0430   20.8330 H       1  UNL1        0.1675
@<TRIPOS>BOND
     1     9    10    1
     2    10    11   ar
     3    11    12   ar
     4    12    13   ar
     5    13     4    1
     6     4     5   ar
     7     5     6   ar
     8     6     7   ar
     9     7     3    1
    10     3     1    1
    11     1    17    1
    12    17    18    1
    13    18    19    1
    14    19    20   ar
    15    20    21   ar
    16    21    22   ar
    17    22    23   ar
    18    23    24   ar
    19    24    25   ar
    20    25    26    1
    21    25    27   ar
    22    27    28   ar
    23     7     8   ar
    24    13    14   ar
    25    14    15   ar
    26    15    10   ar
    27     8     4   ar
    28    28    19   ar
    29    28    22    1
    30     9    16    1
    31     1     2    1
    32    23    29    1
@<TRIPOS>MOLECULE
*****
 29 32 0 0 0
SMALL
GASTEIGER

@<TRIPOS>ATOM
      1 N         -10.4251  -15.6816   20.1330 N.3     1  UNL1       -0.2908
      2 H          -9.7088  -16.3103   19.7697 H       1  UNL1        0.1237
      3 C          -9.9974  -15.2913   21.5167 C.3     1  UNL1        0.1341
      4 C          -6.8456  -17.3023   22.5593 C.ar    1  UNL1        0.1449
      5 C          -7.4606  -17.0136   23.8966 C.ar    1  UNL1        0.0403
      6 C          -8.7161  -16.2251   23.6688 C.ar    1  UNL1        0.0375
      7 C          -8.8771  -16.0265   22.1908 C.ar    1  UNL1        0.1388
      8 O          -7.7210  -16.6923   21.5050 O.2     1  UNL1       -0.4564
      9 O          -1.7742  -20.3607   21.5961 O.3     1  UNL1       -0.5055
     10 C          -3.0420  -19.5961   21.8369 C.ar    1  UNL1        0.1337
     11 C          -4.2984  -19.9802   21.1132 C.ar    1  UNL1        0.0367
     12 C          -5.5662  -19.2157   21.3540 C.ar    1  UNL1        0.0061
     13 C          -5.5776  -18.0669   22.3185 C.ar    1  UNL1        0.0347
     14 C          -4.3212  -17.6828   23.0422 C.ar    1  UNL1        0.0061
     15 C          -3.0534  -18.4473   22.8014 C.ar    1  UNL1        0.0367
     16 H          -1.7670  -21.0782   20.9935 H       1  UNL1        0.2922
     17 C         -11.7456  -16.3605   19.9198 C.3     1  UNL1        0.0737
     18 C         -11.9409  -17.7786   20.3681 C.3     1  UNL1        0.0451
     19 C         -12.1105  -18.0877   21.8261 C.ar    1  UNL1        0.0013
     20 C         -13.2677  -17.6741   22.6862 C.ar    1  UNL1        0.0963
     21 N         -13.0251  -18.1954   24.0716 N.ar    1  UNL1       -0.2273
     22 C         -11.7179  -18.9312   24.0677 C.ar    1  UNL1        0.1404
     23 N         -10.9693  -19.6531   25.1486 N.ar    1  UNL1       -0.3356
     24 C          -9.6554  -20.3085   24.8416 C.ar    1  UNL1        0.1035
     25 C          -9.0902  -20.2419   23.4538 C.ar    1  UNL1        0.1572
     26 F          -7.7763  -20.8973   23.1468 F       1  UNL1       -0.2026
     27 C          -9.8388  -19.5199   22.3729 C.ar    1  UNL1        0.0339
     28 C         -11.1527  -18.8646   22.6799 C.ar    1  UNL1        0.0338
     29 H         -11.3402  -19.6968   26.0595 H       1  UNL1        0.1675
@<TRIPOS>BOND
     1     9    10    1
     2    10    11   ar
     3    11    12   ar
     4    12    13   ar
     5    13     4    1
     6     4     5   ar
     7     5     6   ar
     8     6     7   ar
     9     7     3    1
    10     3     1    1
    11     1    17    1
    12    17    18    1
    13    18    19    1
    14    19    20   ar
    15    20    21   ar
    16    21    22   ar
    17    22    23   ar
    18    23    24   ar
    19    24    25   ar
    20    25    26    1
    21    25    27   ar
    22    27    28   ar
    23     7     8   ar
    24    13    14   ar
    25    14    15   ar
    26    15    10   ar
    27     8     4   ar
    28    28    19   ar
    29    28    22    1
    30     9    16    1
    31     1     2    1
    32    23    29    1
@<TRIPOS>MOLECULE
*****
 29 32 0 0 0
SMALL
GASTEIGER

@<TRIPOS>ATOM
      1 N         -10.3071  -17.5868   19.6769 N.3     1  UNL1       -0.2908
      2 H         -10.0705  -17.4594   18.6929 H       1  UNL1        0.1237
      3 C          -9.8438  -18.9612   20.0593 C.3     1  UNL1        0.1341
      4 C          -6.0819  -19.2197   20.9794 C.ar    1  UNL1        0.1449
      5 C          -6.7245  -19.6711   22.2574 C.ar    1  UNL1        0.0403
      6 C          -8.2119  -19.6292   22.0682 C.ar    1  UNL1        0.0375
      7 C          -8.4886  -19.1519   20.6734 C.ar    1  UNL1        0.1388
      8 O          -7.1722  -18.8988   20.0004 O.2     1  UNL1       -0.4564
      9 O          -0.1855  -18.7753   19.9617 O.3     1  UNL1       -0.5055
     10 C          -1.6596  -18.8864   20.2161 C.ar    1  UNL1        0.1337
     11 C          -2.6344  -18.6125   19.1094 C.ar    1  UNL1        0.0367
     12 C          -4.1085  -18.7236   19.3639 C.ar    1  UNL1        0.0061
     13 C          -4.6077  -19.1086   20.7250 C.ar    1  UNL1        0.0347
     14 C          -3.6329  -19.3825   21.8316 C.ar    1  UNL1        0.0061
     15 C          -2.1589  -19.2714   21.5772 C.ar    1  UNL1        0.0367
     16 H           0.1264  -18.5349   19.1114 H       1  UNL1        0.2922
     17 C         -11.7523  -17.2139   19.8265 C.3     1  UNL1        0.0737
     18 C         -12.2480  -16.6365   21.1192 C.3     1  UNL1        0.0451
     19 C         -11.8399  -17.2561   22.4228 C.ar    1  UNL1        0.0013
     20 C         -12.6336  -18.2557   23.2107 C.ar    1  UNL1        0.0963
     21 N         -11.8505  -18.6023   24.4422 N.ar    1  UNL1       -0.2273
     22 C         -10.5728  -17.8169   24.4154 C.ar    1  UNL1        0.1404
     23 N          -9.4146  -17.7519   25.3663 N.ar    1  UNL1       -0.3356
     24 C          -8.2497  -16.8549   25.0691 C.ar    1  UNL1        0.1035
     25 C          -8.2431  -16.0229   23.8210 C.ar    1  UNL1        0.1572
     26 F          -7.0782  -15.1258   23.5237 F       1  UNL1       -0.2026
     27 C          -9.4014  -16.0879   22.8701 C.ar    1  UNL1        0.0339
     28 C         -10.5662  -16.9849   23.1674 C.ar    1  UNL1        0.0338
     29 H          -9.4189  -18.2979   26.1855 H       1  UNL1        0.1675
@<TRIPOS>BOND
     1     9    10    1
     2    10    11   ar
     3    11    12   ar
     4    12    13   ar
     5    13     4    1
     6     4     5   ar
     7     5     6   ar
     8     6     7   ar
     9     7     3    1
    10     3     1    1
    11     1    17    1
    12    17    18    1
    13    18    19    1
    14    19    20   ar
    15    20    21   ar
    16    21    22   ar
    17    22    23   ar
    18    23    24   ar
    19    24    25   ar
    20    25    26    1
    21    25    27   ar
    22    27    28   ar
    23     7     8   ar
    24    13    14   ar
    25    14    15   ar
    26    15    10   ar
    27     8     4   ar
    28    28    19   ar
    29    28    22    1
    30     9    16    1
    31     1     2    1
    32    23    29    1
@<TRIPOS>MOLECULE
*****
 29 32 0 0 0
SMALL
GASTEIGER

@<TRIPOS>ATOM
      1 N          -9.9519  -19.9070   23.7344 N.3     1  UNL1       -0.2908
      2 H         -10.6953  -20.5967   23.6252 H       1  UNL1        0.1237
      3 C          -8.6656  -20.5991   23.3933 C.3     1  UNL1        0.1341
      4 C          -5.7211  -19.3190   21.2123 C.ar    1  UNL1        0.1449
      5 C          -6.8998  -18.8376   20.4193 C.ar    1  UNL1        0.0403
      6 C          -8.1462  -19.2586   21.1398 C.ar    1  UNL1        0.0375
      7 C          -7.7379  -20.0001   22.3781 C.ar    1  UNL1        0.1388
      8 O          -6.2391  -20.0375   22.4229 O.2     1  UNL1       -0.4564
      9 O           0.0522  -18.5125   19.7915 O.3     1  UNL1       -0.5055
     10 C          -1.3911  -18.7141   20.1467 C.ar    1  UNL1        0.1337
     11 C          -2.4481  -18.5890   19.0898 C.ar    1  UNL1        0.0367
     12 C          -3.8914  -18.7907   19.4450 C.ar    1  UNL1        0.0061
     13 C          -4.2777  -19.1174   20.8572 C.ar    1  UNL1        0.0347
     14 C          -3.2207  -19.2425   21.9140 C.ar    1  UNL1        0.0061
     15 C          -1.7773  -19.0408   21.5588 C.ar    1  UNL1        0.0367
     16 H           0.2935  -18.3084   18.9094 H       1  UNL1        0.2922
     17 C         -10.1331  -19.2853   25.0874 C.3     1  UNL1        0.0737
     18 C          -9.6022  -17.9086   25.3575 C.3     1  UNL1        0.0451
     19 C          -9.0910  -17.0666   24.2262 C.ar    1  UNL1        0.0013
     20 C          -7.7033  -16.5121   24.0970 C.ar    1  UNL1        0.0963
     21 N          -7.6324  -15.7341   22.8165 N.ar    1  UNL1       -0.2273
     22 C          -8.9762  -15.8079   22.1542 C.ar    1  UNL1        0.1404
     23 N          -9.4955  -15.2316   20.8704 N.ar    1  UNL1       -0.3356
     24 C         -10.9163  -15.4789   20.4579 C.ar    1  UNL1        0.1035
     25 C         -11.8178  -16.3024   21.3292 C.ar    1  UNL1        0.1572
     26 F         -13.2386  -16.5496   20.9166 F       1  UNL1       -0.2026
     27 C         -11.2985  -16.8787   22.6130 C.ar    1  UNL1        0.0339
     28 C          -9.8777  -16.6315   23.0255 C.ar    1  UNL1        0.0338
     29 H          -8.9038  -14.6911   20.2986 H       1  UNL1        0.1675
@<TRIPOS>BOND
     1     9    10    1
     2    10    11   ar
     3    11    12   ar
     4    12    13   ar
     5    13     4    1
     6     4     5   ar
     7     5     6   ar
     8     6     7   ar
     9     7     3    1
    10     3     1    1
    11     1    17    1
    12    17    18    1
    13    18    19    1
    14    19    20   ar
    15    20    21   ar
    16    21    22   ar
    17    22    23   ar
    18    23    24   ar
    19    24    25   ar
    20    25    26    1
    21    25    27   ar
    22    27    28   ar
    23     7     8   ar
    24    13    14   ar
    25    14    15   ar
    26    15    10   ar
    27     8     4   ar
    28    28    19   ar
    29    28    22    1
    30     9    16    1
    31     1     2    1
    32    23    29    1
@<TRIPOS>MOLECULE
*****
 29 32 0 0 0
SMALL
GASTEIGER

@<TRIPOS>ATOM
      1 N          -9.1169  -15.8245   24.3995 N.3     1  UNL1       -0.2908
      2 H          -9.1567  -16.1111   23.4214 H       1  UNL1        0.1237
      3 C          -7.9164  -14.9367   24.5421 C.3     1  UNL1        0.1341
      4 C          -4.4918  -16.5248   23.6390 C.ar    1  UNL1        0.1449
      5 C          -4.3398  -16.3303   25.1186 C.ar    1  UNL1        0.0403
      6 C          -5.6043  -15.7117   25.6369 C.ar    1  UNL1        0.0375
      7 C          -6.5376  -15.5239   24.4778 C.ar    1  UNL1        0.1388
      8 O          -5.8500  -16.0264   23.2430 O.2     1  UNL1       -0.4564
      9 O          -0.3870  -18.8822   19.9519 O.3     1  UNL1       -0.5055
     10 C          -1.4132  -18.2929   20.8737 C.ar    1  UNL1        0.1337
     11 C          -1.4949  -16.8058   21.0524 C.ar    1  UNL1        0.0367
     12 C          -2.5211  -16.2165   21.9741 C.ar    1  UNL1        0.0061
     13 C          -3.4656  -17.1142   22.7172 C.ar    1  UNL1        0.0347
     14 C          -3.3839  -18.6012   22.5385 C.ar    1  UNL1        0.0061
     15 C          -2.3577  -19.1906   21.6167 C.ar    1  UNL1        0.0367
     16 H           0.2029  -18.3214   19.4878 H       1  UNL1        0.2922
     17 C          -9.2274  -17.0742   25.2217 C.3     1  UNL1        0.0737
     18 C          -9.8597  -18.3028   24.6377 C.3     1  UNL1        0.0451
     19 C         -10.1893  -18.3538   23.1753 C.ar    1  UNL1        0.0013
     20 C         -11.5006  -17.9749   22.5533 C.ar    1  UNL1        0.0963
     21 N         -11.3871  -18.1795   21.0717 N.ar    1  UNL1       -0.2273
     22 C         -10.0057  -18.6849   20.7780 C.ar    1  UNL1        0.1404
     23 N          -9.3262  -19.0609   19.4946 N.ar    1  UNL1       -0.3356
     24 C          -7.9065  -19.5445   19.5114 C.ar    1  UNL1        0.1035
     25 C          -7.1662  -19.6522   20.8116 C.ar    1  UNL1        0.1572
     26 F          -5.7464  -20.1360   20.8283 F       1  UNL1       -0.2026
     27 C          -7.8456  -19.2762   22.0949 C.ar    1  UNL1        0.0339
     28 C          -9.2653  -18.7925   22.0781 C.ar    1  UNL1        0.0338
     29 H          -9.8121  -18.9902   18.6413 H       1  UNL1        0.1675
@<TRIPOS>BOND
     1     9    10    1
     2    10    11   ar
     3    11    12   ar
     4    12    13   ar
     5    13     4    1
     6     4     5   ar
     7     5     6   ar
     8     6     7   ar
     9     7     3    1
    10     3     1    1
    11     1    17    1
    12    17    18    1
    13    18    19    1
    14    19    20   ar
    15    20    21   ar
    16    21    22   ar
    17    22    23   ar
    18    23    24   ar
    19    24    25   ar
    20    25    26    1
    21    25    27   ar
    22    27    28   ar
    23     7     8   ar
    24    13    14   ar
    25    14    15   ar
    26    15    10   ar
    27     8     4   ar
    28    28    19   ar
    29    28    22    1
    30     9    16    1
    31     1     2    1
    32    23    29    1
@<TRIPOS>MOLECULE
*****
 29 32 0 0 0
SMALL
GASTEIGER

@<TRIPOS>ATOM
      1 N          -9.1148  -19.9893   18.9589 N.3     1  UNL1       -0.2908
      2 H          -8.8939  -19.3425   18.2017 H       1  UNL1        0.1237
      3 C         -10.3260  -19.4433   19.6552 C.3     1  UNL1        0.1341
      4 C          -9.7935  -18.2428   23.3076 C.ar    1  UNL1        0.1449
      5 C         -10.7012  -19.4183   23.5184 C.ar    1  UNL1        0.0403
      6 C         -11.0111  -20.0110   22.1758 C.ar    1  UNL1        0.0375
      7 C         -10.2950  -19.2020   21.1353 C.ar    1  UNL1        0.1388
      8 O          -9.5425  -18.1091   21.8348 O.2     1  UNL1       -0.4564
      9 O          -7.5590  -14.6977   27.6018 O.3     1  UNL1       -0.5055
     10 C          -8.1176  -15.5840   26.5283 C.ar    1  UNL1        0.1337
     11 C          -8.0624  -15.1501   25.0935 C.ar    1  UNL1        0.0367
     12 C          -8.6210  -16.0364   24.0200 C.ar    1  UNL1        0.0061
     13 C          -9.2349  -17.3565   24.3812 C.ar    1  UNL1        0.0347
     14 C          -9.2901  -17.7903   25.8160 C.ar    1  UNL1        0.0061
     15 C          -8.7315  -16.9041   26.8896 C.ar    1  UNL1        0.0367
     16 H          -7.1756  -13.8731   27.3761 H       1  UNL1        0.2922
     17 C          -7.8443  -20.2087   19.7255 C.3     1  UNL1        0.0737
     18 C          -6.7856  -19.1461   19.7426 C.3     1  UNL1        0.0451
     19 C          -5.6403  -19.2440   20.7063 C.ar    1  UNL1        0.0013
     20 C          -5.7290  -19.6744   22.1404 C.ar    1  UNL1        0.0963
     21 N          -4.3486  -19.6252   22.7253 N.ar    1  UNL1       -0.2273
     22 C          -3.4068  -19.1643   21.6527 C.ar    1  UNL1        0.1404
     23 N          -1.9254  -18.9287   21.6511 N.ar    1  UNL1       -0.3356
     24 C          -1.2424  -18.4575   20.4015 C.ar    1  UNL1        0.1035
     25 C          -2.0407  -18.2219   19.1536 C.ar    1  UNL1        0.1572
     26 F          -1.3576  -17.7507   17.9040 F       1  UNL1       -0.2026
     27 C          -3.5220  -18.4575   19.1553 C.ar    1  UNL1        0.0339
     28 C          -4.2051  -18.9287   20.4048 C.ar    1  UNL1        0.0338
     29 H          -1.4015  -19.0833   22.4701 H       1  UNL1        0.1675
@<TRIPOS>BOND
     1     9    10    1
     2    10    11   ar
     3    11    12   ar
     4    12    13   ar
     5    13     4    1
     6     4     5   ar
     7     5     6   ar
     8     6     7   ar
     9     7     3    1
    10     3     1    1
    11     1    17    1
    12    17    18    1
    13    18    19    1
    14    19    20   ar
    15    20    21   ar
    16    21    22   ar
    17    22    23   ar
    18    23    24   ar
    19    24    25   ar
    20    25    26    1
    21    25    27   ar
    22    27    28   ar
    23     7     8   ar
    24    13    14   ar
    25    14    15   ar
    26    15    10   ar
    27     8     4   ar
    28    28    19   ar
    29    28    22    1
    30     9    16    1
    31     1     2    1
    32    23    29    1
@<TRIPOS>MOLECULE
*****
 29 32 0 0 0
SMALL
GASTEIGER

@<TRIPOS>ATOM
      1 N          -8.6424  -19.7449   19.0098 N.3     1  UNL1       -0.2908
      2 H          -8.6883  -19.1754   18.1649 H       1  UNL1        0.1237
      3 C          -9.9749  -19.6222   19.6876 C.3     1  UNL1        0.1341
      4 C          -9.6581  -18.2660   23.3105 C.ar    1  UNL1        0.1449
      5 C         -10.6474  -19.3772   23.5025 C.ar    1  UNL1        0.0403
      6 C         -10.8864  -20.0204   22.1686 C.ar    1  UNL1        0.0375
      7 C         -10.0450  -19.3069   21.1524 C.ar    1  UNL1        0.1388
      8 O          -9.2858  -18.2226   21.8581 O.2     1  UNL1       -0.4564
      9 O          -7.5590  -14.6331   27.5996 O.3     1  UNL1       -0.5055
     10 C          -8.0838  -15.5413   26.5274 C.ar    1  UNL1        0.1337
     11 C          -8.7180  -16.8495   26.8967 C.ar    1  UNL1        0.0367
     12 C          -9.2428  -17.7577   25.8244 C.ar    1  UNL1        0.0061
     13 C          -9.1333  -17.3577   24.3828 C.ar    1  UNL1        0.0347
     14 C          -8.4990  -16.0496   24.0135 C.ar    1  UNL1        0.0061
     15 C          -7.9742  -15.1414   25.0858 C.ar    1  UNL1        0.0367
     16 H          -7.6274  -14.8830   28.5001 H       1  UNL1        0.2922
     17 C          -7.3923  -19.3437   19.7352 C.3     1  UNL1        0.0737
     18 C          -6.5688  -20.3804   20.4405 C.3     1  UNL1        0.0451
     19 C          -5.1049  -20.1470   20.6696 C.ar    1  UNL1        0.0013
     20 C          -3.9799  -20.8429   19.9625 C.ar    1  UNL1        0.0963
     21 N          -2.6887  -20.3026   20.5020 N.ar    1  UNL1       -0.2273
     22 C          -3.0158  -19.2728   21.5424 C.ar    1  UNL1        0.1404
     23 N          -2.1468  -18.4103   22.4089 N.ar    1  UNL1       -0.3356
     24 C          -2.7710  -17.4516   23.3790 C.ar    1  UNL1        0.1035
     25 C          -4.2644  -17.3554   23.4826 C.ar    1  UNL1        0.1572
     26 F          -4.8887  -16.3966   24.4527 F       1  UNL1       -0.2026
     27 C          -5.1334  -18.2179   22.6161 C.ar    1  UNL1        0.0339
     28 C          -4.5091  -19.1766   21.6460 C.ar    1  UNL1        0.0338
     29 H          -1.1666  -18.4734   22.3409 H       1  UNL1        0.1675
@<TRIPOS>BOND
     1     9    10    1
     2    10    11   ar
     3    11    12   ar
     4    12    13   ar
     5    13     4    1
     6     4     5   ar
     7     5     6   ar
     8     6     7   ar
     9     7     3    1
    10     3     1    1
    11     1    17    1
    12    17    18    1
    13    18    19    1
    14    19    20   ar
    15    20    21   ar
    16    21    22   ar
    17    22    23   ar
    18    23    24   ar
    19    24    25   ar
    20    25    26    1
    21    25    27   ar
    22    27    28   ar
    23     7     8   ar
    24    13    14   ar
    25    14    15   ar
    26    15    10   ar
    27     8     4   ar
    28    28    19   ar
    29    28    22    1
    30     9    16    1
    31     1     2    1
    32    23    29    1
