@<TRIPOS>MOLECULE
*****
 24 25 0 0 0
SMALL
GASTEIGER

@<TRIPOS>ATOM
      1 C          -6.9658  -17.6546   22.5318 C.ar    1  UNL1        0.1329
      2 N          -7.3979  -16.7176   23.6204 N.ar    1  UNL1       -0.1993
      3 C          -8.8312  -16.2846   23.7122 C.ar    1  UNL1        0.2148
      4 N          -9.2633  -15.3475   24.8008 N.pl3   1  UNL1       -0.3274
      5 N          -9.8322  -16.7887   22.7153 N.ar    1  UNL1       -0.2139
      6 C          -9.4001  -17.7258   21.6266 C.ar    1  UNL1        0.0870
      7 C         -10.4011  -18.2298   20.6297 C.ar    1  UNL1        0.0193
      8 C          -9.9689  -19.1669   19.5411 C.ar    1  UNL1        0.0017
      9 C          -8.5357  -19.5999   19.4494 C.ar    1  UNL1        0.0047
     10 C          -7.5347  -19.0958   20.4463 C.ar    1  UNL1        0.0575
     11 C          -7.9668  -18.1588   21.5349 C.ar    1  UNL1        0.0535
     12 H          -8.6063  -15.0166   25.4551 H       1  UNL1        0.1452
     13 H         -10.2040  -15.0633   24.8611 H       1  UNL1        0.1452
     14 C          -6.1015  -19.5288   20.3545 C.2     1  UNL1        0.2460
     15 O          -5.6454  -20.7682   21.0658 O.2     1  UNL1       -0.2701
     16 N          -5.1243  -18.7224   19.5516 N.am    1  UNL1       -0.2992
     17 C          -3.6911  -19.1554   19.4598 C.3     1  UNL1        0.1109
     18 H          -5.4236  -17.9089   19.0847 H       1  UNL1        0.1498
     19 N          -5.5326  -18.0876   22.4401 N.pl3   1  UNL1       -0.3180
     20 H          -5.2863  -18.8592   21.8804 H       1  UNL1        0.1482
     21 C          -4.4746  -17.3451   23.2011 C.3     1  UNL1        0.0882
     22 C          -3.0371  -17.4530   22.7863 C.3     1  UNL1        0.0212
     23 C          -1.4250  -16.6270   20.9237 C.3     1  UNL1        0.0001
     24 C          -2.3867  -16.3289   22.0356 C.3     1  UNL1        0.0017
@<TRIPOS>BOND
     1    23    24    1
     2    24    22    1
     3    22    21    1
     4    21    19    1
     5    19     1    1
     6     1     2   ar
     7     2     3   ar
     8     3     4    1
     9     3     5   ar
    10     5     6   ar
    11     6     7   ar
    12     7     8   ar
    13     8     9   ar
    14     9    10   ar
    15    10    14    1
    16    14    15    2
    17    14    16   am
    18    16    17    1
    19    10    11   ar
    20    11     1   ar
    21    11     6   ar
    22    19    20    1
    23     4    12    1
    24     4    13    1
    25    16    18    1
@<TRIPOS>MOLECULE
*****
 24 25 0 0 0
SMALL
GASTEIGER

@<TRIPOS>ATOM
      1 C          -8.2128  -17.5095   22.5268 C.ar    1  UNL1        0.1329
      2 N          -6.7786  -17.3736   22.9445 N.ar    1  UNL1       -0.1993
      3 C          -5.7021  -18.0739   22.1694 C.ar    1  UNL1        0.2148
      4 N          -4.2678  -17.9380   22.5871 N.pl3   1  UNL1       -0.3274
      5 N          -6.0598  -18.9100   20.9765 N.ar    1  UNL1       -0.2139
      6 C          -7.4941  -19.0459   20.5588 C.ar    1  UNL1        0.0870
      7 C          -7.8518  -19.8821   19.3660 C.ar    1  UNL1        0.0193
      8 C          -9.2860  -20.0180   18.9483 C.ar    1  UNL1        0.0017
      9 C         -10.3625  -19.3177   19.7234 C.ar    1  UNL1        0.0047
     10 C         -10.0048  -18.4816   20.9162 C.ar    1  UNL1        0.0575
     11 C          -8.5706  -18.3457   21.3339 C.ar    1  UNL1        0.0535
     12 H          -4.0330  -17.3892   23.3700 H       1  UNL1        0.1452
     13 H          -3.5613  -18.3976   22.0784 H       1  UNL1        0.1452
     14 C         -11.0813  -17.7813   21.6913 C.2     1  UNL1        0.2460
     15 O         -11.3427  -16.3223   21.4616 O.2     1  UNL1       -0.2701
     16 N         -11.8964  -18.5401   22.6962 N.am    1  UNL1       -0.2992
     17 C         -12.9729  -17.8399   23.4713 C.3     1  UNL1        0.1109
     18 H         -11.7248  -19.4977   22.8470 H       1  UNL1        0.1498
     19 N          -9.2893  -16.8093   23.3019 N.pl3   1  UNL1       -0.3180
     20 H         -10.0461  -16.3941   22.8284 H       1  UNL1        0.1482
     21 C          -9.2128  -16.7416   24.7984 C.3     1  UNL1        0.0882
     22 C          -8.6179  -15.5369   25.4652 C.3     1  UNL1        0.0212
     23 C          -6.7128  -15.4959   27.2313 C.3     1  UNL1        0.0001
     24 C          -8.1696  -15.6156   26.8946 C.3     1  UNL1        0.0017
@<TRIPOS>BOND
     1    23    24    1
     2    24    22    1
     3    22    21    1
     4    21    19    1
     5    19     1    1
     6     1     2   ar
     7     2     3   ar
     8     3     4    1
     9     3     5   ar
    10     5     6   ar
    11     6     7   ar
    12     7     8   ar
    13     8     9   ar
    14     9    10   ar
    15    10    14    1
    16    14    15    2
    17    14    16   am
    18    16    17    1
    19    10    11   ar
    20    11     1   ar
    21    11     6   ar
    22    19    20    1
    23     4    12    1
    24     4    13    1
    25    16    18    1
@<TRIPOS>MOLECULE
*****
 24 25 0 0 0
SMALL
GASTEIGER

@<TRIPOS>ATOM
      1 C          -7.1032  -17.6364   22.4287 C.ar    1  UNL1        0.1329
      2 N          -8.4734  -17.9550   21.9081 N.ar    1  UNL1       -0.1993
      3 C          -9.6858  -17.4194   22.6103 C.ar    1  UNL1        0.2148
      4 N         -11.0561  -17.7380   22.0896 N.pl3   1  UNL1       -0.3274
      5 N          -9.5281  -16.5651   23.8331 N.ar    1  UNL1       -0.2139
      6 C          -8.1578  -16.2465   24.3538 C.ar    1  UNL1        0.0870
      7 C          -8.0001  -15.3922   25.5766 C.ar    1  UNL1        0.0193
      8 C          -6.6299  -15.0736   26.0972 C.ar    1  UNL1        0.0017
      9 C          -5.4175  -15.6093   25.3950 C.ar    1  UNL1        0.0047
     10 C          -5.5752  -16.4636   24.1722 C.ar    1  UNL1        0.0575
     11 C          -6.9454  -16.7821   23.6516 C.ar    1  UNL1        0.0535
     12 H         -11.1596  -18.2987   21.2871 H       1  UNL1        0.1452
     13 H         -11.8518  -17.3864   22.5505 H       1  UNL1        0.1452
     14 C          -4.3628  -16.9992   23.4700 C.2     1  UNL1        0.2460
     15 O          -3.9639  -18.4338   23.6510 O.2     1  UNL1       -0.2701
     16 N          -3.5493  -16.1003   22.5867 N.am    1  UNL1       -0.2992
     17 C          -2.3369  -16.6360   21.8845 C.3     1  UNL1        0.1109
     18 H          -3.8111  -15.1587   22.4679 H       1  UNL1        0.1498
     19 N          -5.8908  -18.1721   21.7265 N.pl3   1  UNL1       -0.3180
     20 H          -4.9927  -17.8746   21.9987 H       1  UNL1        0.1482
     21 C          -6.0468  -19.1610   20.6095 C.3     1  UNL1        0.0882
     22 C          -4.9672  -20.1677   20.3428 C.3     1  UNL1        0.0212
     23 C          -2.4579  -20.0228   21.0008 C.3     1  UNL1        0.0001
     24 C          -3.5705  -19.7085   20.0451 C.3     1  UNL1        0.0017
@<TRIPOS>BOND
     1    23    24    1
     2    24    22    1
     3    22    21    1
     4    21    19    1
     5    19     1    1
     6     1     2   ar
     7     2     3   ar
     8     3     4    1
     9     3     5   ar
    10     5     6   ar
    11     6     7   ar
    12     7     8   ar
    13     8     9   ar
    14     9    10   ar
    15    10    14    1
    16    14    15    2
    17    14    16   am
    18    16    17    1
    19    10    11   ar
    20    11     1   ar
    21    11     6   ar
    22    19    20    1
    23     4    12    1
    24     4    13    1
    25    16    18    1
@<TRIPOS>MOLECULE
*****
 24 25 0 0 0
SMALL
GASTEIGER

@<TRIPOS>ATOM
      1 C          -7.7516  -17.2745   22.8782 C.ar    1  UNL1        0.1329
      2 N          -7.1580  -16.2774   23.8286 N.ar    1  UNL1       -0.1993
      3 C          -5.6746  -16.2411   24.0478 C.ar    1  UNL1        0.2148
      4 N          -5.0811  -15.2439   24.9984 N.pl3   1  UNL1       -0.3274
      5 N          -4.7847  -17.2019   23.3166 N.ar    1  UNL1       -0.2139
      6 C          -5.3782  -18.1991   22.3660 C.ar    1  UNL1        0.0870
      7 C          -4.4882  -19.1599   21.6348 C.ar    1  UNL1        0.0193
      8 C          -5.0817  -20.1570   20.6843 C.ar    1  UNL1        0.0017
      9 C          -6.5652  -20.1933   20.4651 C.ar    1  UNL1        0.0047
     10 C          -7.4551  -19.2325   21.1963 C.ar    1  UNL1        0.0575
     11 C          -6.8616  -18.2354   22.1468 C.ar    1  UNL1        0.0535
     12 H          -5.6652  -14.6132   25.4783 H       1  UNL1        0.1452
     13 H          -4.1075  -15.2200   25.1423 H       1  UNL1        0.1452
     14 C          -8.9386  -19.2688   20.9771 C.2     1  UNL1        0.2460
     15 O          -9.8148  -20.0567   21.9052 O.2     1  UNL1       -0.2701
     16 N          -9.5458  -18.5172   19.8298 N.am    1  UNL1       -0.2992
     17 C         -11.0293  -18.5535   19.6106 C.3     1  UNL1        0.1109
     18 H          -8.9707  -18.0001   19.2207 H       1  UNL1        0.1498
     19 N          -9.2350  -17.3108   22.6589 N.pl3   1  UNL1       -0.3180
     20 H          -9.5958  -17.4050   21.7478 H       1  UNL1        0.1482
     21 C         -10.1687  -17.2036   23.8279 C.3     1  UNL1        0.0882
     22 C         -11.4429  -17.9949   23.8451 C.3     1  UNL1        0.0212
     23 C         -12.5969  -16.1832   22.3836 C.3     1  UNL1        0.0001
     24 C         -12.6307  -17.5210   23.0611 C.3     1  UNL1        0.0017
@<TRIPOS>BOND
     1    23    24    1
     2    24    22    1
     3    22    21    1
     4    21    19    1
     5    19     1    1
     6     1     2   ar
     7     2     3   ar
     8     3     4    1
     9     3     5   ar
    10     5     6   ar
    11     6     7   ar
    12     7     8   ar
    13     8     9   ar
    14     9    10   ar
    15    10    14    1
    16    14    15    2
    17    14    16   am
    18    16    17    1
    19    10    11   ar
    20    11     1   ar
    21    11     6   ar
    22    19    20    1
    23     4    12    1
    24     4    13    1
    25    16    18    1
@<TRIPOS>MOLECULE
*****
 24 25 0 0 0
SMALL
GASTEIGER

@<TRIPOS>ATOM
      1 C          -5.7209  -17.5495   22.7494 C.ar    1  UNL1        0.1329
      2 N          -4.2995  -17.2597   23.1312 N.ar    1  UNL1       -0.1993
      3 C          -3.1871  -18.0957   22.5711 C.ar    1  UNL1        0.2148
      4 N          -1.7658  -17.8059   22.9530 N.pl3   1  UNL1       -0.3274
      5 N          -3.4961  -19.2214   21.6291 N.ar    1  UNL1       -0.2139
      6 C          -4.9174  -19.5112   21.2472 C.ar    1  UNL1        0.0870
      7 C          -5.2264  -20.6369   20.3053 C.ar    1  UNL1        0.0193
      8 C          -6.6477  -20.9266   19.9234 C.ar    1  UNL1        0.0017
      9 C          -7.7601  -20.0906   20.4835 C.ar    1  UNL1        0.0047
     10 C          -7.4512  -18.9649   21.4255 C.ar    1  UNL1        0.0575
     11 C          -6.0299  -18.6752   21.8073 C.ar    1  UNL1        0.0535
     12 H          -1.5630  -17.0671   23.5713 H       1  UNL1        0.1452
     13 H          -1.0356  -18.3546   22.5854 H       1  UNL1        0.1452
     14 C          -8.5636  -18.1290   21.9856 C.2     1  UNL1        0.2460
     15 O          -9.0747  -18.3917   23.3711 O.2     1  UNL1       -0.2701
     16 N          -9.1648  -17.0303   21.1602 N.am    1  UNL1       -0.2992
     17 C         -10.2772  -16.1943   21.7203 C.3     1  UNL1        0.1109
     18 H          -8.8294  -16.8578   20.2508 H       1  UNL1        0.1498
     19 N          -6.8333  -16.7135   23.3095 N.pl3   1  UNL1       -0.3180
     20 H          -7.7692  -16.9920   23.1845 H       1  UNL1        0.1482
     21 C          -6.5196  -15.4532   24.0600 C.3     1  UNL1        0.0882
     22 C          -6.6612  -15.4143   25.5528 C.3     1  UNL1        0.0212
     23 C          -8.3138  -16.4363   27.2775 C.3     1  UNL1        0.0001
     24 C          -8.0240  -15.4577   26.1782 C.3     1  UNL1        0.0017
@<TRIPOS>BOND
     1    23    24    1
     2    24    22    1
     3    22    21    1
     4    21    19    1
     5    19     1    1
     6     1     2   ar
     7     2     3   ar
     8     3     4    1
     9     3     5   ar
    10     5     6   ar
    11     6     7   ar
    12     7     8   ar
    13     8     9   ar
    14     9    10   ar
    15    10    14    1
    16    14    15    2
    17    14    16   am
    18    16    17    1
    19    10    11   ar
    20    11     1   ar
    21    11     6   ar
    22    19    20    1
    23     4    12    1
    24     4    13    1
    25    16    18    1
@<TRIPOS>MOLECULE
*****
 24 25 0 0 0
SMALL
GASTEIGER

@<TRIPOS>ATOM
      1 C          -8.1717  -18.5867   21.0668 C.ar    1  UNL1        0.1329
      2 N          -8.0220  -19.5968   19.9681 N.ar    1  UNL1       -0.1993
      3 C          -9.1973  -19.9436   19.1029 C.ar    1  UNL1        0.2148
      4 N          -9.0476  -20.9537   18.0041 N.pl3   1  UNL1       -0.3274
      5 N         -10.5222  -19.2803   19.3364 N.ar    1  UNL1       -0.2139
      6 C         -10.6719  -18.2701   20.4352 C.ar    1  UNL1        0.0870
      7 C         -11.9968  -17.6068   20.6688 C.ar    1  UNL1        0.0193
      8 C         -12.1465  -16.5967   21.7675 C.ar    1  UNL1        0.0017
      9 C         -10.9712  -16.2499   22.6327 C.ar    1  UNL1        0.0047
     10 C          -9.6463  -16.9132   22.3991 C.ar    1  UNL1        0.0575
     11 C          -9.4967  -17.9233   21.3004 C.ar    1  UNL1        0.0535
     12 H          -8.1780  -21.3891   17.8508 H       1  UNL1        0.1452
     13 H          -9.8189  -21.1814   17.4363 H       1  UNL1        0.1452
     14 C          -8.4711  -16.5664   23.2643 C.2     1  UNL1        0.2460
     15 O          -8.2373  -17.3108   24.5454 O.2     1  UNL1       -0.2701
     16 N          -7.5296  -15.4753   22.8484 N.am    1  UNL1       -0.2992
     17 C          -6.3544  -15.1285   23.7136 C.3     1  UNL1        0.1109
     18 H          -7.6831  -14.9867   22.0076 H       1  UNL1        0.1498
     19 N          -6.9965  -18.2399   21.9320 N.pl3   1  UNL1       -0.3180
     20 H          -6.9341  -17.3474   22.3429 H       1  UNL1        0.1482
     21 C          -5.9163  -19.2528   22.1710 C.3     1  UNL1        0.0882
     22 C          -4.5629  -19.0663   21.5518 C.3     1  UNL1        0.0212
     23 C          -3.0994  -18.8073   19.4208 C.3     1  UNL1        0.0001
     24 C          -4.3899  -19.2127   20.0690 C.3     1  UNL1        0.0017
@<TRIPOS>BOND
     1    23    24    1
     2    24    22    1
     3    22    21    1
     4    21    19    1
     5    19     1    1
     6     1     2   ar
     7     2     3   ar
     8     3     4    1
     9     3     5   ar
    10     5     6   ar
    11     6     7   ar
    12     7     8   ar
    13     8     9   ar
    14     9    10   ar
    15    10    14    1
    16    14    15    2
    17    14    16   am
    18    16    17    1
    19    10    11   ar
    20    11     1   ar
    21    11     6   ar
    22    19    20    1
    23     4    12    1
    24     4    13    1
    25    16    18    1
@<TRIPOS>MOLECULE
*****
 24 25 0 0 0
SMALL
GASTEIGER

@<TRIPOS>ATOM
      1 C         -15.2021   -8.2823   18.9507 C.ar    1  UNL1        0.1329
      2 N         -15.4304   -9.7630   18.8767 N.ar    1  UNL1       -0.1993
      3 C         -16.8112  -10.3191   19.0615 C.ar    1  UNL1        0.2148
      4 N         -17.0395  -11.7998   18.9875 N.pl3   1  UNL1       -0.3274
      5 N         -17.9637   -9.3946   19.3203 N.ar    1  UNL1       -0.2139
      6 C         -17.7354   -7.9138   19.3944 C.ar    1  UNL1        0.0870
      7 C         -18.8879   -6.9893   19.6532 C.ar    1  UNL1        0.0193
      8 C         -18.6595   -5.5087   19.7272 C.ar    1  UNL1        0.0017
      9 C         -17.2787   -4.9526   19.5424 C.ar    1  UNL1        0.0047
     10 C         -16.1263   -5.8771   19.2836 C.ar    1  UNL1        0.0575
     11 C         -16.3546   -7.3577   19.2096 C.ar    1  UNL1        0.0535
     12 H         -16.2831  -12.4066   18.8176 H       1  UNL1        0.1452
     13 H         -17.9458  -12.1648   19.1088 H       1  UNL1        0.1452
     14 C         -14.7455   -5.3210   19.0988 C.2     1  UNL1        0.2460
     15 O         -13.7613   -5.3658   20.2298 O.2     1  UNL1       -0.2701
     16 N         -14.3489   -4.7201   17.7829 N.am    1  UNL1       -0.2992
     17 C         -12.9681   -4.1640   17.5981 C.3     1  UNL1        0.1109
     18 H         -14.9948   -4.6907   17.0405 H       1  UNL1        0.1498
     19 N         -13.8213   -7.7262   18.7659 N.pl3   1  UNL1       -0.3180
     20 H         -13.4067   -7.1907   19.4804 H       1  UNL1        0.1482
     21 C         -13.0723   -7.9861   17.4926 C.3     1  UNL1        0.0882
     22 C         -11.6217   -7.6192   17.3874 C.3     1  UNL1        0.0212
     23 C          -9.5008   -7.5778   18.8874 C.3     1  UNL1        0.0001
     24 C         -10.8907   -7.0988   18.5895 C.3     1  UNL1        0.0017
@<TRIPOS>BOND
     1    23    24    1
     2    24    22    1
     3    22    21    1
     4    21    19    1
     5    19     1    1
     6     1     2   ar
     7     2     3   ar
     8     3     4    1
     9     3     5   ar
    10     5     6   ar
    11     6     7   ar
    12     7     8   ar
    13     8     9   ar
    14     9    10   ar
    15    10    14    1
    16    14    15    2
    17    14    16   am
    18    16    17    1
    19    10    11   ar
    20    11     1   ar
    21    11     6   ar
    22    19    20    1
    23     4    12    1
    24     4    13    1
    25    16    18    1
@<TRIPOS>MOLECULE
*****
 24 25 0 0 0
SMALL
GASTEIGER

@<TRIPOS>ATOM
      1 C         -13.2487   -4.6787   17.7072 C.ar    1  UNL1        0.1329
      2 N         -13.4346   -3.1905   17.6821 N.ar    1  UNL1       -0.1993
      3 C         -12.3256   -2.2884   18.1364 C.ar    1  UNL1        0.2148
      4 N         -12.5116   -0.8001   18.1113 N.pl3   1  UNL1       -0.3274
      5 N         -11.0308   -2.8745   18.6157 N.ar    1  UNL1       -0.2139
      6 C         -10.8448   -4.3627   18.6408 C.ar    1  UNL1        0.0870
      7 C          -9.5500   -4.9488   19.1202 C.ar    1  UNL1        0.0193
      8 C          -9.3641   -6.4370   19.1452 C.ar    1  UNL1        0.0017
      9 C         -10.4731   -7.3391   18.6910 C.ar    1  UNL1        0.0047
     10 C         -11.7679   -6.7531   18.2117 C.ar    1  UNL1        0.0575
     11 C         -11.9538   -5.2649   18.1866 C.ar    1  UNL1        0.0535
     12 H         -13.3615   -0.4155   17.7967 H       1  UNL1        0.1452
     13 H         -11.7837   -0.2080   18.4094 H       1  UNL1        0.1452
     14 C         -12.8769   -7.6552   17.7574 C.2     1  UNL1        0.2460
     15 O         -13.1030   -7.8868   16.2928 O.2     1  UNL1       -0.2701
     16 N         -13.7598   -8.3257   18.7678 N.am    1  UNL1       -0.2992
     17 C         -14.8687   -9.2278   18.3135 C.3     1  UNL1        0.1109
     18 H         -13.6114   -8.1737   19.7291 H       1  UNL1        0.1498
     19 N         -14.3577   -5.5808   17.2530 N.pl3   1  UNL1       -0.3180
     20 H         -14.1836   -6.2706   16.5724 H       1  UNL1        0.1482
     21 C         -15.7318   -5.4321   17.8356 C.3     1  UNL1        0.0882
     22 C         -15.9328   -5.5341   19.3186 C.3     1  UNL1        0.0212
     23 C         -14.5762   -4.0344   20.9498 C.3     1  UNL1        0.0001
     24 C         -15.8315   -4.3069   20.1754 C.3     1  UNL1        0.0017
@<TRIPOS>BOND
     1    23    24    1
     2    24    22    1
     3    22    21    1
     4    21    19    1
     5    19     1    1
     6     1     2   ar
     7     2     3   ar
     8     3     4    1
     9     3     5   ar
    10     5     6   ar
    11     6     7   ar
    12     7     8   ar
    13     8     9   ar
    14     9    10   ar
    15    10    14    1
    16    14    15    2
    17    14    16   am
    18    16    17    1
    19    10    11   ar
    20    11     1   ar
    21    11     6   ar
    22    19    20    1
    23     4    12    1
    24     4    13    1
    25    16    18    1
@<TRIPOS>MOLECULE
*****
 24 25 0 0 0
SMALL
GASTEIGER

@<TRIPOS>ATOM
      1 C         -12.8594   -6.1414   19.2148 C.ar    1  UNL1        0.1329
      2 N         -12.0275   -7.3538   18.9183 N.ar    1  UNL1       -0.1993
      3 C         -10.6113   -7.1953   18.4501 C.ar    1  UNL1        0.2148
      4 N          -9.7793   -8.4078   18.1535 N.pl3   1  UNL1       -0.3274
      5 N         -10.0270   -5.8245   18.2784 N.ar    1  UNL1       -0.2139
      6 C         -10.8590   -4.6121   18.5750 C.ar    1  UNL1        0.0870
      7 C         -10.2748   -3.2413   18.4033 C.ar    1  UNL1        0.0193
      8 C         -11.1067   -2.0289   18.6999 C.ar    1  UNL1        0.0017
      9 C         -12.5229   -2.1874   19.1681 C.ar    1  UNL1        0.0047
     10 C         -13.1072   -3.5582   19.3398 C.ar    1  UNL1        0.0575
     11 C         -12.2752   -4.7705   19.0432 C.ar    1  UNL1        0.0535
     12 H         -10.1627   -9.3075   18.2661 H       1  UNL1        0.1452
     13 H          -8.8498   -8.3038   17.8462 H       1  UNL1        0.1452
     14 C         -14.5234   -3.7166   19.8080 C.2     1  UNL1        0.2460
     15 O         -14.8067   -4.0349   21.2462 O.2     1  UNL1       -0.2701
     16 N         -15.6563   -3.5569   18.8380 N.am    1  UNL1       -0.2992
     17 C         -17.0725   -3.7154   19.3062 C.3     1  UNL1        0.1109
     18 H         -15.4704   -3.3480   17.8940 H       1  UNL1        0.1498
     19 N         -14.2757   -6.2999   19.6831 N.pl3   1  UNL1       -0.3180
     20 H         -14.6129   -5.7493   20.4262 H       1  UNL1        0.1482
     21 C         -15.1780   -7.2973   19.0190 C.3     1  UNL1        0.0882
     22 C         -16.5452   -7.5600   19.5773 C.3     1  UNL1        0.0212
     23 C         -17.1834  -10.0585   19.2604 C.3     1  UNL1        0.0001
     24 C         -16.8709   -8.9020   20.1631 C.3     1  UNL1        0.0017
@<TRIPOS>BOND
     1    23    24    1
     2    24    22    1
     3    22    21    1
     4    21    19    1
     5    19     1    1
     6     1     2   ar
     7     2     3   ar
     8     3     4    1
     9     3     5   ar
    10     5     6   ar
    11     6     7   ar
    12     7     8   ar
    13     8     9   ar
    14     9    10   ar
    15    10    14    1
    16    14    15    2
    17    14    16   am
    18    16    17    1
    19    10    11   ar
    20    11     1   ar
    21    11     6   ar
    22    19    20    1
    23     4    12    1
    24     4    13    1
    25    16    18    1
