@<TRIPOS>MOLECULE
*****
 25 27 0 0 0
SMALL
GASTEIGER

@<TRIPOS>ATOM
      1 C          -9.0662  -17.9309   21.6234 C.ar    1  UNL1        0.1374
      2 C          -8.7881  -17.0473   22.8032 C.ar    1  UNL1        0.0612
      3 C          -9.9241  -16.4116   23.5484 C.ar    1  UNL1        0.1483
      4 C         -11.3382  -16.6596   23.1139 C.ar    1  UNL1        0.0522
      5 C         -11.6163  -17.5432   21.9341 C.ar    1  UNL1        0.0625
      6 C         -13.0304  -17.7911   21.4996 C.3     1  UNL1        0.0522
      7 N         -10.4803  -18.1788   21.1889 N.ar    1  UNL1       -0.2449
      8 N          -6.5502  -18.5592   21.4658 N.am    1  UNL1       -0.2646
      9 C          -7.9302  -18.5666   20.8781 C.2     1  UNL1        0.2684
     10 O          -8.1743  -19.2098   19.5452 O.2     1  UNL1       -0.2681
     11 H          -6.3900  -18.1371   22.3407 H       1  UNL1        0.1566
     12 C          -2.0200  -18.1391   18.9556 C.3     1  UNL1        0.0521
     13 C          -3.1491  -18.9848   19.4654 C.ar    1  UNL1        0.0608
     14 C          -3.1422  -20.4662   19.2300 C.ar    1  UNL1        0.0148
     15 C          -4.2713  -21.3119   19.7398 C.ar    1  UNL1        0.0041
     16 C          -5.4072  -20.6763   20.4851 C.ar    1  UNL1        0.0345
     17 C          -5.4141  -19.1949   20.7205 C.ar    1  UNL1        0.1340
     18 N          -4.2850  -18.3492   20.2107 N.ar    1  UNL1       -0.2348
     19 O          -9.6460  -15.5279   24.7282 O.3     1  UNL1       -0.4502
     20 C          -8.2515  -15.4161   25.2693 C.ar    1  UNL1        0.1835
     21 C          -7.1491  -14.8897   24.3987 C.ar    1  UNL1        0.1396
     22 N          -5.7546  -14.7779   24.9399 N.ar    1  UNL1       -0.2192
     23 C          -5.4624  -15.1926   26.3515 C.ar    1  UNL1        0.1991
     24 N          -6.5647  -15.7190   27.2220 N.ar    1  UNL1       -0.2192
     25 C          -7.9592  -15.8308   26.6809 C.ar    1  UNL1        0.1396
@<TRIPOS>BOND
     1    12    13    1
     2    13    14   ar
     3    14    15   ar
     4    15    16   ar
     5    16    17   ar
     6    17     8    1
     7     8     9   am
     8     9    10    2
     9     9     1    1
    10     1     2   ar
    11     2     3   ar
    12     3    19    1
    13    19    20    1
    14    20    21   ar
    15    21    22   ar
    16    22    23   ar
    17    23    24   ar
    18    24    25   ar
    19     3     4   ar
    20     4     5   ar
    21     5     6    1
    22     5     7   ar
    23    17    18   ar
    24    18    13   ar
    25     7     1   ar
    26    25    20   ar
    27     8    11    1
@<TRIPOS>MOLECULE
*****
 25 27 0 0 0
SMALL
GASTEIGER

@<TRIPOS>ATOM
      1 C          -6.4328  -16.3882   23.9947 C.ar    1  UNL1        0.1374
      2 C          -7.8053  -16.5182   23.4037 C.ar    1  UNL1        0.0612
      3 C          -9.0097  -16.1420   24.2147 C.ar    1  UNL1        0.1483
      4 C          -8.8417  -15.6358   25.6166 C.ar    1  UNL1        0.0522
      5 C          -7.4692  -15.5058   26.2077 C.ar    1  UNL1        0.0625
      6 C          -7.3012  -14.9996   27.6096 C.3     1  UNL1        0.0522
      7 N          -6.2648  -15.8820   25.3967 N.ar    1  UNL1       -0.2449
      8 N          -5.1844  -18.0853   22.4743 N.am    1  UNL1       -0.2646
      9 C          -5.2282  -16.7644   23.1837 C.2     1  UNL1        0.2684
     10 O          -4.0676  -15.8197   23.0822 O.2     1  UNL1       -0.2681
     11 H          -5.9462  -18.7054   22.5410 H       1  UNL1        0.1566
     12 C          -2.2551  -17.4875   18.2244 C.3     1  UNL1        0.0521
     13 C          -2.5153  -18.1626   19.5384 C.ar    1  UNL1        0.0608
     14 C          -1.5709  -19.2139   20.0414 C.ar    1  UNL1        0.0148
     15 C          -1.8311  -19.8890   21.3554 C.ar    1  UNL1        0.0041
     16 C          -3.0356  -19.5128   22.1664 C.ar    1  UNL1        0.0345
     17 C          -3.9799  -18.4615   21.6634 C.ar    1  UNL1        0.1340
     18 N          -3.7197  -17.7864   20.3494 N.ar    1  UNL1       -0.2348
     19 O         -10.3823  -16.2719   23.6237 O.3     1  UNL1       -0.4502
     20 C         -10.5715  -16.9808   22.3153 C.ar    1  UNL1        0.1835
     21 C         -10.6670  -16.1930   21.0424 C.ar    1  UNL1        0.1396
     22 N         -10.8561  -16.9018   19.7341 N.ar    1  UNL1       -0.2192
     23 C         -10.9498  -18.3986   19.6987 C.ar    1  UNL1        0.1991
     24 N         -10.8543  -19.1863   20.9716 N.ar    1  UNL1       -0.2192
     25 C         -10.6651  -18.4774   22.2799 C.ar    1  UNL1        0.1396
@<TRIPOS>BOND
     1    12    13    1
     2    13    14   ar
     3    14    15   ar
     4    15    16   ar
     5    16    17   ar
     6    17     8    1
     7     8     9   am
     8     9    10    2
     9     9     1    1
    10     1     2   ar
    11     2     3   ar
    12     3    19    1
    13    19    20    1
    14    20    21   ar
    15    21    22   ar
    16    22    23   ar
    17    23    24   ar
    18    24    25   ar
    19     3     4   ar
    20     4     5   ar
    21     5     6    1
    22     5     7   ar
    23    17    18   ar
    24    18    13   ar
    25     7     1   ar
    26    25    20   ar
    27     8    11    1
@<TRIPOS>MOLECULE
*****
 25 27 0 0 0
SMALL
GASTEIGER

@<TRIPOS>ATOM
      1 C          -6.7213  -16.7877   23.3855 C.ar    1  UNL1        0.1374
      2 C          -5.5083  -17.5312   22.9102 C.ar    1  UNL1        0.0612
      3 C          -4.1973  -17.3579   23.6182 C.ar    1  UNL1        0.1483
      4 C          -4.0993  -16.4411   24.8013 C.ar    1  UNL1        0.0522
      5 C          -5.3122  -15.6976   25.2766 C.ar    1  UNL1        0.0625
      6 C          -5.2142  -14.7808   26.4597 C.3     1  UNL1        0.0522
      7 N          -6.6232  -15.8709   24.5687 N.ar    1  UNL1       -0.2449
      8 N          -9.3184  -16.7207   23.4113 N.am    1  UNL1       -0.2646
      9 C          -8.0324  -16.9610   22.6776 C.2     1  UNL1        0.2684
     10 O          -8.0574  -17.3746   21.2359 O.2     1  UNL1       -0.2681
     11 H          -9.3020  -16.4492   24.3575 H       1  UNL1        0.1566
     12 C         -12.3900  -15.7644   19.3308 C.3     1  UNL1        0.0521
     13 C         -12.1653  -16.4158   20.6631 C.ar    1  UNL1        0.0608
     14 C         -13.2515  -17.2405   21.2875 C.ar    1  UNL1        0.0148
     15 C         -13.0267  -17.8919   22.6198 C.ar    1  UNL1        0.0041
     16 C         -11.7157  -17.7187   23.3278 C.ar    1  UNL1        0.0345
     17 C         -10.6295  -16.8940   22.7034 C.ar    1  UNL1        0.1340
     18 N         -10.8543  -16.2426   21.3710 N.ar    1  UNL1       -0.2348
     19 O          -2.9843  -18.1014   23.1429 O.3     1  UNL1       -0.4502
     20 C          -2.6184  -18.0878   21.6883 C.ar    1  UNL1        0.1835
     21 C          -1.7041  -17.0250   21.1547 C.ar    1  UNL1        0.1396
     22 N          -1.3383  -17.0115   19.7001 N.ar    1  UNL1       -0.2192
     23 C          -1.8867  -18.0607   18.7790 C.ar    1  UNL1        0.1991
     24 N          -2.8010  -19.1234   19.3125 N.ar    1  UNL1       -0.2192
     25 C          -3.1669  -19.1370   20.7672 C.ar    1  UNL1        0.1396
@<TRIPOS>BOND
     1    12    13    1
     2    13    14   ar
     3    14    15   ar
     4    15    16   ar
     5    16    17   ar
     6    17     8    1
     7     8     9   am
     8     9    10    2
     9     9     1    1
    10     1     2   ar
    11     2     3   ar
    12     3    19    1
    13    19    20    1
    14    20    21   ar
    15    21    22   ar
    16    22    23   ar
    17    23    24   ar
    18    24    25   ar
    19     3     4   ar
    20     4     5   ar
    21     5     6    1
    22     5     7   ar
    23    17    18   ar
    24    18    13   ar
    25     7     1   ar
    26    25    20   ar
    27     8    11    1
@<TRIPOS>MOLECULE
*****
 25 27 0 0 0
SMALL
GASTEIGER

@<TRIPOS>ATOM
      1 C          -6.8584  -17.6611   22.9583 C.ar    1  UNL1        0.1374
      2 C          -5.7757  -18.5275   22.3865 C.ar    1  UNL1        0.0612
      3 C          -4.3440  -18.2851   22.7626 C.ar    1  UNL1        0.1483
      4 C          -3.9951  -17.1762   23.7105 C.ar    1  UNL1        0.0522
      5 C          -5.0778  -16.3097   24.2823 C.ar    1  UNL1        0.0625
      6 C          -4.7288  -15.2008   25.2303 C.3     1  UNL1        0.0522
      7 N          -6.5094  -16.5522   23.9062 N.ar    1  UNL1       -0.2449
      8 N          -9.3447  -16.9073   22.9635 N.am    1  UNL1       -0.2646
      9 C          -8.2902  -17.9035   22.5822 C.2     1  UNL1        0.2684
     10 O          -8.6672  -19.1421   21.8248 O.2     1  UNL1       -0.2681
     11 H          -9.0972  -16.0943   23.4605 H       1  UNL1        0.1566
     12 C         -14.1807  -18.2612   24.2979 C.3     1  UNL1        0.0521
     13 C         -13.1944  -17.8267   23.2546 C.ar    1  UNL1        0.0608
     14 C         -13.6399  -17.6346   21.8353 C.ar    1  UNL1        0.0148
     15 C         -12.6536  -17.2000   20.7920 C.ar    1  UNL1        0.0041
     16 C         -11.2220  -16.9576   21.1680 C.ar    1  UNL1        0.0345
     17 C         -10.7765  -17.1497   22.5873 C.ar    1  UNL1        0.1340
     18 N         -11.7627  -17.5843   23.6307 N.ar    1  UNL1       -0.2348
     19 O          -3.2613  -19.1515   22.1908 O.3     1  UNL1       -0.4502
     20 C          -2.4385  -18.6602   21.0368 C.ar    1  UNL1        0.1835
     21 C          -2.8617  -18.9649   19.6304 C.ar    1  UNL1        0.1396
     22 N          -2.0389  -18.4736   18.4764 N.ar    1  UNL1       -0.2192
     23 C          -0.7929  -17.6775   18.7289 C.ar    1  UNL1        0.1991
     24 N          -0.3697  -17.3727   20.1353 N.ar    1  UNL1       -0.2192
     25 C          -1.1925  -17.8641   21.2893 C.ar    1  UNL1        0.1396
@<TRIPOS>BOND
     1    12    13    1
     2    13    14   ar
     3    14    15   ar
     4    15    16   ar
     5    16    17   ar
     6    17     8    1
     7     8     9   am
     8     9    10    2
     9     9     1    1
    10     1     2   ar
    11     2     3   ar
    12     3    19    1
    13    19    20    1
    14    20    21   ar
    15    21    22   ar
    16    22    23   ar
    17    23    24   ar
    18    24    25   ar
    19     3     4   ar
    20     4     5   ar
    21     5     6    1
    22     5     7   ar
    23    17    18   ar
    24    18    13   ar
    25     7     1   ar
    26    25    20   ar
    27     8    11    1
@<TRIPOS>MOLECULE
*****
 25 27 0 0 0
SMALL
GASTEIGER

@<TRIPOS>ATOM
      1 C         -12.9649   -6.3481   18.6432 C.ar    1  UNL1        0.1374
      2 C         -12.7583   -4.8638   18.7064 C.ar    1  UNL1        0.0612
      3 C         -11.3731   -4.3045   18.8424 C.ar    1  UNL1        0.1483
      4 C         -10.1946   -5.2296   18.9152 C.ar    1  UNL1        0.0522
      5 C         -10.4012   -6.7139   18.8520 C.ar    1  UNL1        0.0625
      6 C          -9.2227   -7.6390   18.9248 C.3     1  UNL1        0.0522
      7 N         -11.7864   -7.2732   18.7160 N.ar    1  UNL1       -0.2449
      8 N         -14.7784   -8.0652   19.3591 N.am    1  UNL1       -0.2646
      9 C         -14.3501   -6.9074   18.5072 C.2     1  UNL1        0.2684
     10 O         -15.3069   -6.3088   17.5191 O.2     1  UNL1       -0.2681
     11 H         -14.1504   -8.4581   20.0076 H       1  UNL1        0.1566
     12 C         -19.7971   -8.0321   20.7055 C.3     1  UNL1        0.0521
     13 C         -18.6729   -8.6080   19.8963 C.ar    1  UNL1        0.0608
     14 C         -18.9340   -9.7431   18.9512 C.ar    1  UNL1        0.0148
     15 C         -17.8098  -10.3189   18.1420 C.ar    1  UNL1        0.0041
     16 C         -16.4247   -9.7597   18.2780 C.ar    1  UNL1        0.0345
     17 C         -16.1637   -8.6246   19.2231 C.ar    1  UNL1        0.1340
     18 N         -17.2878   -8.0487   20.0323 N.ar    1  UNL1       -0.2348
     19 O         -11.1664   -2.8201   18.9056 O.3     1  UNL1       -0.4502
     20 C         -12.0757   -1.9032   18.1424 C.ar    1  UNL1        0.1835
     21 C         -11.7191   -1.4842   16.7468 C.ar    1  UNL1        0.1396
     22 N         -12.6283   -0.5673   15.9836 N.ar    1  UNL1       -0.2192
     23 C         -13.8941   -0.0692   16.6160 C.ar    1  UNL1        0.1991
     24 N         -14.2506   -0.4881   18.0115 N.ar    1  UNL1       -0.2192
     25 C         -13.3414   -1.4051   18.7746 C.ar    1  UNL1        0.1396
@<TRIPOS>BOND
     1    12    13    1
     2    13    14   ar
     3    14    15   ar
     4    15    16   ar
     5    16    17   ar
     6    17     8    1
     7     8     9   am
     8     9    10    2
     9     9     1    1
    10     1     2   ar
    11     2     3   ar
    12     3    19    1
    13    19    20    1
    14    20    21   ar
    15    21    22   ar
    16    22    23   ar
    17    23    24   ar
    18    24    25   ar
    19     3     4   ar
    20     4     5   ar
    21     5     6    1
    22     5     7   ar
    23    17    18   ar
    24    18    13   ar
    25     7     1   ar
    26    25    20   ar
    27     8    11    1
@<TRIPOS>MOLECULE
*****
 25 27 0 0 0
SMALL
GASTEIGER

@<TRIPOS>ATOM
      1 C          -6.4889  -16.5527   23.8657 C.ar    1  UNL1        0.1374
      2 C          -7.9179  -16.5653   23.4100 C.ar    1  UNL1        0.0612
      3 C          -8.9986  -16.0551   24.3165 C.ar    1  UNL1        0.1483
      4 C          -8.6503  -15.5323   25.6786 C.ar    1  UNL1        0.0522
      5 C          -7.2213  -15.5196   26.1342 C.ar    1  UNL1        0.0625
      6 C          -6.8729  -14.9968   27.4963 C.3     1  UNL1        0.0522
      7 N          -6.1406  -16.0299   25.2278 N.ar    1  UNL1       -0.2449
      8 N          -4.0349  -16.4623   23.0174 N.am    1  UNL1       -0.2646
      9 C          -5.4081  -17.0629   22.9592 C.2     1  UNL1        0.2684
     10 O          -5.7007  -18.1737   21.9946 O.2     1  UNL1       -0.2681
     11 H          -3.8429  -15.7333   23.6505 H       1  UNL1        0.1566
     12 C          -1.8438  -20.3675   20.3812 C.3     1  UNL1        0.0521
     13 C          -1.8586  -18.9251   20.7928 C.ar    1  UNL1        0.0608
     14 C          -0.7926  -17.9930   20.2980 C.ar    1  UNL1        0.0148
     15 C          -0.8074  -16.5507   20.7096 C.ar    1  UNL1        0.0041
     16 C          -1.8881  -16.0404   21.6161 C.ar    1  UNL1        0.0345
     17 C          -2.9541  -16.9725   22.1109 C.ar    1  UNL1        0.1340
     18 N          -2.9393  -18.4149   21.6993 N.ar    1  UNL1       -0.2348
     19 O         -10.4278  -16.0677   23.8609 O.3     1  UNL1       -0.4502
     20 C         -10.7849  -16.6562   22.5282 C.ar    1  UNL1        0.1835
     21 C         -11.3157  -18.0567   22.4447 C.ar    1  UNL1        0.1396
     22 N         -11.6728  -18.6451   21.1119 N.ar    1  UNL1       -0.2192
     23 C         -11.4991  -17.8331   19.8627 C.ar    1  UNL1        0.1991
     24 N         -10.9683  -16.4326   19.9462 N.ar    1  UNL1       -0.2192
     25 C         -10.6112  -15.8442   21.2790 C.ar    1  UNL1        0.1396
@<TRIPOS>BOND
     1    12    13    1
     2    13    14   ar
     3    14    15   ar
     4    15    16   ar
     5    16    17   ar
     6    17     8    1
     7     8     9   am
     8     9    10    2
     9     9     1    1
    10     1     2   ar
    11     2     3   ar
    12     3    19    1
    13    19    20    1
    14    20    21   ar
    15    21    22   ar
    16    22    23   ar
    17    23    24   ar
    18    24    25   ar
    19     3     4   ar
    20     4     5   ar
    21     5     6    1
    22     5     7   ar
    23    17    18   ar
    24    18    13   ar
    25     7     1   ar
    26    25    20   ar
    27     8    11    1
@<TRIPOS>MOLECULE
*****
 25 27 0 0 0
SMALL
GASTEIGER

@<TRIPOS>ATOM
      1 C          -7.0943  -18.8324   22.0152 C.ar    1  UNL1        0.1374
      2 C          -5.7890  -18.3150   22.5428 C.ar    1  UNL1        0.0612
      3 C          -4.5027  -18.9697   22.1347 C.ar    1  UNL1        0.1483
      4 C          -4.5217  -20.1419   21.1989 C.ar    1  UNL1        0.0522
      5 C          -5.8269  -20.6594   20.6714 C.ar    1  UNL1        0.0625
      6 C          -5.8459  -21.8316   19.7356 C.3     1  UNL1        0.0522
      7 N          -7.1133  -20.0046   21.0795 N.ar    1  UNL1       -0.2449
      8 N          -9.6912  -18.7605   21.9842 N.am    1  UNL1       -0.2646
      9 C          -8.3807  -18.1777   22.4233 C.2     1  UNL1        0.2684
     10 O          -8.3566  -16.9401   23.2706 O.2     1  UNL1       -0.2681
     11 H          -9.7071  -19.5727   21.4281 H       1  UNL1        0.1566
     12 C         -13.8733  -18.5869   25.0632 C.3     1  UNL1        0.0521
     13 C         -13.0686  -18.0190   23.9318 C.ar    1  UNL1        0.0608
     14 C         -13.5504  -16.7964   23.2086 C.ar    1  UNL1        0.0148
     15 C         -12.7457  -16.2285   22.0772 C.ar    1  UNL1        0.0041
     16 C         -11.4594  -16.8831   21.6691 C.ar    1  UNL1        0.0345
     17 C         -10.9777  -18.1057   22.3923 C.ar    1  UNL1        0.1340
     18 N         -11.7823  -18.6737   23.5237 N.ar    1  UNL1       -0.2348
     19 O          -3.1973  -18.4523   22.6623 O.3     1  UNL1       -0.4502
     20 C          -2.1057  -18.0616   21.7105 C.ar    1  UNL1        0.1835
     21 C          -1.7850  -16.6128   21.4910 C.ar    1  UNL1        0.1396
     22 N          -0.6934  -16.2221   20.5393 N.ar    1  UNL1       -0.2192
     23 C           0.0775  -17.2803   19.8071 C.ar    1  UNL1        0.1991
     24 N          -0.2432  -18.7291   20.0267 N.ar    1  UNL1       -0.2192
     25 C          -1.3348  -19.1197   20.9784 C.ar    1  UNL1        0.1396
@<TRIPOS>BOND
     1    12    13    1
     2    13    14   ar
     3    14    15   ar
     4    15    16   ar
     5    16    17   ar
     6    17     8    1
     7     8     9   am
     8     9    10    2
     9     9     1    1
    10     1     2   ar
    11     2     3   ar
    12     3    19    1
    13    19    20    1
    14    20    21   ar
    15    21    22   ar
    16    22    23   ar
    17    23    24   ar
    18    24    25   ar
    19     3     4   ar
    20     4     5   ar
    21     5     6    1
    22     5     7   ar
    23    17    18   ar
    24    18    13   ar
    25     7     1   ar
    26    25    20   ar
    27     8    11    1
@<TRIPOS>MOLECULE
*****
 25 27 0 0 0
SMALL
GASTEIGER

@<TRIPOS>ATOM
      1 C          -7.7882  -19.0615   20.2665 C.ar    1  UNL1        0.1374
      2 C          -9.0697  -18.4440   20.7424 C.ar    1  UNL1        0.0612
      3 C         -10.3738  -18.8515   20.1234 C.ar    1  UNL1        0.1483
      4 C         -10.3965  -19.8765   19.0285 C.ar    1  UNL1        0.0522
      5 C          -9.1150  -20.4940   18.5525 C.ar    1  UNL1        0.0625
      6 C          -9.1377  -21.5190   17.4576 C.3     1  UNL1        0.0522
      7 N          -7.8109  -20.0865   19.1715 N.ar    1  UNL1       -0.2449
      8 N          -5.1931  -19.1719   20.3239 N.am    1  UNL1       -0.2646
      9 C          -6.4840  -18.6540   20.8855 C.2     1  UNL1        0.2684
     10 O          -6.4708  -17.7288   22.0660 O.2     1  UNL1       -0.2681
     11 H          -5.2018  -19.7792   19.5491 H       1  UNL1        0.1566
     12 C          -0.1892  -17.8637   19.8246 C.3     1  UNL1        0.0521
     13 C          -1.3870  -18.1103   20.6932 C.ar    1  UNL1        0.0608
     14 C          -1.2806  -17.9495   22.1808 C.ar    1  UNL1        0.0148
     15 C          -2.4784  -18.1961   23.0494 C.ar    1  UNL1        0.0041
     16 C          -3.7825  -18.6036   22.4304 C.ar    1  UNL1        0.0345
     17 C          -3.8889  -18.7644   20.9429 C.ar    1  UNL1        0.1340
     18 N          -2.6911  -18.5178   20.0743 N.ar    1  UNL1       -0.2348
     19 O         -11.6553  -18.2339   20.5993 O.3     1  UNL1       -0.4502
     20 C         -12.0678  -18.3744   22.0346 C.ar    1  UNL1        0.1835
     21 C         -11.2116  -19.1539   22.9882 C.ar    1  UNL1        0.1396
     22 N         -11.6241  -19.2944   24.4235 N.ar    1  UNL1       -0.2192
     23 C         -12.8929  -18.6553   24.9052 C.ar    1  UNL1        0.1991
     24 N         -13.7490  -17.8759   23.9516 N.ar    1  UNL1       -0.2192
     25 C         -13.3365  -17.7354   22.5163 C.ar    1  UNL1        0.1396
@<TRIPOS>BOND
     1    12    13    1
     2    13    14   ar
     3    14    15   ar
     4    15    16   ar
     5    16    17   ar
     6    17     8    1
     7     8     9   am
     8     9    10    2
     9     9     1    1
    10     1     2   ar
    11     2     3   ar
    12     3    19    1
    13    19    20    1
    14    20    21   ar
    15    21    22   ar
    16    22    23   ar
    17    23    24   ar
    18    24    25   ar
    19     3     4   ar
    20     4     5   ar
    21     5     6    1
    22     5     7   ar
    23    17    18   ar
    24    18    13   ar
    25     7     1   ar
    26    25    20   ar
    27     8    11    1
@<TRIPOS>MOLECULE
*****
 25 27 0 0 0
SMALL
GASTEIGER

@<TRIPOS>ATOM
      1 C         -12.8112   -4.8179   18.6543 C.ar    1  UNL1        0.1374
      2 C         -13.6861   -5.7137   17.8286 C.ar    1  UNL1        0.0612
      3 C         -13.1917   -7.0667   17.4103 C.ar    1  UNL1        0.1483
      4 C         -11.8223   -7.5237   17.8177 C.ar    1  UNL1        0.0522
      5 C         -10.9474   -6.6278   18.6434 C.ar    1  UNL1        0.0625
      6 C          -9.5780   -7.0849   19.0508 C.3     1  UNL1        0.0522
      7 N         -11.4418   -5.2749   19.0617 N.ar    1  UNL1       -0.2449
      8 N         -13.9640   -2.5640   18.0703 N.am    1  UNL1       -0.2646
      9 C         -13.3056   -3.4648   19.0727 C.2     1  UNL1        0.2684
     10 O         -13.1417   -3.0128   20.4936 O.2     1  UNL1       -0.2681
     11 H         -14.0716   -2.8607   17.1378 H       1  UNL1        0.1566
     12 C         -17.3719    0.3771   20.6659 C.3     1  UNL1        0.0521
     13 C         -16.1624    0.2595   19.7865 C.ar    1  UNL1        0.0608
     14 C         -15.4473    1.4949   19.3255 C.ar    1  UNL1        0.0148
     15 C         -14.2379    1.3773   18.4461 C.ar    1  UNL1        0.0041
     16 C         -13.7434    0.0244   18.0277 C.ar    1  UNL1        0.0345
     17 C         -14.4585   -1.2110   18.4887 C.ar    1  UNL1        0.1340
     18 N         -15.6679   -1.0934   19.3681 N.ar    1  UNL1       -0.2348
     19 O         -14.0666   -7.9626   16.5845 O.3     1  UNL1       -0.4502
     20 C         -15.2827   -8.5936   17.1952 C.ar    1  UNL1        0.1835
     21 C         -16.6371   -7.9929   16.9610 C.ar    1  UNL1        0.1396
     22 N         -17.8532   -8.6239   17.5718 N.ar    1  UNL1       -0.2192
     23 C         -17.7148   -9.8557   18.4167 C.ar    1  UNL1        0.1991
     24 N         -16.3604  -10.4563   18.6509 N.ar    1  UNL1       -0.2192
     25 C         -15.1444   -9.8253   18.0401 C.ar    1  UNL1        0.1396
@<TRIPOS>BOND
     1    12    13    1
     2    13    14   ar
     3    14    15   ar
     4    15    16   ar
     5    16    17   ar
     6    17     8    1
     7     8     9   am
     8     9    10    2
     9     9     1    1
    10     1     2   ar
    11     2     3   ar
    12     3    19    1
    13    19    20    1
    14    20    21   ar
    15    21    22   ar
    16    22    23   ar
    17    23    24   ar
    18    24    25   ar
    19     3     4   ar
    20     4     5   ar
    21     5     6    1
    22     5     7   ar
    23    17    18   ar
    24    18    13   ar
    25     7     1   ar
    26    25    20   ar
    27     8    11    1
