@<TRIPOS>MOLECULE
*****
 46 51 0 0 0
SMALL
GASTEIGER

@<TRIPOS>ATOM
      1 C           2.5257    0.0312   29.9433 C.ar    1  UNL1        0.1348
      2 C           1.9283    1.3681   30.2684 C.ar    1  UNL1        0.0346
      3 C           1.5912    2.3272   29.1655 C.ar    1  UNL1        0.0065
      4 C           1.8515    1.9494   27.7374 C.ar    1  UNL1        0.0432
      5 C           2.4489    0.6125   27.4123 C.ar    1  UNL1        0.1256
      6 N           2.7860   -0.3466   28.5152 N.ar    1  UNL1       -0.2222
      7 C           1.5144    2.9085   26.6344 C.ar    1  UNL1        0.0851
      8 C           2.4930    3.7398   25.8592 C.ar    1  UNL1        0.1020
      9 N           1.7229    4.5498   24.8587 N.ar    1  UNL1       -0.2264
     10 C           0.2683    4.2190   25.0156 C.ar    1  UNL1        0.1474
     11 C          -0.9555    4.7103   24.3009 C.ar    1  UNL1        0.0332
     12 C          -2.3083    4.1873   24.6838 C.ar    1  UNL1       -0.0174
     13 C          -3.5321    4.6787   23.9691 C.3     1  UNL1        0.0312
     14 C          -2.4372    3.1729   25.7813 C.ar    1  UNL1        0.0149
     15 C          -1.2134    2.6815   26.4959 C.ar    1  UNL1        0.0811
     16 N           0.1394    3.2046   26.1131 N.ar    1  UNL1       -0.2888
     17 C           3.9806    3.7581   26.0507 C.ar    1  UNL1        0.0574
     18 C           4.5721    4.4034   27.2689 C.ar    1  UNL1        0.1033
     19 N           6.0597    4.4217   27.4605 N.ar    1  UNL1       -0.2291
     20 C           6.9559    3.7947   26.4340 C.ar    1  UNL1        0.1396
     21 C           8.4435    3.8130   26.6255 C.3     1  UNL1        0.0737
     22 N           6.3644    3.1494   25.2159 N.ar    1  UNL1       -0.2291
     23 C           4.8768    3.1312   25.0243 C.ar    1  UNL1        0.1033
     24 C           4.1926   -0.8416   31.7349 C.2     1  UNL1        0.2414
     25 O           5.1853    0.2039   31.3206 O.2     1  UNL1       -0.2733
     26 N           2.8628   -0.9279   31.0462 N.am    1  UNL1       -0.2682
     27 H           2.2113   -1.6141   31.3181 H       1  UNL1        0.1563
     28 C           4.5297   -1.8007   32.8378 C.3     1  UNL1        0.1319
     29 C           4.3119   -1.4051   34.2683 C.3     1  UNL1        0.0270
     30 C           6.5047   -3.2921   32.0475 C.3     1  UNL1        0.0862
     31 N           5.0845   -3.1552   32.5104 N.3     1  UNL1       -0.2902
     32 H           4.9936   -3.7223   33.3533 H       1  UNL1        0.1237
     33 C           2.7093    0.2346   25.9841 C.1     1  UNL1       -0.0404
     34 C           2.9696   -0.1433   24.5560 C.1     1  UNL1       -0.0583
     35 C           3.2300   -0.5211   23.1279 C.ar    1  UNL1        0.0421
     36 C           3.9140   -1.8171   22.8077 C.ar    1  UNL1        0.0097
     37 C           4.1743   -2.1949   21.3797 C.ar    1  UNL1        0.0179
     38 C           3.7506   -1.2767   20.2718 C.ar    1  UNL1        0.0625
     39 C           3.0666    0.0193   20.5919 C.ar    1  UNL1        0.0166
     40 C           2.6430    0.9375   19.4840 C.ar    1  UNL1        0.0063
     41 C           2.9033    0.5597   18.0559 C.ar    1  UNL1        0.0608
     42 C           3.5873   -0.7364   17.7357 C.ar    1  UNL1        0.2610
     43 O           3.8477   -1.1142   16.3076 O.2     1  UNL1       -0.2670
     44 N           4.0110   -1.6546   18.8436 N.ar    1  UNL1       -0.2935
     45 C           4.6950   -2.9505   18.5234 C.3     1  UNL1        0.1335
     46 C           2.8063    0.3971   22.0200 C.ar    1  UNL1        0.0097
@<TRIPOS>BOND
     1    30    31    1
     2    31    28    1
     3    28    29    1
     4    28    24    1
     5    24    25    2
     6    24    26   am
     7    26     1    1
     8     1     2   ar
     9     2     3   ar
    10     3     4   ar
    11     4     7    1
    12     7     8   ar
    13     8    17    1
    14    17    18   ar
    15    18    19   ar
    16    19    20   ar
    17    20    21    1
    18    20    22   ar
    19    22    23   ar
    20     8     9   ar
    21     9    10   ar
    22    10    11   ar
    23    11    12   ar
    24    12    13    1
    25    12    14   ar
    26    14    15   ar
    27    15    16   ar
    28     4     5   ar
    29     5    33    1
    30    33    34    3
    31    34    35    1
    32    35    36   ar
    33    36    37   ar
    34    37    38   ar
    35    38    39   ar
    36    39    40   ar
    37    40    41   ar
    38    41    42   ar
    39    42    43    2
    40    42    44   ar
    41    44    45    1
    42    39    46   ar
    43     5     6   ar
    44     6     1   ar
    45    16     7   ar
    46    46    35   ar
    47    23    17   ar
    48    16    10   ar
    49    44    38   ar
    50    31    32    1
    51    26    27    1
@<TRIPOS>MOLECULE
*****
 46 51 0 0 0
SMALL
GASTEIGER

@<TRIPOS>ATOM
      1 C           2.6858    0.4030   24.6714 C.ar    1  UNL1        0.1348
      2 C           4.0849    0.4255   24.1311 C.ar    1  UNL1        0.0346
      3 C           4.3537    0.9925   22.7686 C.ar    1  UNL1        0.0065
      4 C           3.2234    1.5370   21.9465 C.ar    1  UNL1        0.0432
      5 C           1.8243    1.5145   22.4868 C.ar    1  UNL1        0.1256
      6 N           1.5555    0.9475   23.8493 N.ar    1  UNL1       -0.2222
      7 C           3.4922    2.1040   20.5841 C.ar    1  UNL1        0.0851
      8 C           3.8303    1.3172   19.3526 C.ar    1  UNL1        0.1020
      9 N           4.0172    2.2843   18.2213 N.ar    1  UNL1       -0.2264
     10 C           3.7946    3.6689   18.7536 C.ar    1  UNL1        0.1474
     11 C           3.8453    5.0167   18.0973 C.ar    1  UNL1        0.0332
     12 C           3.5717    6.2531   18.9013 C.ar    1  UNL1       -0.0174
     13 C           3.6225    7.6009   18.2450 C.3     1  UNL1        0.0312
     14 C           3.2472    6.1418   20.3616 C.ar    1  UNL1        0.0149
     15 C           3.1964    4.7939   21.0179 C.ar    1  UNL1        0.0811
     16 N           3.4701    3.5574   20.2139 N.ar    1  UNL1       -0.2888
     17 C           3.9590   -0.1749   19.2673 C.ar    1  UNL1        0.0574
     18 C           2.8466   -1.0530   19.7590 C.ar    1  UNL1        0.1033
     19 N           2.9753   -2.5450   19.6737 N.ar    1  UNL1       -0.2291
     20 C           4.2163   -3.1590   19.0968 C.ar    1  UNL1        0.1396
     21 C           4.3450   -4.6510   19.0116 C.3     1  UNL1        0.0737
     22 N           5.3287   -2.2810   18.6053 N.ar    1  UNL1       -0.2291
     23 C           5.2000   -0.7889   18.6905 C.ar    1  UNL1        0.1033
     24 C           2.0101    0.7432   27.1569 C.2     1  UNL1        0.2414
     25 O           1.8720    2.2176   26.9175 O.2     1  UNL1       -0.2733
     26 N           2.4170   -0.1640   26.0338 N.am    1  UNL1       -0.2682
     27 H           2.5076   -1.1317   26.1909 H       1  UNL1        0.1563
     28 C           1.7413    0.1762   28.5193 C.3     1  UNL1        0.1319
     29 C           2.7583    0.3327   29.6108 C.3     1  UNL1        0.0270
     30 C          -0.8506    0.0649   28.3788 C.3     1  UNL1        0.0862
     31 N           0.4555   -0.5472   28.7903 N.3     1  UNL1       -0.2902
     32 H           0.5199   -1.4490   28.3179 H       1  UNL1        0.1237
     33 C           0.6939    2.0590   21.6647 C.1     1  UNL1       -0.0404
     34 C          -0.4364    2.6035   20.8426 C.1     1  UNL1       -0.0583
     35 C          -1.5668    3.1480   20.0205 C.ar    1  UNL1        0.0421
     36 C          -1.2973    3.7199   18.6602 C.ar    1  UNL1        0.0097
     37 C          -2.4276    4.2643   17.8382 C.ar    1  UNL1        0.0179
     38 C          -3.8275    4.2369   18.3763 C.ar    1  UNL1        0.0625
     39 C          -4.0970    3.6650   19.7366 C.ar    1  UNL1        0.0166
     40 C          -5.4969    3.6376   20.2747 C.ar    1  UNL1        0.0063
     41 C          -6.6272    4.1821   19.4527 C.ar    1  UNL1        0.0608
     42 C          -6.3577    4.7540   18.0924 C.ar    1  UNL1        0.2610
     43 O          -7.4881    5.2984   17.2703 O.2     1  UNL1       -0.2670
     44 N          -4.9578    4.7814   17.5542 N.ar    1  UNL1       -0.2935
     45 C          -4.6883    5.3533   16.1940 C.3     1  UNL1        0.1335
     46 C          -2.9666    3.1206   20.5586 C.ar    1  UNL1        0.0097
@<TRIPOS>BOND
     1    30    31    1
     2    31    28    1
     3    28    29    1
     4    28    24    1
     5    24    25    2
     6    24    26   am
     7    26     1    1
     8     1     2   ar
     9     2     3   ar
    10     3     4   ar
    11     4     7    1
    12     7     8   ar
    13     8    17    1
    14    17    18   ar
    15    18    19   ar
    16    19    20   ar
    17    20    21    1
    18    20    22   ar
    19    22    23   ar
    20     8     9   ar
    21     9    10   ar
    22    10    11   ar
    23    11    12   ar
    24    12    13    1
    25    12    14   ar
    26    14    15   ar
    27    15    16   ar
    28     4     5   ar
    29     5    33    1
    30    33    34    3
    31    34    35    1
    32    35    36   ar
    33    36    37   ar
    34    37    38   ar
    35    38    39   ar
    36    39    40   ar
    37    40    41   ar
    38    41    42   ar
    39    42    43    2
    40    42    44   ar
    41    44    45    1
    42    39    46   ar
    43     5     6   ar
    44     6     1   ar
    45    16     7   ar
    46    46    35   ar
    47    23    17   ar
    48    16    10   ar
    49    44    38   ar
    50    31    32    1
    51    26    27    1
@<TRIPOS>MOLECULE
*****
 46 51 0 0 0
SMALL
GASTEIGER

@<TRIPOS>ATOM
      1 C          -2.6588    4.2404   21.9695 C.ar    1  UNL1        0.1348
      2 C          -2.4726    5.0080   23.2447 C.ar    1  UNL1        0.0346
      3 C          -1.3186    4.6911   24.1491 C.ar    1  UNL1        0.0065
      4 C          -0.3508    3.6068   23.7782 C.ar    1  UNL1        0.0432
      5 C          -0.5370    2.8393   22.5031 C.ar    1  UNL1        0.1256
      6 N          -1.6910    3.1561   21.5987 N.ar    1  UNL1       -0.2222
      7 C           0.8032    3.2900   24.6826 C.ar    1  UNL1        0.0851
      8 C           2.1996    3.8211   24.5492 C.ar    1  UNL1        0.1020
      9 N           3.0229    3.2458   25.6634 N.ar    1  UNL1       -0.2264
     10 C           2.1352    2.3591   26.4854 C.ar    1  UNL1        0.1474
     11 C           2.3988    1.5303   27.7075 C.ar    1  UNL1        0.0332
     12 C           1.2906    0.7288   28.3235 C.ar    1  UNL1       -0.0174
     13 C           1.5542   -0.1000   29.5457 C.3     1  UNL1        0.0312
     14 C          -0.0813    0.7561   27.7175 C.ar    1  UNL1        0.0149
     15 C          -0.3449    1.5849   26.4953 C.ar    1  UNL1        0.0811
     16 N           0.7634    2.3864   25.8793 N.ar    1  UNL1       -0.2888
     17 C           2.6873    4.7624   23.4879 C.ar    1  UNL1        0.0574
     18 C           3.4617    4.2353   22.3163 C.ar    1  UNL1        0.1033
     19 N           3.9494    5.1766   21.2550 N.ar    1  UNL1       -0.2291
     20 C           3.6626    6.6448   21.3653 C.ar    1  UNL1        0.1396
     21 C           4.1503    7.5860   20.3041 C.3     1  UNL1        0.0737
     22 N           2.8882    7.1717   22.5369 N.ar    1  UNL1       -0.2291
     23 C           2.4006    6.2305   23.5982 C.ar    1  UNL1        0.1033
     24 C          -5.0114    3.6560   21.0349 C.2     1  UNL1        0.2414
     25 O          -5.0561    2.4378   21.9091 O.2     1  UNL1       -0.2733
     26 N          -3.8128    4.5572   21.0651 N.am    1  UNL1       -0.2682
     27 H          -3.7835    5.3567   20.4913 H       1  UNL1        0.1563
     28 C          -6.1654    3.9728   20.1305 C.3     1  UNL1        0.1319
     29 C          -6.1165    3.5754   18.6849 C.3     1  UNL1        0.0270
     30 C          -7.2162    5.6632   21.8003 C.3     1  UNL1        0.0862
     31 N          -7.3683    4.6870   20.6716 N.3     1  UNL1       -0.2902
     32 H          -7.7816    5.1997   19.8926 H       1  UNL1        0.1237
     33 C           0.4308    1.7548   22.1322 C.1     1  UNL1       -0.0404
     34 C           1.3985    0.6705   21.7614 C.1     1  UNL1       -0.0583
     35 C           2.3663   -0.4140   21.3905 C.ar    1  UNL1        0.0421
     36 C           2.1716   -1.1916   20.1227 C.ar    1  UNL1        0.0097
     37 C           3.1394   -2.2759   19.7519 C.ar    1  UNL1        0.0179
     38 C           4.3019   -2.5827   20.6489 C.ar    1  UNL1        0.0625
     39 C           4.4965   -1.8051   21.9167 C.ar    1  UNL1        0.0166
     40 C           5.6590   -2.1118   22.8137 C.ar    1  UNL1        0.0063
     41 C           6.6268   -3.1961   22.4429 C.ar    1  UNL1        0.0608
     42 C           6.4321   -3.9738   21.1750 C.ar    1  UNL1        0.2610
     43 O           7.3999   -5.0582   20.8042 O.2     1  UNL1       -0.2670
     44 N           5.2697   -3.6671   20.2780 N.ar    1  UNL1       -0.2935
     45 C           5.0750   -4.4447   19.0102 C.3     1  UNL1        0.1335
     46 C           3.5288   -0.7207   22.2875 C.ar    1  UNL1        0.0097
@<TRIPOS>BOND
     1    30    31    1
     2    31    28    1
     3    28    29    1
     4    28    24    1
     5    24    25    2
     6    24    26   am
     7    26     1    1
     8     1     2   ar
     9     2     3   ar
    10     3     4   ar
    11     4     7    1
    12     7     8   ar
    13     8    17    1
    14    17    18   ar
    15    18    19   ar
    16    19    20   ar
    17    20    21    1
    18    20    22   ar
    19    22    23   ar
    20     8     9   ar
    21     9    10   ar
    22    10    11   ar
    23    11    12   ar
    24    12    13    1
    25    12    14   ar
    26    14    15   ar
    27    15    16   ar
    28     4     5   ar
    29     5    33    1
    30    33    34    3
    31    34    35    1
    32    35    36   ar
    33    36    37   ar
    34    37    38   ar
    35    38    39   ar
    36    39    40   ar
    37    40    41   ar
    38    41    42   ar
    39    42    43    2
    40    42    44   ar
    41    44    45    1
    42    39    46   ar
    43     5     6   ar
    44     6     1   ar
    45    16     7   ar
    46    46    35   ar
    47    23    17   ar
    48    16    10   ar
    49    44    38   ar
    50    31    32    1
    51    26    27    1
@<TRIPOS>MOLECULE
*****
 46 51 0 0 0
SMALL
GASTEIGER

@<TRIPOS>ATOM
      1 C          -3.1264    5.1725   24.0437 C.ar    1  UNL1        0.1348
      2 C          -2.5176    6.1009   25.0524 C.ar    1  UNL1        0.0346
      3 C          -1.0879    5.9221   25.4693 C.ar    1  UNL1        0.0065
      4 C          -0.2669    4.8151   24.8775 C.ar    1  UNL1        0.0432
      5 C          -0.8756    3.8867   23.8688 C.ar    1  UNL1        0.1256
      6 N          -2.3054    4.0654   23.4519 N.ar    1  UNL1       -0.2222
      7 C           1.1629    4.6363   25.2944 C.ar    1  UNL1        0.0851
      8 C           1.6831    3.5888   26.2336 C.ar    1  UNL1        0.1020
      9 N           3.1652    3.7788   26.3650 N.ar    1  UNL1       -0.2264
     10 C           3.5610    4.9438   25.5070 C.ar    1  UNL1        0.1474
     11 C           4.8884    5.5905   25.2427 C.ar    1  UNL1        0.0332
     12 C           4.9783    6.7672   24.3168 C.ar    1  UNL1       -0.0174
     13 C           6.3056    7.4139   24.0525 C.3     1  UNL1        0.0312
     14 C           3.7408    7.2972   23.6551 C.ar    1  UNL1        0.0149
     15 C           2.4134    6.6505   23.9194 C.ar    1  UNL1        0.0811
     16 N           2.3235    5.4738   24.8454 N.ar    1  UNL1       -0.2888
     17 C           0.8649    2.5360   26.9208 C.ar    1  UNL1        0.0574
     18 C           1.5081    1.2538   27.3595 C.ar    1  UNL1        0.1033
     19 N           0.6899    0.2011   28.0467 N.ar    1  UNL1       -0.2291
     20 C          -0.7715    0.4304   28.2951 C.ar    1  UNL1        0.1396
     21 C          -1.5897   -0.6223   28.9823 C.3     1  UNL1        0.0737
     22 N          -1.4146    1.7126   27.8564 N.ar    1  UNL1       -0.2291
     23 C          -0.5964    2.7653   27.1692 C.ar    1  UNL1        0.1033
     24 C          -5.6383    4.5610   24.3009 C.2     1  UNL1        0.2414
     25 O          -5.2908    3.5920   25.3919 O.2     1  UNL1       -0.2733
     26 N          -4.5562    5.3512   23.6268 N.am    1  UNL1       -0.2682
     27 H          -4.7843    5.9872   22.9107 H       1  UNL1        0.1563
     28 C          -7.0681    4.7397   23.8839 C.3     1  UNL1        0.1319
     29 C          -8.0162    5.5003   24.7630 C.3     1  UNL1        0.0270
     30 C          -6.9805    4.6462   21.2891 C.3     1  UNL1        0.0862
     31 N          -7.5498    4.1579   22.5880 N.3     1  UNL1       -0.2902
     32 H          -7.3689    3.1549   22.6303 H       1  UNL1        0.1237
     33 C          -0.0546    2.7795   23.2770 C.1     1  UNL1       -0.0404
     34 C           0.7664    1.6724   22.6852 C.1     1  UNL1       -0.0583
     35 C           1.5874    0.5653   22.0933 C.ar    1  UNL1        0.0421
     36 C           1.4527    0.2270   20.6382 C.ar    1  UNL1        0.0097
     37 C           2.2737   -0.8801   20.0465 C.ar    1  UNL1        0.0179
     38 C           3.2294   -1.6490   20.9098 C.ar    1  UNL1        0.0625
     39 C           3.3642   -1.3107   22.3649 C.ar    1  UNL1        0.0166
     40 C           4.3199   -2.0796   23.2283 C.ar    1  UNL1        0.0063
     41 C           5.1409   -3.1867   22.6365 C.ar    1  UNL1        0.0608
     42 C           5.0062   -3.5250   21.1814 C.ar    1  UNL1        0.2610
     43 O           5.8272   -4.6321   20.5896 O.2     1  UNL1       -0.2670
     44 N           4.0504   -2.7561   20.3180 N.ar    1  UNL1       -0.2935
     45 C           3.9157   -3.0944   18.8629 C.3     1  UNL1        0.1335
     46 C           2.5432   -0.2036   22.9567 C.ar    1  UNL1        0.0097
@<TRIPOS>BOND
     1    30    31    1
     2    31    28    1
     3    28    29    1
     4    28    24    1
     5    24    25    2
     6    24    26   am
     7    26     1    1
     8     1     2   ar
     9     2     3   ar
    10     3     4   ar
    11     4     7    1
    12     7     8   ar
    13     8    17    1
    14    17    18   ar
    15    18    19   ar
    16    19    20   ar
    17    20    21    1
    18    20    22   ar
    19    22    23   ar
    20     8     9   ar
    21     9    10   ar
    22    10    11   ar
    23    11    12   ar
    24    12    13    1
    25    12    14   ar
    26    14    15   ar
    27    15    16   ar
    28     4     5   ar
    29     5    33    1
    30    33    34    3
    31    34    35    1
    32    35    36   ar
    33    36    37   ar
    34    37    38   ar
    35    38    39   ar
    36    39    40   ar
    37    40    41   ar
    38    41    42   ar
    39    42    43    2
    40    42    44   ar
    41    44    45    1
    42    39    46   ar
    43     5     6   ar
    44     6     1   ar
    45    16     7   ar
    46    46    35   ar
    47    23    17   ar
    48    16    10   ar
    49    44    38   ar
    50    31    32    1
    51    26    27    1
@<TRIPOS>MOLECULE
*****
 46 51 0 0 0
SMALL
GASTEIGER

@<TRIPOS>ATOM
      1 C           0.6549    0.8351   19.7740 C.ar    1  UNL1        0.1348
      2 C           1.0589    1.5905   18.5427 C.ar    1  UNL1        0.0346
      3 C           0.3823    2.8849   18.2012 C.ar    1  UNL1        0.0065
      4 C          -0.6982    3.4240   19.0910 C.ar    1  UNL1        0.0432
      5 C          -1.1021    2.6686   20.3223 C.ar    1  UNL1        0.1256
      6 N          -0.4256    1.3742   20.6638 N.ar    1  UNL1       -0.2222
      7 C          -1.3747    4.7185   18.7495 C.ar    1  UNL1        0.0851
      8 C          -0.8562    6.0922   19.0563 C.ar    1  UNL1        0.1020
      9 N          -1.8496    7.0892   18.5377 N.ar    1  UNL1       -0.2264
     10 C          -2.9822    6.3318   17.9104 C.ar    1  UNL1        0.1474
     11 C          -4.2428    6.7869   17.2368 C.ar    1  UNL1        0.0332
     12 C          -5.2099    5.7769   16.6942 C.ar    1  UNL1       -0.0174
     13 C          -6.4705    6.2320   16.0207 C.3     1  UNL1        0.0312
     14 C          -4.9165    4.3117   16.8251 C.ar    1  UNL1        0.0149
     15 C          -3.6559    3.8565   17.4986 C.ar    1  UNL1        0.0811
     16 N          -2.6887    4.8666   18.0413 N.ar    1  UNL1       -0.2888
     17 C           0.4300    6.4125   19.7585 C.ar    1  UNL1        0.0574
     18 C           1.6755    6.6685   18.9625 C.ar    1  UNL1        0.1033
     19 N           2.9617    6.9889   19.6647 N.ar    1  UNL1       -0.2291
     20 C           3.0025    7.0533   21.1627 C.ar    1  UNL1        0.1396
     21 C           4.2888    7.3737   21.8649 C.3     1  UNL1        0.0737
     22 N           1.7572    6.7974   21.9586 N.ar    1  UNL1       -0.2291
     23 C           0.4709    6.4770   21.2564 C.ar    1  UNL1        0.1033
     24 C           2.7320   -0.4548   20.6525 C.2     1  UNL1        0.2414
     25 O           3.4561    0.8443   20.8481 O.2     1  UNL1       -0.2733
     26 N           1.3315   -0.4594   20.1155 N.am    1  UNL1       -0.2682
     27 H           0.8563   -1.3120   19.9871 H       1  UNL1        0.1563
     28 C           3.4086   -1.7493   20.9940 C.3     1  UNL1        0.1319
     29 C           3.8902   -1.9976   22.3928 C.3     1  UNL1        0.0270
     30 C           4.3161   -2.4503   18.6627 C.3     1  UNL1        0.0862
     31 N           3.6036   -2.7953   19.9368 N.3     1  UNL1       -0.2902
     32 H           4.1259   -3.5572   20.3693 H       1  UNL1        0.1237
     33 C          -2.1827    3.2077   21.2122 C.1     1  UNL1       -0.0404
     34 C          -3.2632    3.7468   22.1021 C.1     1  UNL1       -0.0583
     35 C          -4.3438    4.2859   22.9920 C.ar    1  UNL1        0.0421
     36 C          -5.7480    4.4058   22.4785 C.ar    1  UNL1        0.0097
     37 C          -6.8285    4.9448   23.3684 C.ar    1  UNL1        0.0179
     38 C          -6.5047    5.3640   24.7718 C.ar    1  UNL1        0.0625
     39 C          -5.1005    5.2441   25.2852 C.ar    1  UNL1        0.0166
     40 C          -4.7767    5.6633   26.6886 C.ar    1  UNL1        0.0063
     41 C          -5.8572    6.2024   27.5785 C.ar    1  UNL1        0.0608
     42 C          -7.2615    6.3223   27.0650 C.ar    1  UNL1        0.2610
     43 O          -8.3420    6.8613   27.9549 O.2     1  UNL1       -0.2670
     44 N          -7.5853    5.9031   25.6617 N.ar    1  UNL1       -0.2935
     45 C          -8.9895    6.0230   25.1482 C.3     1  UNL1        0.1335
     46 C          -4.0200    4.7051   24.3953 C.ar    1  UNL1        0.0097
@<TRIPOS>BOND
     1    30    31    1
     2    31    28    1
     3    28    29    1
     4    28    24    1
     5    24    25    2
     6    24    26   am
     7    26     1    1
     8     1     2   ar
     9     2     3   ar
    10     3     4   ar
    11     4     7    1
    12     7     8   ar
    13     8    17    1
    14    17    18   ar
    15    18    19   ar
    16    19    20   ar
    17    20    21    1
    18    20    22   ar
    19    22    23   ar
    20     8     9   ar
    21     9    10   ar
    22    10    11   ar
    23    11    12   ar
    24    12    13    1
    25    12    14   ar
    26    14    15   ar
    27    15    16   ar
    28     4     5   ar
    29     5    33    1
    30    33    34    3
    31    34    35    1
    32    35    36   ar
    33    36    37   ar
    34    37    38   ar
    35    38    39   ar
    36    39    40   ar
    37    40    41   ar
    38    41    42   ar
    39    42    43    2
    40    42    44   ar
    41    44    45    1
    42    39    46   ar
    43     5     6   ar
    44     6     1   ar
    45    16     7   ar
    46    46    35   ar
    47    23    17   ar
    48    16    10   ar
    49    44    38   ar
    50    31    32    1
    51    26    27    1
@<TRIPOS>MOLECULE
*****
 46 51 0 0 0
SMALL
GASTEIGER

@<TRIPOS>ATOM
      1 C          -2.8578    4.8185   24.9138 C.ar    1  UNL1        0.1348
      2 C          -2.3555    5.3459   26.2251 C.ar    1  UNL1        0.0346
      3 C          -1.0470    4.8623   26.7764 C.ar    1  UNL1        0.0065
      4 C          -0.2408    3.8512   26.0164 C.ar    1  UNL1        0.0432
      5 C          -0.7430    3.3238   24.7051 C.ar    1  UNL1        0.1256
      6 N          -2.0515    3.8074   24.1538 N.ar    1  UNL1       -0.2222
      7 C           1.0677    3.3676   26.5677 C.ar    1  UNL1        0.0851
      8 C           2.4301    3.7900   26.1035 C.ar    1  UNL1        0.1020
      9 N           3.4480    3.0601   26.9289 N.ar    1  UNL1       -0.2264
     10 C           2.7146    2.1865   27.9032 C.ar    1  UNL1        0.1474
     11 C           3.1963    1.2426   28.9647 C.ar    1  UNL1        0.0332
     12 C           2.2069    0.4888   29.8031 C.ar    1  UNL1       -0.0174
     13 C           2.6886   -0.4552   30.8646 C.3     1  UNL1        0.0312
     14 C           0.7358    0.6788   29.5798 C.ar    1  UNL1        0.0149
     15 C           0.2541    1.6227   28.5183 C.ar    1  UNL1        0.0811
     16 N           1.2436    2.3766   27.6799 N.ar    1  UNL1       -0.2888
     17 C           2.7233    4.7702   25.0066 C.ar    1  UNL1        0.0574
     18 C           2.3345    6.2104   25.1641 C.ar    1  UNL1        0.1033
     19 N           2.6276    7.1907   24.0672 N.ar    1  UNL1       -0.2291
     20 C           3.3095    6.7308   22.8128 C.ar    1  UNL1        0.1396
     21 C           3.6026    7.7110   21.7159 C.3     1  UNL1        0.0737
     22 N           3.6982    5.2906   22.6553 N.ar    1  UNL1       -0.2291
     23 C           3.4051    4.3104   23.7523 C.ar    1  UNL1        0.1033
     24 C          -5.4148    4.5004   24.5819 C.2     1  UNL1        0.2414
     25 O          -5.3549    3.2149   25.3526 O.2     1  UNL1       -0.2733
     26 N          -4.1663    5.3022   24.3625 N.am    1  UNL1       -0.2682
     27 H          -4.2056    6.1458   23.8566 H       1  UNL1        0.1563
     28 C          -6.7233    4.9840   24.0306 C.3     1  UNL1        0.1319
     29 C          -7.2145    4.4739   22.7082 C.3     1  UNL1        0.0270
     30 C          -7.6633    7.3898   24.3109 C.3     1  UNL1        0.0862
     31 N          -7.5407    5.9777   24.8016 N.3     1  UNL1       -0.2902
     32 H          -8.4872    5.6016   24.8558 H       1  UNL1        0.1237
     33 C           0.0633    2.3127   23.9450 C.1     1  UNL1       -0.0404
     34 C           0.8694    1.3016   23.1849 C.1     1  UNL1       -0.0583
     35 C           1.6757    0.2905   22.4249 C.ar    1  UNL1        0.0421
     36 C           1.4584    0.1121   20.9515 C.ar    1  UNL1        0.0097
     37 C           2.2646   -0.8990   20.1915 C.ar    1  UNL1        0.0179
     38 C           3.2882   -1.7317   20.9049 C.ar    1  UNL1        0.0625
     39 C           3.5056   -1.5533   22.3782 C.ar    1  UNL1        0.0166
     40 C           4.5291   -2.3860   23.0916 C.ar    1  UNL1        0.0063
     41 C           5.3354   -3.3970   22.3316 C.ar    1  UNL1        0.0608
     42 C           5.1181   -3.5755   20.8582 C.ar    1  UNL1        0.2610
     43 O           5.9243   -4.5865   20.0982 O.2     1  UNL1       -0.2670
     44 N           4.0945   -2.7428   20.1448 N.ar    1  UNL1       -0.2935
     45 C           3.8772   -2.9212   18.6714 C.3     1  UNL1        0.1335
     46 C           2.6993   -0.5422   23.1382 C.ar    1  UNL1        0.0097
@<TRIPOS>BOND
     1    30    31    1
     2    31    28    1
     3    28    29    1
     4    28    24    1
     5    24    25    2
     6    24    26   am
     7    26     1    1
     8     1     2   ar
     9     2     3   ar
    10     3     4   ar
    11     4     7    1
    12     7     8   ar
    13     8    17    1
    14    17    18   ar
    15    18    19   ar
    16    19    20   ar
    17    20    21    1
    18    20    22   ar
    19    22    23   ar
    20     8     9   ar
    21     9    10   ar
    22    10    11   ar
    23    11    12   ar
    24    12    13    1
    25    12    14   ar
    26    14    15   ar
    27    15    16   ar
    28     4     5   ar
    29     5    33    1
    30    33    34    3
    31    34    35    1
    32    35    36   ar
    33    36    37   ar
    34    37    38   ar
    35    38    39   ar
    36    39    40   ar
    37    40    41   ar
    38    41    42   ar
    39    42    43    2
    40    42    44   ar
    41    44    45    1
    42    39    46   ar
    43     5     6   ar
    44     6     1   ar
    45    16     7   ar
    46    46    35   ar
    47    23    17   ar
    48    16    10   ar
    49    44    38   ar
    50    31    32    1
    51    26    27    1
@<TRIPOS>MOLECULE
*****
 46 51 0 0 0
SMALL
GASTEIGER

@<TRIPOS>ATOM
      1 C           5.6837   -2.4492   25.9957 C.ar    1  UNL1        0.1348
      2 C           6.8258   -2.2236   25.0499 C.ar    1  UNL1        0.0346
      3 C           6.7150   -1.1835   23.9748 C.ar    1  UNL1        0.0065
      4 C           5.4622   -0.3689   23.8456 C.ar    1  UNL1        0.0432
      5 C           4.3201   -0.5945   24.7915 C.ar    1  UNL1        0.1256
      6 N           4.4309   -1.6346   25.8666 N.ar    1  UNL1       -0.2222
      7 C           5.3514    0.6713   22.7705 C.ar    1  UNL1        0.0851
      8 C           5.1337    0.4097   21.3096 C.ar    1  UNL1        0.1020
      9 N           5.0866    1.7324   20.6038 N.ar    1  UNL1       -0.2264
     10 C           5.2752    2.8115   21.6284 C.ar    1  UNL1        0.1474
     11 C           5.3190    4.3066   21.5151 C.ar    1  UNL1        0.0332
     12 C           5.5264    5.1458   22.7409 C.ar    1  UNL1       -0.0174
     13 C           5.5702    6.6409   22.6277 C.3     1  UNL1        0.0312
     14 C           5.6901    4.4901   24.0801 C.ar    1  UNL1        0.0149
     15 C           5.6462    2.9950   24.1934 C.ar    1  UNL1        0.0811
     16 N           5.4388    2.1557   22.9675 N.ar    1  UNL1       -0.2888
     17 C           4.9887   -0.9381   20.6673 C.ar    1  UNL1        0.0574
     18 C           6.2089   -1.7148   20.2699 C.ar    1  UNL1        0.1033
     19 N           6.0638   -3.0625   19.6276 N.ar    1  UNL1       -0.2291
     20 C           4.6986   -3.6336   19.3827 C.ar    1  UNL1        0.1396
     21 C           4.5535   -4.9813   18.7403 C.3     1  UNL1        0.0737
     22 N           3.4784   -2.8569   19.7801 N.ar    1  UNL1       -0.2291
     23 C           3.6235   -1.5092   20.4224 C.ar    1  UNL1        0.1033
     24 C           6.4682   -3.1572   28.3692 C.2     1  UNL1        0.2414
     25 O           7.0311   -1.7849   28.5926 O.2     1  UNL1       -0.2733
     26 N           5.7945   -3.4894   27.0708 N.am    1  UNL1       -0.2682
     27 H           5.4251   -4.3901   26.9243 H       1  UNL1        0.1563
     28 C           6.5790   -4.1974   29.4443 C.3     1  UNL1        0.1319
     29 C           6.7002   -3.7816   30.8805 C.3     1  UNL1        0.0270
     30 C           7.7676   -6.2721   28.4282 C.3     1  UNL1        0.0862
     31 N           6.5685   -5.6532   29.0832 N.3     1  UNL1       -0.2902
     32 H           6.4057   -6.1698   29.9476 H       1  UNL1        0.1237
     33 C           3.0671    0.2202   24.6623 C.1     1  UNL1       -0.0404
     34 C           1.8143    1.0347   24.5331 C.1     1  UNL1       -0.0583
     35 C           0.5613    1.8493   24.4039 C.ar    1  UNL1        0.0421
     36 C           0.1803    2.4338   23.0761 C.ar    1  UNL1        0.0097
     37 C          -1.0726    3.2483   22.9470 C.ar    1  UNL1        0.0179
     38 C          -1.9445    3.4785   24.1457 C.ar    1  UNL1        0.0625
     39 C          -1.5634    2.8940   25.4736 C.ar    1  UNL1        0.0166
     40 C          -2.4353    3.1241   26.6723 C.ar    1  UNL1        0.0063
     41 C          -3.6881    3.9387   26.5432 C.ar    1  UNL1        0.0608
     42 C          -4.0693    4.5232   25.2153 C.ar    1  UNL1        0.2610
     43 O          -5.3221    5.3377   25.0862 O.2     1  UNL1       -0.2670
     44 N          -3.1974    4.2931   24.0166 N.ar    1  UNL1       -0.2935
     45 C          -3.5784    4.8775   22.6887 C.3     1  UNL1        0.1335
     46 C          -0.3105    2.0794   25.6027 C.ar    1  UNL1        0.0097
@<TRIPOS>BOND
     1    30    31    1
     2    31    28    1
     3    28    29    1
     4    28    24    1
     5    24    25    2
     6    24    26   am
     7    26     1    1
     8     1     2   ar
     9     2     3   ar
    10     3     4   ar
    11     4     7    1
    12     7     8   ar
    13     8    17    1
    14    17    18   ar
    15    18    19   ar
    16    19    20   ar
    17    20    21    1
    18    20    22   ar
    19    22    23   ar
    20     8     9   ar
    21     9    10   ar
    22    10    11   ar
    23    11    12   ar
    24    12    13    1
    25    12    14   ar
    26    14    15   ar
    27    15    16   ar
    28     4     5   ar
    29     5    33    1
    30    33    34    3
    31    34    35    1
    32    35    36   ar
    33    36    37   ar
    34    37    38   ar
    35    38    39   ar
    36    39    40   ar
    37    40    41   ar
    38    41    42   ar
    39    42    43    2
    40    42    44   ar
    41    44    45    1
    42    39    46   ar
    43     5     6   ar
    44     6     1   ar
    45    16     7   ar
    46    46    35   ar
    47    23    17   ar
    48    16    10   ar
    49    44    38   ar
    50    31    32    1
    51    26    27    1
@<TRIPOS>MOLECULE
*****
 46 51 0 0 0
SMALL
GASTEIGER

@<TRIPOS>ATOM
      1 C          -2.0644    6.0766   24.0299 C.ar    1  UNL1        0.1348
      2 C          -2.3145    6.9481   22.8350 C.ar    1  UNL1        0.0346
      3 C          -1.7209    6.5867   21.5057 C.ar    1  UNL1        0.0065
      4 C          -0.8773    5.3538   21.3713 C.ar    1  UNL1        0.0432
      5 C          -0.6272    4.4823   22.5662 C.ar    1  UNL1        0.1256
      6 N          -1.2208    4.8437   23.8955 N.ar    1  UNL1       -0.2222
      7 C          -0.2838    4.9923   20.0420 C.ar    1  UNL1        0.0851
      8 C          -1.0297    4.4371   18.8650 C.ar    1  UNL1        0.1020
      9 N          -0.0471    4.2243   17.7518 N.ar    1  UNL1       -0.2264
     10 C           1.3062    4.6480   18.2408 C.ar    1  UNL1        0.1474
     11 C           2.6528    4.6629   17.5802 C.ar    1  UNL1        0.0332
     12 C           3.8531    5.1524   18.3350 C.ar    1  UNL1       -0.0174
     13 C           5.1997    5.1673   17.6743 C.3     1  UNL1        0.0312
     14 C           3.7068    5.6271   19.7504 C.ar    1  UNL1        0.0149
     15 C           2.3602    5.6122   20.4110 C.ar    1  UNL1        0.0811
     16 N           1.1599    5.1226   19.6562 N.ar    1  UNL1       -0.2888
     17 C          -2.5002    4.1459   18.8106 C.ar    1  UNL1        0.0574
     18 C          -3.1880    3.5349   19.9954 C.ar    1  UNL1        0.1033
     19 N          -4.6585    3.2436   19.9411 N.ar    1  UNL1       -0.2291
     20 C          -5.4411    3.5633   18.7020 C.ar    1  UNL1        0.1396
     21 C          -6.9116    3.2721   18.6477 C.3     1  UNL1        0.0737
     22 N          -4.7533    4.1743   17.5173 N.ar    1  UNL1       -0.2291
     23 C          -3.2828    4.4655   17.5716 C.ar    1  UNL1        0.1033
     24 C          -3.8881    5.7327   25.8481 C.2     1  UNL1        0.2414
     25 O          -4.5249    4.6658   25.0075 O.2     1  UNL1       -0.2733
     26 N          -2.6579    6.4381   25.3592 N.am    1  UNL1       -0.2682
     27 H          -2.2400    7.1383   25.9109 H       1  UNL1        0.1563
     28 C          -4.4817    6.0941   27.1774 C.3     1  UNL1        0.1319
     29 C          -3.7707    7.0598   28.0786 C.3     1  UNL1        0.0270
     30 C          -6.9802    6.3684   27.8345 C.3     1  UNL1        0.0862
     31 N          -5.7861    5.4899   27.6055 N.3     1  UNL1       -0.2902
     32 H          -6.0493    4.8170   26.8856 H       1  UNL1        0.1237
     33 C           0.2164    3.2492   22.4318 C.1     1  UNL1       -0.0404
     34 C           1.0601    2.0163   22.2975 C.1     1  UNL1       -0.0583
     35 C           1.9037    0.7833   22.1632 C.ar    1  UNL1        0.0421
     36 C           2.5341    0.1698   23.3781 C.ar    1  UNL1        0.0097
     37 C           3.3777   -1.0632   23.2437 C.ar    1  UNL1        0.0179
     38 C           3.5909   -1.6826   21.8944 C.ar    1  UNL1        0.0625
     39 C           2.9606   -1.0691   20.6794 C.ar    1  UNL1        0.0166
     40 C           3.1738   -1.6886   19.3300 C.ar    1  UNL1        0.0063
     41 C           4.0174   -2.9215   19.1956 C.ar    1  UNL1        0.0608
     42 C           4.6478   -3.5351   20.4106 C.ar    1  UNL1        0.2610
     43 O           5.4914   -4.7681   20.2762 O.2     1  UNL1       -0.2670
     44 N           4.4346   -2.9157   21.7600 N.ar    1  UNL1       -0.2935
     45 C           5.0650   -3.5291   22.9750 C.3     1  UNL1        0.1335
     46 C           2.1170    0.1638   20.8138 C.ar    1  UNL1        0.0097
@<TRIPOS>BOND
     1    30    31    1
     2    31    28    1
     3    28    29    1
     4    28    24    1
     5    24    25    2
     6    24    26   am
     7    26     1    1
     8     1     2   ar
     9     2     3   ar
    10     3     4   ar
    11     4     7    1
    12     7     8   ar
    13     8    17    1
    14    17    18   ar
    15    18    19   ar
    16    19    20   ar
    17    20    21    1
    18    20    22   ar
    19    22    23   ar
    20     8     9   ar
    21     9    10   ar
    22    10    11   ar
    23    11    12   ar
    24    12    13    1
    25    12    14   ar
    26    14    15   ar
    27    15    16   ar
    28     4     5   ar
    29     5    33    1
    30    33    34    3
    31    34    35    1
    32    35    36   ar
    33    36    37   ar
    34    37    38   ar
    35    38    39   ar
    36    39    40   ar
    37    40    41   ar
    38    41    42   ar
    39    42    43    2
    40    42    44   ar
    41    44    45    1
    42    39    46   ar
    43     5     6   ar
    44     6     1   ar
    45    16     7   ar
    46    46    35   ar
    47    23    17   ar
    48    16    10   ar
    49    44    38   ar
    50    31    32    1
    51    26    27    1
@<TRIPOS>MOLECULE
*****
 46 51 0 0 0
SMALL
GASTEIGER

@<TRIPOS>ATOM
      1 C           6.7408   -1.8420   27.8042 C.ar    1  UNL1        0.1348
      2 C           7.6612   -2.3196   26.7203 C.ar    1  UNL1        0.0346
      3 C           7.3298   -2.0505   25.2824 C.ar    1  UNL1        0.0065
      4 C           6.0779   -1.3039   24.9282 C.ar    1  UNL1        0.0432
      5 C           5.1576   -0.8263   26.0121 C.ar    1  UNL1        0.1256
      6 N           5.4890   -1.0954   27.4501 N.ar    1  UNL1       -0.2222
      7 C           5.7465   -1.0349   23.4903 C.ar    1  UNL1        0.0851
      8 C           5.9320    0.2687   22.7717 C.ar    1  UNL1        0.1020
      9 N           5.4715    0.0871   21.3557 N.ar    1  UNL1       -0.2264
     10 C           5.0014   -1.3287   21.1992 C.ar    1  UNL1        0.1474
     11 C           4.4406   -2.0761   20.0258 C.ar    1  UNL1        0.0332
     12 C           4.0497   -3.5169   20.1717 C.ar    1  UNL1       -0.0174
     13 C           3.4888   -4.2643   18.9983 C.3     1  UNL1        0.0312
     14 C           4.2196   -4.2104   21.4909 C.ar    1  UNL1        0.0149
     15 C           4.7804   -3.4630   22.6642 C.ar    1  UNL1        0.0811
     16 N           5.1714   -2.0221   22.5184 N.ar    1  UNL1       -0.2888
     17 C           6.4815    1.5321   23.3649 C.ar    1  UNL1        0.0574
     18 C           7.9482    1.6470   23.6580 C.ar    1  UNL1        0.1033
     19 N           8.4977    2.9104   24.2513 N.ar    1  UNL1       -0.2291
     20 C           7.5806    4.0588   24.5514 C.ar    1  UNL1        0.1396
     21 C           8.1301    5.3222   25.1446 C.3     1  UNL1        0.0737
     22 N           6.1140    3.9439   24.2583 N.ar    1  UNL1       -0.2291
     23 C           5.5645    2.6805   23.6650 C.ar    1  UNL1        0.1033
     24 C           6.8512   -3.4776   29.8198 C.2     1  UNL1        0.2414
     25 O           6.2987   -4.5752   28.9594 O.2     1  UNL1       -0.2733
     26 N           7.0723   -2.1111   29.2422 N.am    1  UNL1       -0.2682
     27 H           7.4349   -1.3908   29.8068 H       1  UNL1        0.1563
     28 C           7.1826   -3.7467   31.2577 C.3     1  UNL1        0.1319
     29 C           8.6141   -3.7708   31.7057 C.3     1  UNL1        0.0270
     30 C           5.3177   -2.8354   32.8202 C.3     1  UNL1        0.0862
     31 N           6.0828   -3.9916   32.2478 N.3     1  UNL1       -0.2902
     32 H           5.4021   -4.5964   31.7880 H       1  UNL1        0.1237
     33 C           3.9057   -0.0797   25.6580 C.1     1  UNL1       -0.0404
     34 C           2.6539    0.6670   25.3040 C.1     1  UNL1       -0.0583
     35 C           1.4020    1.4137   24.9499 C.ar    1  UNL1        0.0421
     36 C           1.1216    1.7726   23.5207 C.ar    1  UNL1        0.0097
     37 C          -0.1302    2.5193   23.1667 C.ar    1  UNL1        0.0179
     38 C          -1.1017    2.9069   24.2418 C.ar    1  UNL1        0.0625
     39 C          -0.8214    2.5480   25.6710 C.ar    1  UNL1        0.0166
     40 C          -1.7929    2.9356   26.7461 C.ar    1  UNL1        0.0063
     41 C          -3.0447    3.6823   26.3921 C.ar    1  UNL1        0.0608
     42 C          -3.3251    4.0413   24.9629 C.ar    1  UNL1        0.2610
     43 O          -4.5770    4.7879   24.6088 O.2     1  UNL1       -0.2670
     44 N          -2.3536    3.6536   23.8877 N.ar    1  UNL1       -0.2935
     45 C          -2.6340    4.0126   22.4586 C.3     1  UNL1        0.1335
     46 C           0.4304    1.8013   26.0250 C.ar    1  UNL1        0.0097
@<TRIPOS>BOND
     1    30    31    1
     2    31    28    1
     3    28    29    1
     4    28    24    1
     5    24    25    2
     6    24    26   am
     7    26     1    1
     8     1     2   ar
     9     2     3   ar
    10     3     4   ar
    11     4     7    1
    12     7     8   ar
    13     8    17    1
    14    17    18   ar
    15    18    19   ar
    16    19    20   ar
    17    20    21    1
    18    20    22   ar
    19    22    23   ar
    20     8     9   ar
    21     9    10   ar
    22    10    11   ar
    23    11    12   ar
    24    12    13    1
    25    12    14   ar
    26    14    15   ar
    27    15    16   ar
    28     4     5   ar
    29     5    33    1
    30    33    34    3
    31    34    35    1
    32    35    36   ar
    33    36    37   ar
    34    37    38   ar
    35    38    39   ar
    36    39    40   ar
    37    40    41   ar
    38    41    42   ar
    39    42    43    2
    40    42    44   ar
    41    44    45    1
    42    39    46   ar
    43     5     6   ar
    44     6     1   ar
    45    16     7   ar
    46    46    35   ar
    47    23    17   ar
    48    16    10   ar
    49    44    38   ar
    50    31    32    1
    51    26    27    1
