@<TRIPOS>MOLECULE
*****
 27 29 0 0 0
SMALL
GASTEIGER

@<TRIPOS>ATOM
      1 C          -6.2731  -18.6190   22.0753 C.ar    1  UNL1        0.1227
      2 C          -6.9511  -19.9568   22.0511 C.ar    1  UNL1        0.1421
      3 O          -6.3283  -21.0998   21.3054 O.3     1  UNL1       -0.5052
      4 C          -8.2516  -20.1517   22.7724 C.ar    1  UNL1        0.0517
      5 C          -8.8744  -19.0087   23.5180 C.ar    1  UNL1        0.0655
      6 N          -8.1964  -17.6709   23.5422 N.ar    1  UNL1       -0.2144
      7 N          -8.5681  -16.3689   24.1878 N.ar    1  UNL1       -0.1413
      8 C          -7.4971  -15.3694   23.8655 C.ar    1  UNL1        0.2213
      9 N          -6.4636  -16.0536   23.0206 N.ar    1  UNL1       -0.2032
     10 C          -6.8958  -17.4760   22.8208 C.ar    1  UNL1        0.1725
     11 H          -5.5158  -20.9780   20.8548 H       1  UNL1        0.2922
     12 N          -3.7754  -17.9041   22.0932 N.am    1  UNL1       -0.2958
     13 C          -4.9725  -18.4241   21.3539 C.2     1  UNL1        0.2521
     14 O          -4.8689  -18.7493   19.8932 O.2     1  UNL1       -0.2699
     15 H          -3.8433  -17.6907   23.0519 H       1  UNL1        0.1501
     16 C          -2.4748  -17.7092   21.3717 C.3     1  UNL1        0.1318
     17 O          -1.9517  -20.2497   21.5229 O.co2   1  UNL1       -0.5474
     18 C          -1.6772  -18.8999   20.9288 C.2     1  UNL1        0.0702
     19 O          -0.6051  -18.7409   19.8917 O.co2   1  UNL1       -0.5474
     20 C         -10.1751  -19.2037   24.2394 C.3     1  UNL1        0.0507
     21 C         -11.4692  -19.1337   23.4843 C.3     1  UNL1        0.0326
     22 C         -11.5780  -18.2729   22.2607 C.ar    1  UNL1       -0.0218
     23 C         -11.1126  -18.7940   20.9334 C.ar    1  UNL1       -0.0043
     24 C         -11.2214  -17.9333   19.7097 C.ar    1  UNL1       -0.0003
     25 C         -11.7956  -16.5513   19.8134 C.ar    1  UNL1       -0.0000
     26 C         -12.2610  -16.0302   21.1408 C.ar    1  UNL1       -0.0003
     27 C         -12.1522  -16.8911   22.3644 C.ar    1  UNL1       -0.0043
@<TRIPOS>UNITY_ATOM_ATTR
17 1
charge -1
@<TRIPOS>BOND
     1    17    18   ar
     2    18    19   ar
     3    18    16    1
     4    16    12    1
     5    12    13   am
     6    13    14    2
     7    13     1    1
     8     1     2   ar
     9     2     3    1
    10     2     4   ar
    11     4     5   ar
    12     5    20    1
    13    20    21    1
    14    21    22    1
    15    22    23   ar
    16    23    24   ar
    17    24    25   ar
    18    25    26   ar
    19    26    27   ar
    20     5     6   ar
    21     6     7   ar
    22     7     8   ar
    23     8     9   ar
    24     9    10   ar
    25    10     1   ar
    26    27    22   ar
    27    10     6   ar
    28    12    15    1
    29     3    11    1
@<TRIPOS>MOLECULE
*****
 27 29 0 0 0
SMALL
GASTEIGER

@<TRIPOS>ATOM
      1 C          -4.7098  -18.9816   21.6981 C.ar    1  UNL1        0.1227
      2 C          -5.4082  -20.2139   21.2044 C.ar    1  UNL1        0.1421
      3 O          -4.6606  -21.2206   20.3812 O.3     1  UNL1       -0.5052
      4 C          -6.8540  -20.4394   21.5339 C.ar    1  UNL1        0.0517
      5 C          -7.6016  -19.4327   22.3572 C.ar    1  UNL1        0.0655
      6 N          -6.9032  -18.2004   22.8509 N.ar    1  UNL1       -0.2144
      7 N          -7.3770  -17.0407   23.6758 N.ar    1  UNL1       -0.1413
      8 C          -6.2240  -16.0984   23.8561 C.ar    1  UNL1        0.2213
      9 N          -5.0375  -16.6757   23.1426 N.ar    1  UNL1       -0.2032
     10 C          -5.4573  -17.9748   22.5214 C.ar    1  UNL1        0.1725
     11 H          -3.7575  -21.0797   20.1753 H       1  UNL1        0.2922
     12 N          -2.8072  -17.4145   20.8770 N.am    1  UNL1       -0.2958
     13 C          -3.2640  -18.7560   21.3686 C.2     1  UNL1        0.2521
     14 O          -2.2748  -19.8721   21.5306 O.2     1  UNL1       -0.2699
     15 H          -3.4563  -16.6820   20.7707 H       1  UNL1        0.1501
     16 C          -1.3613  -17.1891   20.5475 C.3     1  UNL1        0.1318
     17 O           0.5101  -18.8248   19.7907 O.co2   1  UNL1       -0.5474
     18 C          -0.7019  -18.0004   19.4719 C.2     1  UNL1        0.0702
     19 O          -1.2545  -17.9874   18.0774 O.co2   1  UNL1       -0.5474
     20 C          -9.0475  -19.6583   22.6867 C.3     1  UNL1        0.0507
     21 C         -10.0716  -19.6819   21.5910 C.3     1  UNL1        0.0326
     22 C         -10.8873  -18.4571   21.3004 C.ar    1  UNL1       -0.0218
     23 C         -10.8424  -17.8320   19.9376 C.ar    1  UNL1       -0.0043
     24 C         -11.6581  -16.6072   19.6470 C.ar    1  UNL1       -0.0003
     25 C         -12.5188  -16.0075   20.7192 C.ar    1  UNL1       -0.0000
     26 C         -12.5638  -16.6326   22.0820 C.ar    1  UNL1       -0.0003
     27 C         -11.7480  -17.8575   22.3725 C.ar    1  UNL1       -0.0043
@<TRIPOS>UNITY_ATOM_ATTR
17 1
charge -1
@<TRIPOS>BOND
     1    17    18   ar
     2    18    19   ar
     3    18    16    1
     4    16    12    1
     5    12    13   am
     6    13    14    2
     7    13     1    1
     8     1     2   ar
     9     2     3    1
    10     2     4   ar
    11     4     5   ar
    12     5    20    1
    13    20    21    1
    14    21    22    1
    15    22    23   ar
    16    23    24   ar
    17    24    25   ar
    18    25    26   ar
    19    26    27   ar
    20     5     6   ar
    21     6     7   ar
    22     7     8   ar
    23     8     9   ar
    24     9    10   ar
    25    10     1   ar
    26    27    22   ar
    27    10     6   ar
    28    12    15    1
    29     3    11    1
@<TRIPOS>MOLECULE
*****
 27 29 0 0 0
SMALL
GASTEIGER

@<TRIPOS>ATOM
      1 C          -8.1212  -17.4842   22.1180 C.ar    1  UNL1        0.1227
      2 C          -7.5086  -18.6797   21.4506 C.ar    1  UNL1        0.1421
      3 O          -8.3139  -19.4910   20.4792 O.3     1  UNL1       -0.5052
      4 C          -6.0910  -19.0640   21.7546 C.ar    1  UNL1        0.0517
      5 C          -5.2858  -18.2528   22.7260 C.ar    1  UNL1        0.0655
      6 N          -5.8984  -17.0572   23.3934 N.ar    1  UNL1       -0.2144
      7 N          -5.3545  -16.0741   24.3872 N.ar    1  UNL1       -0.1413
      8 C          -6.4361  -15.0822   24.6974 C.ar    1  UNL1        0.2213
      9 N          -7.6484  -15.4523   23.8953 N.ar    1  UNL1       -0.2032
     10 C          -7.3161  -16.6729   23.0894 C.ar    1  UNL1        0.1725
     11 H          -9.1995  -19.2509   20.2893 H       1  UNL1        0.2922
     12 N         -10.4151  -16.5466   22.8985 N.am    1  UNL1       -0.2958
     13 C          -9.5389  -17.0999   21.8140 C.2     1  UNL1        0.2521
     14 O         -10.0806  -17.2689   20.4253 O.2     1  UNL1       -0.2699
     15 H         -10.0596  -16.4356   23.8099 H       1  UNL1        0.1501
     16 C         -11.8328  -16.1623   22.5944 C.3     1  UNL1        0.1318
     17 O         -13.5984  -17.6671   23.7642 O.co2   1  UNL1       -0.5474
     18 C         -12.8958  -17.2177   22.5173 C.2     1  UNL1        0.0702
     19 O         -13.2563  -17.8239   21.1935 O.co2   1  UNL1       -0.5474
     20 C          -3.8681  -18.6372   23.0300 C.3     1  UNL1        0.0507
     21 C          -3.0966  -19.4842   22.0618 C.3     1  UNL1        0.0326
     22 C          -2.4652  -18.8570   20.8543 C.ar    1  UNL1       -0.0218
     23 C          -3.2476  -18.7269   19.5811 C.ar    1  UNL1       -0.0043
     24 C          -2.6162  -18.0997   18.3737 C.ar    1  UNL1       -0.0003
     25 C          -1.2024  -17.6026   18.4394 C.ar    1  UNL1       -0.0000
     26 C          -0.4201  -17.7326   19.7126 C.ar    1  UNL1       -0.0003
     27 C          -1.0516  -18.3599   20.9200 C.ar    1  UNL1       -0.0043
@<TRIPOS>UNITY_ATOM_ATTR
17 1
charge -1
@<TRIPOS>BOND
     1    17    18   ar
     2    18    19   ar
     3    18    16    1
     4    16    12    1
     5    12    13   am
     6    13    14    2
     7    13     1    1
     8     1     2   ar
     9     2     3    1
    10     2     4   ar
    11     4     5   ar
    12     5    20    1
    13    20    21    1
    14    21    22    1
    15    22    23   ar
    16    23    24   ar
    17    24    25   ar
    18    25    26   ar
    19    26    27   ar
    20     5     6   ar
    21     6     7   ar
    22     7     8   ar
    23     8     9   ar
    24     9    10   ar
    25    10     1   ar
    26    27    22   ar
    27    10     6   ar
    28    12    15    1
    29     3    11    1
@<TRIPOS>MOLECULE
*****
 27 29 0 0 0
SMALL
GASTEIGER

@<TRIPOS>ATOM
      1 C          -6.6806  -16.6815   23.4948 C.ar    1  UNL1        0.1227
      2 C          -7.5965  -15.7876   24.2771 C.ar    1  UNL1        0.1421
      3 O          -7.1419  -14.4161   24.6801 O.3     1  UNL1       -0.5052
      4 C          -8.9668  -16.2652   24.6564 C.ar    1  UNL1        0.0517
      5 C          -9.4214  -17.6368   24.2534 C.ar    1  UNL1        0.0655
      6 N          -8.5055  -18.5307   23.4711 N.ar    1  UNL1       -0.2144
      7 N          -8.6756  -19.9222   22.9376 N.ar    1  UNL1       -0.1413
      8 C          -7.4103  -20.3046   22.2285 C.ar    1  UNL1        0.2213
      9 N          -6.4582  -19.1494   22.3238 N.ar    1  UNL1       -0.2032
     10 C          -7.1351  -18.0530   23.0918 C.ar    1  UNL1        0.1725
     11 H          -6.2859  -14.1178   24.4431 H       1  UNL1        0.2922
     12 N          -4.2238  -17.1965   22.8245 N.am    1  UNL1       -0.2958
     13 C          -5.3102  -16.2039   23.1155 C.2     1  UNL1        0.2521
     14 O          -5.0261  -14.7336   23.0271 O.2     1  UNL1       -0.2699
     15 H          -4.4103  -18.1615   22.8825 H       1  UNL1        0.1501
     16 C          -2.8534  -16.7188   22.4452 C.3     1  UNL1        0.1318
     17 O          -1.1910  -18.4666   21.4800 O.co2   1  UNL1       -0.5474
     18 C          -2.1450  -17.3279   21.2717 C.2     1  UNL1        0.0702
     19 O          -2.3907  -16.7985   19.8899 O.co2   1  UNL1       -0.5474
     20 C         -10.7919  -18.1143   24.6328 C.3     1  UNL1        0.0507
     21 C         -11.7690  -18.5128   23.5668 C.3     1  UNL1        0.0326
     22 C         -11.6544  -17.9309   22.1890 C.ar    1  UNL1       -0.0218
     23 C         -12.0275  -16.4985   21.9465 C.ar    1  UNL1       -0.0043
     24 C         -11.9130  -15.9166   20.5687 C.ar    1  UNL1       -0.0003
     25 C         -11.4253  -16.7672   19.4334 C.ar    1  UNL1       -0.0000
     26 C         -11.0522  -18.1996   19.6760 C.ar    1  UNL1       -0.0003
     27 C         -11.1668  -18.7815   21.0538 C.ar    1  UNL1       -0.0043
@<TRIPOS>UNITY_ATOM_ATTR
17 1
charge -1
@<TRIPOS>BOND
     1    17    18   ar
     2    18    19   ar
     3    18    16    1
     4    16    12    1
     5    12    13   am
     6    13    14    2
     7    13     1    1
     8     1     2   ar
     9     2     3    1
    10     2     4   ar
    11     4     5   ar
    12     5    20    1
    13    20    21    1
    14    21    22    1
    15    22    23   ar
    16    23    24   ar
    17    24    25   ar
    18    25    26   ar
    19    26    27   ar
    20     5     6   ar
    21     6     7   ar
    22     7     8   ar
    23     8     9   ar
    24     9    10   ar
    25    10     1   ar
    26    27    22   ar
    27    10     6   ar
    28    12    15    1
    29     3    11    1
@<TRIPOS>MOLECULE
*****
 27 29 0 0 0
SMALL
GASTEIGER

@<TRIPOS>ATOM
      1 C          -8.8314  -18.5132   20.8467 C.ar    1  UNL1        0.1227
      2 C          -8.7630  -19.6602   19.8826 C.ar    1  UNL1        0.1421
      3 O          -9.9648  -20.0221   19.0611 O.3     1  UNL1       -0.5052
      4 C          -7.4930  -20.4454   19.7400 C.ar    1  UNL1        0.0517
      5 C          -6.2912  -20.0836   20.5615 C.ar    1  UNL1        0.0655
      6 N          -6.3595  -18.9365   21.5256 N.ar    1  UNL1       -0.2144
      7 N          -5.3447  -18.3506   22.4620 N.ar    1  UNL1       -0.1413
      8 C          -5.9876  -17.2033   23.1833 C.ar    1  UNL1        0.2213
      9 N          -7.3998  -17.0801   22.6928 N.ar    1  UNL1       -0.2032
     10 C          -7.6296  -18.1513   21.6682 C.ar    1  UNL1        0.1725
     11 H         -10.7582  -19.5316   19.1502 H       1  UNL1        0.2922
     12 N         -11.3980  -18.4384   21.2428 N.am    1  UNL1       -0.2958
     13 C         -10.1015  -17.7280   20.9893 C.2     1  UNL1        0.2521
     14 O         -10.0750  -16.2322   20.8785 O.2     1  UNL1       -0.2699
     15 H         -11.4154  -19.4201   21.3155 H       1  UNL1        0.1501
     16 C         -12.6681  -17.6532   21.3854 C.3     1  UNL1        0.1318
     17 O         -12.5848  -15.5432   22.8991 O.co2   1  UNL1       -0.5474
     18 C         -12.9870  -16.9721   22.6832 C.2     1  UNL1        0.0702
     19 O         -13.7080  -17.7200   23.7653 O.co2   1  UNL1       -0.5474
     20 C          -5.0211  -20.8688   20.4188 C.3     1  UNL1        0.0507
     21 C          -3.9351  -20.3794   19.5073 C.3     1  UNL1        0.0326
     22 C          -3.0582  -19.2384   19.9306 C.ar    1  UNL1       -0.0218
     23 C          -2.8890  -18.0491   19.0322 C.ar    1  UNL1       -0.0043
     24 C          -2.0121  -16.9081   19.4556 C.ar    1  UNL1       -0.0003
     25 C          -1.3044  -16.9564   20.7773 C.ar    1  UNL1       -0.0000
     26 C          -1.4736  -18.1456   21.6757 C.ar    1  UNL1       -0.0003
     27 C          -2.3505  -19.2866   21.2523 C.ar    1  UNL1       -0.0043
@<TRIPOS>UNITY_ATOM_ATTR
17 1
charge -1
@<TRIPOS>BOND
     1    17    18   ar
     2    18    19   ar
     3    18    16    1
     4    16    12    1
     5    12    13   am
     6    13    14    2
     7    13     1    1
     8     1     2   ar
     9     2     3    1
    10     2     4   ar
    11     4     5   ar
    12     5    20    1
    13    20    21    1
    14    21    22    1
    15    22    23   ar
    16    23    24   ar
    17    24    25   ar
    18    25    26   ar
    19    26    27   ar
    20     5     6   ar
    21     6     7   ar
    22     7     8   ar
    23     8     9   ar
    24     9    10   ar
    25    10     1   ar
    26    27    22   ar
    27    10     6   ar
    28    12    15    1
    29     3    11    1
@<TRIPOS>MOLECULE
*****
 27 29 0 0 0
SMALL
GASTEIGER

@<TRIPOS>ATOM
      1 C          -8.0956  -17.6744   22.1230 C.ar    1  UNL1        0.1227
      2 C          -7.7796  -19.0696   21.6720 C.ar    1  UNL1        0.1421
      3 O          -8.8402  -19.9046   21.0176 O.3     1  UNL1       -0.5052
      4 C          -6.4032  -19.6299   21.8753 C.ar    1  UNL1        0.0517
      5 C          -5.3426  -18.7949   22.5296 C.ar    1  UNL1        0.0655
      6 N          -5.6586  -17.3997   22.9806 N.ar    1  UNL1       -0.2144
      7 N          -4.8244  -16.3482   23.6504 N.ar    1  UNL1       -0.1413
      8 C          -5.6854  -15.1381   23.8610 C.ar    1  UNL1        0.2213
      9 N          -7.0517  -15.4417   23.3214 N.ar    1  UNL1       -0.2032
     10 C          -7.0351  -16.8394   22.7773 C.ar    1  UNL1        0.1725
     11 H          -9.7000  -19.5545   20.8906 H       1  UNL1        0.2922
     12 N         -10.1640  -17.2849   20.5998 N.am    1  UNL1       -0.2958
     13 C          -9.4721  -17.1141   21.9197 C.2     1  UNL1        0.2521
     14 O         -10.1568  -16.3830   23.0363 O.2     1  UNL1       -0.2699
     15 H          -9.7147  -17.7647   19.8669 H       1  UNL1        0.1501
     16 C         -11.5405  -16.7246   20.3965 C.3     1  UNL1        0.1318
     17 O         -13.1537  -15.2826   18.9583 O.co2   1  UNL1       -0.5474
     18 C         -11.7623  -15.6215   19.4046 C.2     1  UNL1        0.0702
     19 O         -10.5926  -14.8572   18.8589 O.co2   1  UNL1       -0.5474
     20 C          -3.9661  -19.3553   22.7329 C.3     1  UNL1        0.0507
     21 C          -3.2319  -19.9769   21.5821 C.3     1  UNL1        0.0326
     22 C          -2.4951  -19.1087   20.6057 C.ar    1  UNL1       -0.0218
     23 C          -1.1184  -18.6118   20.9342 C.ar    1  UNL1       -0.0043
     24 C          -0.3815  -17.7436   19.9579 C.ar    1  UNL1       -0.0003
     25 C          -1.0214  -17.3722   18.6529 C.ar    1  UNL1       -0.0000
     26 C          -2.3981  -17.8690   18.3244 C.ar    1  UNL1       -0.0003
     27 C          -3.1349  -18.7372   19.3009 C.ar    1  UNL1       -0.0043
@<TRIPOS>UNITY_ATOM_ATTR
17 1
charge -1
@<TRIPOS>BOND
     1    17    18   ar
     2    18    19   ar
     3    18    16    1
     4    16    12    1
     5    12    13   am
     6    13    14    2
     7    13     1    1
     8     1     2   ar
     9     2     3    1
    10     2     4   ar
    11     4     5   ar
    12     5    20    1
    13    20    21    1
    14    21    22    1
    15    22    23   ar
    16    23    24   ar
    17    24    25   ar
    18    25    26   ar
    19    26    27   ar
    20     5     6   ar
    21     6     7   ar
    22     7     8   ar
    23     8     9   ar
    24     9    10   ar
    25    10     1   ar
    26    27    22   ar
    27    10     6   ar
    28    12    15    1
    29     3    11    1
@<TRIPOS>MOLECULE
*****
 27 29 0 0 0
SMALL
GASTEIGER

@<TRIPOS>ATOM
      1 C         -14.3406   -6.2594   19.2690 C.ar    1  UNL1        0.1227
      2 C         -14.1762   -4.9527   19.9870 C.ar    1  UNL1        0.1421
      3 O         -15.2699   -4.4443   20.8789 O.3     1  UNL1       -0.5052
      4 C         -12.9184   -4.1545   19.8131 C.ar    1  UNL1        0.0517
      5 C         -11.8247   -4.6629   18.9212 C.ar    1  UNL1        0.0655
      6 N         -11.9890   -5.9695   18.2032 N.ar    1  UNL1       -0.2144
      7 N         -11.0900   -6.7195   17.2655 N.ar    1  UNL1       -0.1413
      8 C         -11.7924   -7.9813   16.8598 C.ar    1  UNL1        0.2213
      9 N         -13.1255   -8.0112   17.5469 N.ar    1  UNL1       -0.2032
     10 C         -13.2470   -6.7678   18.3771 C.ar    1  UNL1        0.1725
     11 H         -16.0557   -4.9430   20.9876 H       1  UNL1        0.2922
     12 N         -15.5252   -8.5469   19.6070 N.am    1  UNL1       -0.2958
     13 C         -15.5986   -7.0577   19.4430 C.2     1  UNL1        0.2521
     14 O         -16.9300   -6.3667   19.4529 O.2     1  UNL1       -0.2699
     15 H         -14.6514   -9.0004   19.6005 H       1  UNL1        0.1501
     16 C         -16.7833   -9.3451   19.7809 C.3     1  UNL1        0.1318
     17 O         -16.5888  -11.8261   19.0347 O.co2   1  UNL1       -0.5474
     18 C         -17.1168  -10.4400   18.8114 C.2     1  UNL1        0.0702
     19 O         -17.9784  -10.1487   17.6185 O.co2   1  UNL1       -0.5474
     20 C         -10.5667   -3.8645   18.7473 C.3     1  UNL1        0.0507
     21 C         -10.3761   -3.0228   17.5205 C.3     1  UNL1        0.0326
     22 C         -11.0959   -1.7132   17.3903 C.ar    1  UNL1       -0.0218
     23 C         -11.9118   -1.1888   18.5345 C.ar    1  UNL1       -0.0043
     24 C         -12.6315    0.1208   18.4044 C.ar    1  UNL1       -0.0003
     25 C         -12.5353    0.9061   17.1299 C.ar    1  UNL1       -0.0000
     26 C         -11.7194    0.3817   15.9856 C.ar    1  UNL1       -0.0003
     27 C         -10.9997   -0.9280   16.1159 C.ar    1  UNL1       -0.0043
@<TRIPOS>UNITY_ATOM_ATTR
17 1
charge -1
@<TRIPOS>BOND
     1    17    18   ar
     2    18    19   ar
     3    18    16    1
     4    16    12    1
     5    12    13   am
     6    13    14    2
     7    13     1    1
     8     1     2   ar
     9     2     3    1
    10     2     4   ar
    11     4     5   ar
    12     5    20    1
    13    20    21    1
    14    21    22    1
    15    22    23   ar
    16    23    24   ar
    17    24    25   ar
    18    25    26   ar
    19    26    27   ar
    20     5     6   ar
    21     6     7   ar
    22     7     8   ar
    23     8     9   ar
    24     9    10   ar
    25    10     1   ar
    26    27    22   ar
    27    10     6   ar
    28    12    15    1
    29     3    11    1
@<TRIPOS>MOLECULE
*****
 27 29 0 0 0
SMALL
GASTEIGER

@<TRIPOS>ATOM
      1 C         -13.5908   -2.8885   19.3603 C.ar    1  UNL1        0.1227
      2 C         -14.9604   -2.5532   19.8720 C.ar    1  UNL1        0.1421
      3 O         -15.7736   -3.5975   20.5779 O.3     1  UNL1       -0.5052
      4 C         -15.5168   -1.1739   19.6777 C.ar    1  UNL1        0.0517
      5 C         -14.7036   -0.1297   18.9717 C.ar    1  UNL1        0.0655
      6 N         -13.3340   -0.4649   18.4600 N.ar    1  UNL1       -0.2144
      7 N         -12.3074    0.3506   17.7314 N.ar    1  UNL1       -0.1413
      8 C         -11.1165   -0.5247   17.4753 C.ar    1  UNL1        0.2213
      9 N         -11.4071   -1.8813   18.0457 N.ar    1  UNL1       -0.2032
     10 C         -12.7776   -1.8443   18.6543 C.ar    1  UNL1        0.1725
     11 H         -15.4261   -4.4591   20.6993 H       1  UNL1        0.2922
     12 N         -12.0554   -4.8278   18.5658 N.am    1  UNL1       -0.2958
     13 C         -13.0345   -4.2679   19.5546 C.2     1  UNL1        0.2521
     14 O         -13.4573   -5.0873   20.7378 O.2     1  UNL1       -0.2699
     15 H         -11.7779   -4.2900   17.7892 H       1  UNL1        0.1501
     16 C         -11.4991   -6.2072   18.7601 C.3     1  UNL1        0.1318
     17 O          -9.2261   -5.2253   19.5473 O.co2   1  UNL1       -0.5474
     18 C         -10.0448   -6.3914   19.0780 C.2     1  UNL1        0.0702
     19 O          -9.4091   -7.7416   18.9267 O.co2   1  UNL1       -0.5474
     20 C         -15.2600    1.2497   18.7774 C.3     1  UNL1        0.0507
     21 C         -16.5818    1.6175   19.3837 C.3     1  UNL1        0.0326
     22 C         -16.6306    2.3002   20.7185 C.ar    1  UNL1       -0.0218
     23 C         -15.9552    3.6260   20.9079 C.ar    1  UNL1       -0.0043
     24 C         -16.0040    4.3087   22.2427 C.ar    1  UNL1       -0.0003
     25 C         -16.7284    3.6655   23.3880 C.ar    1  UNL1       -0.0000
     26 C         -17.4039    2.3397   23.1986 C.ar    1  UNL1       -0.0003
     27 C         -17.3550    1.6570   21.8637 C.ar    1  UNL1       -0.0043
@<TRIPOS>UNITY_ATOM_ATTR
17 1
charge -1
@<TRIPOS>BOND
     1    17    18   ar
     2    18    19   ar
     3    18    16    1
     4    16    12    1
     5    12    13   am
     6    13    14    2
     7    13     1    1
     8     1     2   ar
     9     2     3    1
    10     2     4   ar
    11     4     5   ar
    12     5    20    1
    13    20    21    1
    14    21    22    1
    15    22    23   ar
    16    23    24   ar
    17    24    25   ar
    18    25    26   ar
    19    26    27   ar
    20     5     6   ar
    21     6     7   ar
    22     7     8   ar
    23     8     9   ar
    24     9    10   ar
    25    10     1   ar
    26    27    22   ar
    27    10     6   ar
    28    12    15    1
    29     3    11    1
@<TRIPOS>MOLECULE
*****
 27 29 0 0 0
SMALL
GASTEIGER

@<TRIPOS>ATOM
      1 C           2.8049    1.0198   32.1752 C.ar    1  UNL1        0.1227
      2 C           2.7016    2.2352   33.0482 C.ar    1  UNL1        0.1421
      3 O           1.9957    3.4604   32.5475 O.3     1  UNL1       -0.5052
      4 C           3.3040    2.2254   34.4218 C.ar    1  UNL1        0.0517
      5 C           4.0099    1.0002   34.9225 C.ar    1  UNL1        0.0655
      6 N           4.1133   -0.2152   34.0495 N.ar    1  UNL1       -0.2144
      7 N           4.7438   -1.5583   34.2696 N.ar    1  UNL1       -0.1413
      8 C           4.5310   -2.3786   33.0319 C.ar    1  UNL1        0.2213
      9 N           3.7690   -1.5424   32.0469 N.ar    1  UNL1       -0.2032
     10 C           3.5108   -0.2053   32.6758 C.ar    1  UNL1        0.1725
     11 H           1.6193    3.4665   31.6894 H       1  UNL1        0.2922
     12 N           1.8338   -0.2625   30.1350 N.am    1  UNL1       -0.2958
     13 C           2.2025    1.0297   30.8015 C.2     1  UNL1        0.2521
     14 O           1.9686    2.3318   30.0944 O.2     1  UNL1       -0.2699
     15 H           1.9873   -1.1171   30.5991 H       1  UNL1        0.1501
     16 C           1.2313   -0.2526   28.7613 C.3     1  UNL1        0.1318
     17 O          -0.7083    0.9533   27.5228 O.co2   1  UNL1       -0.5474
     18 C          -0.2355    0.0084   28.5876 C.2     1  UNL1        0.0702
     19 O          -1.2297   -0.6754   29.4787 O.co2   1  UNL1       -0.5474
     20 C           4.6124    0.9905   36.2962 C.3     1  UNL1        0.0507
     21 C           4.2075    2.0289   37.3001 C.3     1  UNL1        0.0326
     22 C           2.9219    1.8782   38.0579 C.ar    1  UNL1       -0.0218
     23 C           2.6100    0.5882   38.7569 C.ar    1  UNL1       -0.0043
     24 C           1.3243    0.4376   39.5147 C.ar    1  UNL1       -0.0003
     25 C           0.3505    1.5771   39.5736 C.ar    1  UNL1       -0.0000
     26 C           0.6623    2.8671   38.8747 C.ar    1  UNL1       -0.0003
     27 C           1.9481    3.0176   38.1168 C.ar    1  UNL1       -0.0043
@<TRIPOS>UNITY_ATOM_ATTR
17 1
charge -1
@<TRIPOS>BOND
     1    17    18   ar
     2    18    19   ar
     3    18    16    1
     4    16    12    1
     5    12    13   am
     6    13    14    2
     7    13     1    1
     8     1     2   ar
     9     2     3    1
    10     2     4   ar
    11     4     5   ar
    12     5    20    1
    13    20    21    1
    14    21    22    1
    15    22    23   ar
    16    23    24   ar
    17    24    25   ar
    18    25    26   ar
    19    26    27   ar
    20     5     6   ar
    21     6     7   ar
    22     7     8   ar
    23     8     9   ar
    24     9    10   ar
    25    10     1   ar
    26    27    22   ar
    27    10     6   ar
    28    12    15    1
    29     3    11    1
