@<TRIPOS>MOLECULE
*****
 27 29 0 0 0
SMALL
GASTEIGER

@<TRIPOS>ATOM
      1 N           1.9918    0.8466   29.9157 N.3     1  UNL1       -0.1549
      2 C           0.6986    1.6057   29.8791 C.3     1  UNL1        0.1002
      3 C           0.0319    1.8886   28.5655 C.3     1  UNL1        0.0418
      4 C           0.6584    1.4125   27.2885 C.2     1  UNL1       -0.0331
      5 C          -0.0083    1.6954   25.9749 C.2     1  UNL1        0.0412
      6 C           1.9516    0.6534   27.3251 C.3     1  UNL1        0.0418
      7 C           2.6183    0.3705   28.6387 C.3     1  UNL1        0.1002
      8 S           2.6585    0.5637   31.2292 S.O2    1  UNL1        0.0633
      9 O           2.9377    2.0272   31.4027 O.2     1  UNL1       -0.1528
     10 O           2.3792   -0.8998   31.0558 O.2     1  UNL1       -0.1528
     11 C           4.6585   -0.2851   35.1700 C.ar    1  UNL1        0.1388
     12 C           4.6186   -1.3418   34.1062 C.ar    1  UNL1        0.0383
     13 C           3.9519   -1.0589   32.7926 C.ar    1  UNL1        0.0230
     14 C           3.3251    0.2808   32.5428 C.ar    1  UNL1        0.1224
     15 C           3.3651    1.3375   33.6066 C.ar    1  UNL1        0.0230
     16 C           4.0318    1.0546   34.9202 C.ar    1  UNL1        0.0383
     17 C           6.7519   -0.1606   36.7037 C.3     1  UNL1        0.2525
     18 O           5.3252   -0.5680   36.4836 O.3     1  UNL1       -0.4714
     19 C          -1.3015    2.4545   25.9383 C.1     1  UNL1       -0.0583
     20 C          -2.5947    3.2136   25.9017 C.1     1  UNL1       -0.0405
     21 C          -3.8879    3.9727   25.8651 C.ar    1  UNL1        0.1224
     22 C          -4.2670    4.8642   27.0104 C.ar    1  UNL1        0.0276
     23 C          -5.5602    5.6233   26.9738 C.ar    1  UNL1        0.0034
     24 C          -6.4744    5.4910   25.7919 C.ar    1  UNL1        0.0148
     25 C          -6.0953    4.5996   24.6467 C.ar    1  UNL1        0.0600
     26 C          -7.0095    4.4672   23.4648 C.3     1  UNL1        0.0521
     27 N          -4.8021    3.8404   24.6832 N.ar    1  UNL1       -0.2414
@<TRIPOS>BOND
     1    17    18    1
     2    18    11    1
     3    11    12   ar
     4    12    13   ar
     5    13    14   ar
     6    14     8    1
     7     8     9    2
     8     8    10    2
     9     8     1    1
    10     1     2    1
    11     2     3    1
    12     3     4    1
    13     4     5    2
    14     5    19    1
    15    19    20    3
    16    20    21    1
    17    21    22   ar
    18    22    23   ar
    19    23    24   ar
    20    24    25   ar
    21    25    26    1
    22    25    27   ar
    23     4     6    1
    24     6     7    1
    25    14    15   ar
    26    15    16   ar
    27    16    11   ar
    28     7     1    1
    29    27    21   ar
@<TRIPOS>MOLECULE
*****
 27 29 0 0 0
SMALL
GASTEIGER

@<TRIPOS>ATOM
      1 N           6.5751   -2.9365   30.1529 N.3     1  UNL1       -0.1549
      2 C           5.8188   -2.4821   28.9399 C.3     1  UNL1        0.1002
      3 C           6.0890   -3.1147   27.6069 C.3     1  UNL1        0.0418
      4 C           7.1155   -4.2018   27.4870 C.2     1  UNL1       -0.0331
      5 C           7.3856   -4.8345   26.1540 C.2     1  UNL1        0.0412
      6 C           7.8718   -4.6563   28.7000 C.3     1  UNL1        0.0418
      7 C           7.6016   -4.0236   30.0329 C.3     1  UNL1        0.1002
      8 S           6.3050   -2.3039   31.4858 S.O2    1  UNL1        0.0633
      9 O           6.8364   -3.5263   32.1737 O.2     1  UNL1       -0.1528
     10 O           5.7736   -1.0814   30.7979 O.2     1  UNL1       -0.1528
     11 C           5.4945   -0.4059   35.4847 C.ar    1  UNL1        0.1388
     12 C           6.8227   -0.2086   34.8163 C.ar    1  UNL1        0.0383
     13 C           7.0929   -0.8413   33.4833 C.ar    1  UNL1        0.0230
     14 C           6.0348   -1.6712   32.8188 C.ar    1  UNL1        0.1224
     15 C           4.7066   -1.8685   33.4872 C.ar    1  UNL1        0.0230
     16 C           4.4364   -1.2359   34.8202 C.ar    1  UNL1        0.0383
     17 C           3.9687    1.0189   37.0312 C.3     1  UNL1        0.2525
     18 O           5.2243    0.2267   36.8177 O.3     1  UNL1       -0.4714
     19 C           6.6293   -4.3800   24.9410 C.1     1  UNL1       -0.0583
     20 C           5.8729   -3.9255   23.7280 C.1     1  UNL1       -0.0405
     21 C           5.1166   -3.4711   22.5150 C.ar    1  UNL1        0.1224
     22 C           4.3471   -2.1839   22.5496 C.ar    1  UNL1        0.0276
     23 C           3.5908   -1.7294   21.3366 C.ar    1  UNL1        0.0034
     24 C           3.6038   -2.5620   20.0890 C.ar    1  UNL1        0.0148
     25 C           4.3732   -3.8492   20.0544 C.ar    1  UNL1        0.0600
     26 C           4.3863   -4.6818   18.8068 C.3     1  UNL1        0.0521
     27 N           5.1296   -4.3037   21.2674 N.ar    1  UNL1       -0.2414
@<TRIPOS>BOND
     1    17    18    1
     2    18    11    1
     3    11    12   ar
     4    12    13   ar
     5    13    14   ar
     6    14     8    1
     7     8     9    2
     8     8    10    2
     9     8     1    1
    10     1     2    1
    11     2     3    1
    12     3     4    1
    13     4     5    2
    14     5    19    1
    15    19    20    3
    16    20    21    1
    17    21    22   ar
    18    22    23   ar
    19    23    24   ar
    20    24    25   ar
    21    25    26    1
    22    25    27   ar
    23     4     6    1
    24     6     7    1
    25    14    15   ar
    26    15    16   ar
    27    16    11   ar
    28     7     1    1
    29    27    21   ar
@<TRIPOS>MOLECULE
*****
 27 29 0 0 0
SMALL
GASTEIGER

@<TRIPOS>ATOM
      1 N           1.1242    1.5376   26.7842 N.3     1  UNL1       -0.1549
      2 C           2.1240    0.7470   25.9935 C.3     1  UNL1        0.1002
      3 C           1.9707    0.6168   24.5070 C.3     1  UNL1        0.0418
      4 C           0.8176    1.2772   23.8113 C.2     1  UNL1       -0.0331
      5 C           0.6642    1.1470   22.3248 C.2     1  UNL1        0.0412
      6 C          -0.1822    2.0678   24.6019 C.3     1  UNL1        0.0418
      7 C          -0.0289    2.1981   26.0884 C.3     1  UNL1        0.1002
      8 S           1.2775    1.6679   28.2706 S.O2    1  UNL1        0.0633
      9 O          -0.1951    1.4402   28.4424 O.2     1  UNL1       -0.1528
     10 O           2.7501    1.8955   28.0988 O.2     1  UNL1       -0.1528
     11 C           1.7374    2.0585   32.7300 C.ar    1  UNL1        0.1388
     12 C           0.8217    2.9850   31.9864 C.ar    1  UNL1        0.0383
     13 C           0.6684    2.8548   30.5000 C.ar    1  UNL1        0.0230
     14 C           1.4308    1.7981   29.7571 C.ar    1  UNL1        0.1224
     15 C           2.3465    0.8715   30.5006 C.ar    1  UNL1        0.0230
     16 C           2.4998    1.0018   31.9871 C.ar    1  UNL1        0.0383
     17 C           2.6919    3.3189   34.7916 C.3     1  UNL1        0.2525
     18 O           1.8907    2.1887   34.2164 O.3     1  UNL1       -0.4714
     19 C           1.6640    0.3563   21.5341 C.1     1  UNL1       -0.0583
     20 C           2.6639   -0.4344   20.7434 C.1     1  UNL1       -0.0405
     21 C           3.6637   -1.2250   19.9527 C.ar    1  UNL1        0.1224
     22 C           4.8207   -0.5301   19.2980 C.ar    1  UNL1        0.0276
     23 C           5.8205   -1.3208   18.5073 C.ar    1  UNL1        0.0034
     24 C           5.6634   -2.8063   18.3713 C.ar    1  UNL1        0.0148
     25 C           4.5065   -3.5012   19.0260 C.ar    1  UNL1        0.0600
     26 C           4.3494   -4.9867   18.8900 C.3     1  UNL1        0.0521
     27 N           3.5066   -2.7106   19.8167 N.ar    1  UNL1       -0.2414
@<TRIPOS>BOND
     1    17    18    1
     2    18    11    1
     3    11    12   ar
     4    12    13   ar
     5    13    14   ar
     6    14     8    1
     7     8     9    2
     8     8    10    2
     9     8     1    1
    10     1     2    1
    11     2     3    1
    12     3     4    1
    13     4     5    2
    14     5    19    1
    15    19    20    3
    16    20    21    1
    17    21    22   ar
    18    22    23   ar
    19    23    24   ar
    20    24    25   ar
    21    25    26    1
    22    25    27   ar
    23     4     6    1
    24     6     7    1
    25    14    15   ar
    26    15    16   ar
    27    16    11   ar
    28     7     1    1
    29    27    21   ar
@<TRIPOS>MOLECULE
*****
 27 29 0 0 0
SMALL
GASTEIGER

@<TRIPOS>ATOM
      1 N           2.3018    0.0730   20.2358 N.3     1  UNL1       -0.1549
      2 C           1.2210    0.3132   21.2477 C.3     1  UNL1        0.1002
      3 C           0.1478    1.3246   20.9731 C.3     1  UNL1        0.0418
      4 C           0.1554    2.0957   19.6865 C.2     1  UNL1       -0.0331
      5 C          -0.9177    3.1071   19.4119 C.2     1  UNL1        0.0412
      6 C           1.2363    1.8554   18.6746 C.3     1  UNL1        0.0418
      7 C           2.3094    0.8441   18.9492 C.3     1  UNL1        0.1002
      8 S           3.3750   -0.9384   20.5104 S.O2    1  UNL1        0.0633
      9 O           2.8809   -1.0800   21.9196 O.2     1  UNL1       -0.1528
     10 O           3.8691   -0.7968   19.1013 O.2     1  UNL1       -0.1528
     11 C           6.5945   -3.9725   21.3344 C.ar    1  UNL1        0.1388
     12 C           5.4590   -3.8030   22.2996 C.ar    1  UNL1        0.0383
     13 C           4.3858   -2.7916   22.0250 C.ar    1  UNL1        0.0230
     14 C           4.4481   -1.9498   20.7851 C.ar    1  UNL1        0.1224
     15 C           5.5837   -2.1193   19.8198 C.ar    1  UNL1        0.0230
     16 C           6.6568   -3.1307   20.0945 C.ar    1  UNL1        0.0383
     17 C           9.0143   -4.8426   20.9635 C.3     1  UNL1        0.2525
     18 O           7.6677   -4.9839   21.6090 O.3     1  UNL1       -0.4714
     19 C          -1.9986    3.3473   20.4238 C.1     1  UNL1       -0.0583
     20 C          -3.0795    3.5876   21.4358 C.1     1  UNL1       -0.0405
     21 C          -4.1603    3.8278   22.4477 C.ar    1  UNL1        0.1224
     22 C          -5.5820    3.9979   22.0006 C.ar    1  UNL1        0.0276
     23 C          -6.6629    4.2382   23.0125 C.ar    1  UNL1        0.0034
     24 C          -6.3221    4.3084   24.4716 C.ar    1  UNL1        0.0148
     25 C          -4.9004    4.1383   24.9187 C.ar    1  UNL1        0.0600
     26 C          -4.5596    4.2085   26.3778 C.3     1  UNL1        0.0521
     27 N          -3.8195    3.8980   23.9068 N.ar    1  UNL1       -0.2414
@<TRIPOS>BOND
     1    17    18    1
     2    18    11    1
     3    11    12   ar
     4    12    13   ar
     5    13    14   ar
     6    14     8    1
     7     8     9    2
     8     8    10    2
     9     8     1    1
    10     1     2    1
    11     2     3    1
    12     3     4    1
    13     4     5    2
    14     5    19    1
    15    19    20    3
    16    20    21    1
    17    21    22   ar
    18    22    23   ar
    19    23    24   ar
    20    24    25   ar
    21    25    26    1
    22    25    27   ar
    23     4     6    1
    24     6     7    1
    25    14    15   ar
    26    15    16   ar
    27    16    11   ar
    28     7     1    1
    29    27    21   ar
@<TRIPOS>MOLECULE
*****
 27 29 0 0 0
SMALL
GASTEIGER

@<TRIPOS>ATOM
      1 N          -6.8875    5.0543   24.6754 N.3     1  UNL1       -0.1549
      2 C          -6.2362    4.4302   23.4770 C.3     1  UNL1        0.1002
      3 C          -4.7528    4.2080   23.4601 C.3     1  UNL1        0.0418
      4 C          -3.9208    4.6100   24.6417 C.2     1  UNL1       -0.0331
      5 C          -2.4374    4.3878   24.6248 C.2     1  UNL1        0.0412
      6 C          -4.5720    5.2341   25.8400 C.3     1  UNL1        0.0418
      7 C          -6.0554    5.4563   25.8569 C.3     1  UNL1        0.1002
      8 S          -8.3708    5.2765   24.6923 S.O2    1  UNL1        0.0633
      9 O          -8.5137    4.4158   23.4722 O.2     1  UNL1       -0.1528
     10 O          -8.2280    6.1373   25.9124 O.2     1  UNL1       -0.1528
     11 C         -12.8209    5.9431   24.7430 C.ar    1  UNL1        0.1388
     12 C         -11.8900    7.1075   24.5778 C.ar    1  UNL1        0.0383
     13 C         -10.4066    6.8853   24.5609 C.ar    1  UNL1        0.0230
     14 C          -9.8542    5.4987   24.7092 C.ar    1  UNL1        0.1224
     15 C         -10.7851    4.3342   24.8744 C.ar    1  UNL1        0.0230
     16 C         -12.2685    4.5564   24.8913 C.ar    1  UNL1        0.0383
     17 C         -15.2264    5.0438   25.1366 C.3     1  UNL1        0.2525
     18 O         -14.3043    6.1652   24.7599 O.3     1  UNL1       -0.4714
     19 C          -1.7861    3.7636   23.4264 C.1     1  UNL1       -0.0583
     20 C          -1.1348    3.1394   22.2279 C.1     1  UNL1       -0.0405
     21 C          -0.4835    2.5152   21.0295 C.ar    1  UNL1        0.1224
     22 C          -0.4037    3.2749   19.7385 C.ar    1  UNL1        0.0276
     23 C           0.2476    2.6507   18.5401 C.ar    1  UNL1        0.0034
     24 C           0.8191    1.2669   18.6327 C.ar    1  UNL1        0.0148
     25 C           0.7393    0.5073   19.9236 C.ar    1  UNL1        0.0600
     26 C           1.3108   -0.8765   20.0161 C.3     1  UNL1        0.0521
     27 N           0.0880    1.1315   21.1221 N.ar    1  UNL1       -0.2414
@<TRIPOS>BOND
     1    17    18    1
     2    18    11    1
     3    11    12   ar
     4    12    13   ar
     5    13    14   ar
     6    14     8    1
     7     8     9    2
     8     8    10    2
     9     8     1    1
    10     1     2    1
    11     2     3    1
    12     3     4    1
    13     4     5    2
    14     5    19    1
    15    19    20    3
    16    20    21    1
    17    21    22   ar
    18    22    23   ar
    19    23    24   ar
    20    24    25   ar
    21    25    26    1
    22    25    27   ar
    23     4     6    1
    24     6     7    1
    25    14    15   ar
    26    15    16   ar
    27    16    11   ar
    28     7     1    1
    29    27    21   ar
@<TRIPOS>MOLECULE
*****
 27 29 0 0 0
SMALL
GASTEIGER

@<TRIPOS>ATOM
      1 N           2.0366    0.5646   24.4690 N.3     1  UNL1       -0.1549
      2 C           0.6580    1.0756   24.1719 C.3     1  UNL1        0.1002
      3 C          -0.0163    2.0141   25.1283 C.3     1  UNL1        0.0418
      4 C           0.6881    2.4415   26.3818 C.2     1  UNL1       -0.0331
      5 C           0.0138    3.3799   27.3382 C.2     1  UNL1        0.0412
      6 C           2.0667    1.9305   26.6789 C.3     1  UNL1        0.0418
      7 C           2.7409    0.9921   25.7225 C.3     1  UNL1        0.1002
      8 S           2.7109   -0.3738   23.5126 S.O2    1  UNL1        0.0633
      9 O           1.9565    0.2452   22.3734 O.2     1  UNL1       -0.1528
     10 O           3.4653   -0.9928   24.6518 O.2     1  UNL1       -0.1528
     11 C           4.7338   -3.1890   20.6434 C.ar    1  UNL1        0.1388
     12 C           3.8387   -2.1034   20.1235 C.ar    1  UNL1        0.0383
     13 C           3.1645   -1.1650   21.0799 C.ar    1  UNL1        0.0230
     14 C           3.3852   -1.3122   22.5562 C.ar    1  UNL1        0.1224
     15 C           4.2802   -2.3978   23.0761 C.ar    1  UNL1        0.0230
     16 C           4.9545   -3.3362   22.1197 C.ar    1  UNL1        0.0383
     17 C           4.5871   -5.0626   18.8495 C.3     1  UNL1        0.2525
     18 O           5.4081   -4.1275   19.6870 O.3     1  UNL1       -0.4714
     19 C          -1.3648    3.8909   27.0412 C.1     1  UNL1       -0.0583
     20 C          -2.7435    4.4020   26.7441 C.1     1  UNL1       -0.0405
     21 C          -4.1221    4.9130   26.4471 C.ar    1  UNL1        0.1224
     22 C          -4.6485    4.8781   25.0428 C.ar    1  UNL1        0.0276
     23 C          -6.0271    5.3891   24.7458 C.ar    1  UNL1        0.0034
     24 C          -6.8794    5.9350   25.8529 C.ar    1  UNL1        0.0148
     25 C          -6.3530    5.9699   27.2570 C.ar    1  UNL1        0.0600
     26 C          -7.2053    6.5158   28.3641 C.3     1  UNL1        0.0521
     27 N          -4.9743    5.4589   27.5542 N.ar    1  UNL1       -0.2414
@<TRIPOS>BOND
     1    17    18    1
     2    18    11    1
     3    11    12   ar
     4    12    13   ar
     5    13    14   ar
     6    14     8    1
     7     8     9    2
     8     8    10    2
     9     8     1    1
    10     1     2    1
    11     2     3    1
    12     3     4    1
    13     4     5    2
    14     5    19    1
    15    19    20    3
    16    20    21    1
    17    21    22   ar
    18    22    23   ar
    19    23    24   ar
    20    24    25   ar
    21    25    26    1
    22    25    27   ar
    23     4     6    1
    24     6     7    1
    25    14    15   ar
    26    15    16   ar
    27    16    11   ar
    28     7     1    1
    29    27    21   ar
@<TRIPOS>MOLECULE
*****
 27 29 0 0 0
SMALL
GASTEIGER

@<TRIPOS>ATOM
      1 N          -1.6094    3.1669   20.1167 N.3     1  UNL1       -0.1549
      2 C          -0.9232    1.8764   20.4541 C.3     1  UNL1        0.1002
      3 C           0.3971    1.5423   19.8255 C.3     1  UNL1        0.0418
      4 C           1.0312    2.4986   18.8595 C.2     1  UNL1       -0.0331
      5 C           2.3516    2.1645   18.2309 C.2     1  UNL1        0.0412
      6 C           0.3451    3.7890   18.5220 C.3     1  UNL1        0.0418
      7 C          -0.9753    4.1232   19.1506 C.3     1  UNL1        0.1002
      8 S          -2.9297    3.5010   20.7453 S.O2    1  UNL1        0.0633
      9 O          -2.3224    3.3384   22.1072 O.2     1  UNL1       -0.1528
     10 O          -3.5370    3.6635   19.3834 O.2     1  UNL1       -0.1528
     11 C          -6.8907    4.5033   22.6311 C.ar    1  UNL1        0.1388
     12 C          -5.7752    3.9593   23.4735 C.ar    1  UNL1        0.0383
     13 C          -4.4549    3.6252   22.8449 C.ar    1  UNL1        0.0230
     14 C          -4.2500    3.8351   21.3739 C.ar    1  UNL1        0.1224
     15 C          -5.3655    4.3791   20.5315 C.ar    1  UNL1        0.0230
     16 C          -6.6858    4.7132   21.1601 C.ar    1  UNL1        0.0383
     17 C          -8.2559    5.6125   24.5431 C.3     1  UNL1        0.2525
     18 O          -8.2110    4.8374   23.2597 O.3     1  UNL1       -0.4714
     19 C           3.0377    0.8741   18.5683 C.1     1  UNL1       -0.0583
     20 C           3.7240   -0.4164   18.9058 C.1     1  UNL1       -0.0405
     21 C           4.4102   -1.7068   19.2433 C.ar    1  UNL1        0.1224
     22 C           3.6613   -3.0027   19.1442 C.ar    1  UNL1        0.0276
     23 C           4.3475   -4.2932   19.4816 C.ar    1  UNL1        0.0034
     24 C           5.7826   -4.2877   19.9182 C.ar    1  UNL1        0.0148
     25 C           6.5314   -2.9918   20.0173 C.ar    1  UNL1        0.0600
     26 C           7.9665   -2.9864   20.4539 C.3     1  UNL1        0.0521
     27 N           5.8453   -1.7013   19.6799 N.ar    1  UNL1       -0.2414
@<TRIPOS>BOND
     1    17    18    1
     2    18    11    1
     3    11    12   ar
     4    12    13   ar
     5    13    14   ar
     6    14     8    1
     7     8     9    2
     8     8    10    2
     9     8     1    1
    10     1     2    1
    11     2     3    1
    12     3     4    1
    13     4     5    2
    14     5    19    1
    15    19    20    3
    16    20    21    1
    17    21    22   ar
    18    22    23   ar
    19    23    24   ar
    20    24    25   ar
    21    25    26    1
    22    25    27   ar
    23     4     6    1
    24     6     7    1
    25    14    15   ar
    26    15    16   ar
    27    16    11   ar
    28     7     1    1
    29    27    21   ar
@<TRIPOS>MOLECULE
*****
 27 29 0 0 0
SMALL
GASTEIGER

@<TRIPOS>ATOM
      1 N           1.8141    0.8546   29.5545 N.3     1  UNL1       -0.1549
      2 C           2.4687    0.5191   28.2473 C.3     1  UNL1        0.1002
      3 C           1.7642    0.8179   26.9572 C.3     1  UNL1        0.0418
      4 C           0.4050    1.4521   26.9743 C.2     1  UNL1       -0.0331
      5 C          -0.2995    1.7509   25.6842 C.2     1  UNL1        0.0412
      6 C          -0.2496    1.7876   28.2815 C.3     1  UNL1        0.0418
      7 C           0.4549    1.4888   29.5716 C.3     1  UNL1        0.1002
      8 S           2.5186    0.5558   30.8446 S.O2    1  UNL1        0.0633
      9 O           2.9666    1.9847   30.9309 O.2     1  UNL1       -0.1528
     10 O           2.0706   -0.8732   30.7583 O.2     1  UNL1       -0.1528
     11 C           4.6322   -0.3406   34.7149 C.ar    1  UNL1        0.1388
     12 C           3.9504    0.9814   34.5214 C.ar    1  UNL1        0.0383
     13 C           3.2459    1.2802   33.2313 C.ar    1  UNL1        0.0230
     14 C           3.2231    0.2570   32.1347 C.ar    1  UNL1        0.1224
     15 C           3.9049   -1.0650   32.3283 C.ar    1  UNL1        0.0230
     16 C           4.6094   -1.3638   33.6184 C.ar    1  UNL1        0.0383
     17 C           6.0701    0.4505   36.7290 C.3     1  UNL1        0.2525
     18 O           5.3367   -0.6394   36.0051 O.3     1  UNL1       -0.4714
     19 C           0.3552    1.4155   24.3770 C.1     1  UNL1       -0.0583
     20 C           1.0099    1.0801   23.0697 C.1     1  UNL1       -0.0405
     21 C           1.6645    0.7446   21.7625 C.ar    1  UNL1        0.1224
     22 C           1.6948    1.7580   20.6569 C.ar    1  UNL1        0.0276
     23 C           2.3494    1.4226   19.3497 C.ar    1  UNL1        0.0034
     24 C           2.9739    0.0737   19.1480 C.ar    1  UNL1        0.0148
     25 C           2.9437   -0.9397   20.2534 C.ar    1  UNL1        0.0600
     26 C           3.5681   -2.2885   20.0517 C.3     1  UNL1        0.0521
     27 N           2.2890   -0.6042   21.5607 N.ar    1  UNL1       -0.2414
@<TRIPOS>BOND
     1    17    18    1
     2    18    11    1
     3    11    12   ar
     4    12    13   ar
     5    13    14   ar
     6    14     8    1
     7     8     9    2
     8     8    10    2
     9     8     1    1
    10     1     2    1
    11     2     3    1
    12     3     4    1
    13     4     5    2
    14     5    19    1
    15    19    20    3
    16    20    21    1
    17    21    22   ar
    18    22    23   ar
    19    23    24   ar
    20    24    25   ar
    21    25    26    1
    22    25    27   ar
    23     4     6    1
    24     6     7    1
    25    14    15   ar
    26    15    16   ar
    27    16    11   ar
    28     7     1    1
    29    27    21   ar
@<TRIPOS>MOLECULE
*****
 27 29 0 0 0
SMALL
GASTEIGER

@<TRIPOS>ATOM
      1 N           3.1011    0.0201   28.7927 N.3     1  UNL1       -0.1549
      2 C           3.7413   -0.8530   27.7546 C.3     1  UNL1        0.1002
      3 C           3.4034   -0.6660   26.3051 C.3     1  UNL1        0.0418
      4 C           2.4253    0.3943   25.8939 C.2     1  UNL1       -0.0331
      5 C           2.0874    0.5813   24.4444 C.2     1  UNL1        0.0412
      6 C           1.7851    1.2674   26.9320 C.3     1  UNL1        0.0418
      7 C           2.1230    1.0803   28.3814 C.3     1  UNL1        0.1002
      8 S           3.4391   -0.1670   30.2421 S.O2    1  UNL1        0.0633
      9 O           4.7378   -0.8108   29.8562 O.2     1  UNL1       -0.1528
     10 O           2.1404    0.4768   30.6280 O.2     1  UNL1       -0.1528
     11 C           4.4528   -0.7283   34.5904 C.ar    1  UNL1        0.1388
     12 C           3.9120    0.5857   34.1099 C.ar    1  UNL1        0.0383
     13 C           3.5740    0.7728   32.6605 C.ar    1  UNL1        0.0230
     14 C           3.7770   -0.3541   31.6915 C.ar    1  UNL1        0.1224
     15 C           4.3179   -1.6681   32.1720 C.ar    1  UNL1        0.0230
     16 C           4.6558   -1.8552   33.6214 C.ar    1  UNL1        0.0383
     17 C           4.8913    0.2755   36.9462 C.3     1  UNL1        0.2525
     18 O           4.7908   -0.9154   36.0398 O.3     1  UNL1       -0.4714
     19 C           2.7275   -0.2918   23.4063 C.1     1  UNL1       -0.0583
     20 C           3.3678   -1.1650   22.3681 C.1     1  UNL1       -0.0405
     21 C           4.0080   -2.0381   21.3300 C.ar    1  UNL1        0.1224
     22 C           3.3137   -2.2814   20.0227 C.ar    1  UNL1        0.0276
     23 C           3.9539   -3.1545   18.9846 C.ar    1  UNL1        0.0034
     24 C           5.2883   -3.7844   19.2537 C.ar    1  UNL1        0.0148
     25 C           5.9826   -3.5412   20.5608 C.ar    1  UNL1        0.0600
     26 C           7.3171   -4.1711   20.8299 C.3     1  UNL1        0.0521
     27 N           5.3424   -2.6680   21.5991 N.ar    1  UNL1       -0.2414
@<TRIPOS>BOND
     1    17    18    1
     2    18    11    1
     3    11    12   ar
     4    12    13   ar
     5    13    14   ar
     6    14     8    1
     7     8     9    2
     8     8    10    2
     9     8     1    1
    10     1     2    1
    11     2     3    1
    12     3     4    1
    13     4     5    2
    14     5    19    1
    15    19    20    3
    16    20    21    1
    17    21    22   ar
    18    22    23   ar
    19    23    24   ar
    20    24    25   ar
    21    25    26    1
    22    25    27   ar
    23     4     6    1
    24     6     7    1
    25    14    15   ar
    26    15    16   ar
    27    16    11   ar
    28     7     1    1
    29    27    21   ar
