@<TRIPOS>MOLECULE
*****
 17 19 0 0 0
SMALL
GASTEIGER

@<TRIPOS>ATOM
      1 C         -10.8119  -17.9844   23.1031 C.ar    1  UNL1        0.0923
      2 C         -11.2617  -19.0299   24.0801 C.ar    1  UNL1        0.0055
      3 C         -10.3929  -20.2208   24.3572 C.ar    1  UNL1        0.0016
      4 C          -9.0742  -20.3662   23.6573 C.ar    1  UNL1        0.0204
      5 C          -8.6243  -19.3207   22.6804 C.ar    1  UNL1        0.0987
      6 C          -9.4932  -18.1298   22.4032 C.ar    1  UNL1        0.1256
      7 N          -8.7905  -17.2676   21.3968 N.ar    1  UNL1       -0.1288
      8 N          -7.4874  -17.9256   21.0520 N.ar    1  UNL1       -0.0639
      9 N          -7.3847  -19.1945   21.8452 N.ar    1  UNL1       -0.2318
     10 F         -12.5496  -15.6025   22.5489 F       1  UNL1       -0.1658
     11 C         -11.6807  -16.7935   22.8260 C.3     1  UNL1        0.4201
     12 F         -12.6553  -17.6733   22.1006 F       1  UNL1       -0.1658
     13 F         -10.7062  -15.9137   23.5514 F       1  UNL1       -0.1658
     14 C          -6.2429  -20.1665   21.8096 C.3     1  UNL1        0.1291
     15 C          -5.1524  -20.0057   20.7921 C.3     1  UNL1        0.0245
     16 C          -4.0642  -20.6015   19.9490 C.3     1  UNL1        0.0021
     17 C          -4.3520  -19.1314   19.8730 C.3     1  UNL1        0.0021
@<TRIPOS>BOND
     1    10    11    1
     2    11    12    1
     3    11    13    1
     4    11     1    1
     5     1     2   ar
     6     2     3   ar
     7     3     4   ar
     8     4     5   ar
     9     5     6   ar
    10     6     7   ar
    11     7     8   ar
    12     8     9   ar
    13     9    14    1
    14    14    15    1
    15    15    16    1
    16    16    17    1
    17     6     1   ar
    18    17    15    1
    19     9     5   ar
@<TRIPOS>MOLECULE
*****
 17 19 0 0 0
SMALL
GASTEIGER

@<TRIPOS>ATOM
      1 C          -9.6159  -19.0564   21.2176 C.ar    1  UNL1        0.0923
      2 C         -10.6933  -19.8324   21.9155 C.ar    1  UNL1        0.0055
      3 C         -11.1165  -19.4475   23.3021 C.ar    1  UNL1        0.0016
      4 C         -10.4624  -18.2866   23.9909 C.ar    1  UNL1        0.0204
      5 C          -9.3850  -17.5107   23.2930 C.ar    1  UNL1        0.0987
      6 C          -8.9618  -17.8955   21.9064 C.ar    1  UNL1        0.1256
      7 N          -7.8802  -16.9509   21.4729 N.ar    1  UNL1       -0.1288
      8 N          -7.6350  -15.9822   22.5916 N.ar    1  UNL1       -0.0639
      9 N          -8.5650  -16.3282   23.7164 N.ar    1  UNL1       -0.2318
     10 F          -8.7695  -19.8262   18.4443 F       1  UNL1       -0.1658
     11 C          -9.1927  -19.4413   19.8310 C.3     1  UNL1        0.4201
     12 F          -7.8748  -19.9180   20.3655 F       1  UNL1       -0.1658
     13 F         -10.5107  -18.9646   19.2964 F       1  UNL1       -0.1658
     14 C          -8.6586  -15.6166   25.0336 C.3     1  UNL1        0.1291
     15 C          -7.4556  -15.5279   25.9253 C.3     1  UNL1        0.0245
     16 C          -6.8591  -15.4744   27.3006 C.3     1  UNL1        0.0021
     17 C          -5.9685  -15.4277   26.0945 C.3     1  UNL1        0.0021
@<TRIPOS>BOND
     1    10    11    1
     2    11    12    1
     3    11    13    1
     4    11     1    1
     5     1     2   ar
     6     2     3   ar
     7     3     4   ar
     8     4     5   ar
     9     5     6   ar
    10     6     7   ar
    11     7     8   ar
    12     8     9   ar
    13     9    14    1
    14    14    15    1
    15    15    16    1
    16    16    17    1
    17     6     1   ar
    18    17    15    1
    19     9     5   ar
@<TRIPOS>MOLECULE
*****
 17 19 0 0 0
SMALL
GASTEIGER

@<TRIPOS>ATOM
      1 C          -6.3713  -16.1029   23.9874 C.ar    1  UNL1        0.0923
      2 C          -6.6216  -15.6160   25.3839 C.ar    1  UNL1        0.0055
      3 C          -8.0266  -15.3946   25.8604 C.ar    1  UNL1        0.0016
      4 C          -9.1812  -15.6601   24.9405 C.ar    1  UNL1        0.0204
      5 C          -8.9309  -16.1470   23.5440 C.ar    1  UNL1        0.0987
      6 C          -7.5259  -16.3684   23.0675 C.ar    1  UNL1        0.1256
      7 N          -7.5884  -16.8500   21.6483 N.ar    1  UNL1       -0.1288
      8 N          -9.0319  -16.9262   21.2477 N.ar    1  UNL1       -0.0639
      9 N          -9.8616  -16.4918   22.4193 N.ar    1  UNL1       -0.2318
     10 F          -3.5614  -16.5458   23.0343 F       1  UNL1       -0.1658
     11 C          -4.9664  -16.3244   23.5109 C.3     1  UNL1        0.4201
     12 F          -5.2103  -17.8041   23.4793 F       1  UNL1       -0.1658
     13 F          -4.7225  -14.8447   23.5424 F       1  UNL1       -0.1658
     14 C         -11.3591  -16.4154   22.4593 C.3     1  UNL1        0.1291
     15 C         -12.1392  -17.4061   23.2718 C.3     1  UNL1        0.0245
     16 C         -13.4546  -17.9862   23.7000 C.3     1  UNL1        0.0021
     17 C         -12.1749  -18.5420   24.2508 C.3     1  UNL1        0.0021
@<TRIPOS>BOND
     1    10    11    1
     2    11    12    1
     3    11    13    1
     4    11     1    1
     5     1     2   ar
     6     2     3   ar
     7     3     4   ar
     8     4     5   ar
     9     5     6   ar
    10     6     7   ar
    11     7     8   ar
    12     8     9   ar
    13     9    14    1
    14    14    15    1
    15    15    16    1
    16    16    17    1
    17     6     1   ar
    18    17    15    1
    19     9     5   ar
@<TRIPOS>MOLECULE
*****
 17 19 0 0 0
SMALL
GASTEIGER

@<TRIPOS>ATOM
      1 C          -3.9532  -19.5585   20.8507 C.ar    1  UNL1        0.0923
      2 C          -4.5183  -20.7281   20.1007 C.ar    1  UNL1        0.0055
      3 C          -5.9854  -21.0307   20.1779 C.ar    1  UNL1        0.0016
      4 C          -6.8875  -20.1636   21.0052 C.ar    1  UNL1        0.0204
      5 C          -6.3224  -18.9939   21.7552 C.ar    1  UNL1        0.0987
      6 C          -4.8552  -18.6914   21.6780 C.ar    1  UNL1        0.1256
      7 N          -4.5869  -17.4795   22.5202 N.ar    1  UNL1       -0.1288
      8 N          -5.8882  -17.0330   23.1179 N.ar    1  UNL1       -0.0639
      9 N          -6.9608  -17.9690   22.6451 N.ar    1  UNL1       -0.2318
     10 F          -1.0189  -18.9534   20.6963 F       1  UNL1       -0.1658
     11 C          -2.4860  -19.2560   20.7735 C.3     1  UNL1        0.4201
     12 F          -2.7151  -18.4649   19.5198 F       1  UNL1       -0.1658
     13 F          -2.2569  -20.0470   22.0272 F       1  UNL1       -0.1658
     14 C          -8.4162  -17.8933   23.0000 C.3     1  UNL1        0.1291
     15 C          -9.1899  -19.1509   23.2651 C.3     1  UNL1        0.0245
     16 C         -10.2918  -20.1000   22.8978 C.3     1  UNL1        0.0021
     17 C          -9.4280  -20.3797   24.0918 C.3     1  UNL1        0.0021
@<TRIPOS>BOND
     1    10    11    1
     2    11    12    1
     3    11    13    1
     4    11     1    1
     5     1     2   ar
     6     2     3   ar
     7     3     4   ar
     8     4     5   ar
     9     5     6   ar
    10     6     7   ar
    11     7     8   ar
    12     8     9   ar
    13     9    14    1
    14    14    15    1
    15    15    16    1
    16    16    17    1
    17     6     1   ar
    18    17    15    1
    19     9     5   ar
@<TRIPOS>MOLECULE
*****
 17 19 0 0 0
SMALL
GASTEIGER

@<TRIPOS>ATOM
      1 C          -7.1240  -19.5968   20.1961 C.ar    1  UNL1        0.0923
      2 C          -8.1406  -20.1309   19.2311 C.ar    1  UNL1        0.0055
      3 C          -9.5728  -19.6970   19.3340 C.ar    1  UNL1        0.0016
      4 C          -9.9883  -18.7290   20.4017 C.ar    1  UNL1        0.0204
      5 C          -8.9717  -18.1949   21.3667 C.ar    1  UNL1        0.0987
      6 C          -7.5395  -18.6288   21.2638 C.ar    1  UNL1        0.1256
      7 N          -6.7669  -17.9380   22.3482 N.ar    1  UNL1       -0.1288
      8 N          -7.7216  -17.0772   23.1213 N.ar    1  UNL1       -0.0639
      9 N          -9.0842  -17.2359   22.5146 N.ar    1  UNL1       -0.2318
     10 F          -4.2596  -20.4647   19.9904 F       1  UNL1       -0.1658
     11 C          -5.6918  -20.0308   20.0932 C.3     1  UNL1        0.4201
     12 F          -5.3296  -18.6971   19.5100 F       1  UNL1       -0.1658
     13 F          -6.0540  -21.3644   20.6764 F       1  UNL1       -0.1658
     14 C         -10.3390  -16.5553   22.9751 C.3     1  UNL1        0.1291
     15 C         -11.5567  -17.3682   23.3018 C.3     1  UNL1        0.0245
     16 C         -13.0094  -17.6751   23.0886 C.3     1  UNL1        0.0021
     17 C         -12.2129  -18.4693   24.0810 C.3     1  UNL1        0.0021
@<TRIPOS>BOND
     1    10    11    1
     2    11    12    1
     3    11    13    1
     4    11     1    1
     5     1     2   ar
     6     2     3   ar
     7     3     4   ar
     8     4     5   ar
     9     5     6   ar
    10     6     7   ar
    11     7     8   ar
    12     8     9   ar
    13     9    14    1
    14    14    15    1
    15    15    16    1
    16    16    17    1
    17     6     1   ar
    18    17    15    1
    19     9     5   ar
@<TRIPOS>MOLECULE
*****
 17 19 0 0 0
SMALL
GASTEIGER

@<TRIPOS>ATOM
      1 C          -5.4152  -19.1364   21.8104 C.ar    1  UNL1        0.0923
      2 C          -6.6496  -19.9591   21.5883 C.ar    1  UNL1        0.0055
      3 C          -7.9678  -19.4962   22.1343 C.ar    1  UNL1        0.0016
      4 C          -8.0515  -18.2107   22.9025 C.ar    1  UNL1        0.0204
      5 C          -6.8172  -17.3880   23.1247 C.ar    1  UNL1        0.0987
      6 C          -5.4990  -17.8508   22.5787 C.ar    1  UNL1        0.1256
      7 N          -4.4599  -16.8362   22.9538 N.ar    1  UNL1       -0.1288
      8 N          -5.1358  -15.7462   23.7317 N.ar    1  UNL1       -0.0639
      9 N          -6.5927  -16.0872   23.8373 N.ar    1  UNL1       -0.2318
     10 F          -2.7789  -20.0622   20.7183 F       1  UNL1       -0.1658
     11 C          -4.0970  -19.5993   21.2644 C.3     1  UNL1        0.4201
     12 F          -3.6023  -19.8370   22.6603 F       1  UNL1       -0.1658
     13 F          -4.5918  -19.3615   19.8684 F       1  UNL1       -0.1658
     14 C          -7.6411  -15.2709   24.5333 C.3     1  UNL1        0.1291
     15 C          -8.0307  -15.5966   25.9448 C.3     1  UNL1        0.0245
     16 C          -8.3347  -15.1507   27.3444 C.3     1  UNL1        0.0021
     17 C          -8.4017  -16.6067   26.9899 C.3     1  UNL1        0.0021
@<TRIPOS>BOND
     1    10    11    1
     2    11    12    1
     3    11    13    1
     4    11     1    1
     5     1     2   ar
     6     2     3   ar
     7     3     4   ar
     8     4     5   ar
     9     5     6   ar
    10     6     7   ar
    11     7     8   ar
    12     8     9   ar
    13     9    14    1
    14    14    15    1
    15    15    16    1
    16    16    17    1
    17     6     1   ar
    18    17    15    1
    19     9     5   ar
@<TRIPOS>MOLECULE
*****
 17 19 0 0 0
SMALL
GASTEIGER

@<TRIPOS>ATOM
      1 C          -8.1522  -16.2294   26.2031 C.ar    1  UNL1        0.0923
      2 C          -8.9623  -17.3335   26.8150 C.ar    1  UNL1        0.0055
      3 C          -9.7977  -18.2229   25.9427 C.ar    1  UNL1        0.0016
      4 C          -9.8230  -18.0082   24.4584 C.ar    1  UNL1        0.0204
      5 C          -9.0129  -16.9041   23.8464 C.ar    1  UNL1        0.0987
      6 C          -8.1775  -16.0147   24.7188 C.ar    1  UNL1        0.1256
      7 N          -7.4883  -15.0156   23.8373 N.ar    1  UNL1       -0.1288
      8 N          -7.8978  -15.2876   22.4201 N.ar    1  UNL1       -0.0639
      9 N          -8.8400  -16.4547   22.4258 N.ar    1  UNL1       -0.2318
     10 F          -6.4814  -14.4505   27.9478 F       1  UNL1       -0.1658
     11 C          -7.3168  -15.3399   27.0755 C.3     1  UNL1        0.4201
     12 F          -8.5623  -14.7197   27.6359 F       1  UNL1       -0.1658
     13 F          -6.0713  -15.9601   26.5151 F       1  UNL1       -0.1658
     14 C          -9.4945  -17.0653   21.2221 C.3     1  UNL1        0.1291
     15 C         -10.9906  -17.1323   21.1349 C.3     1  UNL1        0.0245
     16 C         -12.3030  -16.4843   20.8068 C.3     1  UNL1        0.0021
     17 C         -12.2692  -17.8963   21.3119 C.3     1  UNL1        0.0021
@<TRIPOS>BOND
     1    10    11    1
     2    11    12    1
     3    11    13    1
     4    11     1    1
     5     1     2   ar
     6     2     3   ar
     7     3     4   ar
     8     4     5   ar
     9     5     6   ar
    10     6     7   ar
    11     7     8   ar
    12     8     9   ar
    13     9    14    1
    14    14    15    1
    15    15    16    1
    16    16    17    1
    17     6     1   ar
    18    17    15    1
    19     9     5   ar
@<TRIPOS>MOLECULE
*****
 17 19 0 0 0
SMALL
GASTEIGER

@<TRIPOS>ATOM
      1 C          -4.4216  -18.9021   21.6927 C.ar    1  UNL1        0.0923
      2 C          -4.1105  -20.0761   20.8125 C.ar    1  UNL1        0.0055
      3 C          -5.2241  -20.8390   20.1583 C.ar    1  UNL1        0.0016
      4 C          -6.6488  -20.4278   20.3843 C.ar    1  UNL1        0.0204
      5 C          -6.9599  -19.2538   21.2645 C.ar    1  UNL1        0.0987
      6 C          -5.8463  -18.4909   21.9187 C.ar    1  UNL1        0.1256
      7 N          -6.4554  -17.3847   22.7282 N.ar    1  UNL1       -0.1288
      8 N          -7.9454  -17.4639   22.5744 N.ar    1  UNL1       -0.0639
      9 N          -8.2571  -18.6190   21.6697 N.ar    1  UNL1       -0.2318
     10 F          -2.1944  -17.3764   23.0011 F       1  UNL1       -0.1658
     11 C          -3.3080  -18.1392   22.3469 C.3     1  UNL1        0.4201
     12 F          -2.8334  -17.6778   21.0008 F       1  UNL1       -0.1658
     13 F          -3.7827  -18.6007   23.6929 F       1  UNL1       -0.1658
     14 C          -9.6259  -19.0618   21.2449 C.3     1  UNL1        0.1291
     15 C         -10.8159  -18.7466   22.1022 C.3     1  UNL1        0.0245
     16 C         -12.1860  -18.1558   22.2563 C.3     1  UNL1        0.0021
     17 C         -11.5067  -18.7917   23.4329 C.3     1  UNL1        0.0021
@<TRIPOS>BOND
     1    10    11    1
     2    11    12    1
     3    11    13    1
     4    11     1    1
     5     1     2   ar
     6     2     3   ar
     7     3     4   ar
     8     4     5   ar
     9     5     6   ar
    10     6     7   ar
    11     7     8   ar
    12     8     9   ar
    13     9    14    1
    14    14    15    1
    15    15    16    1
    16    16    17    1
    17     6     1   ar
    18    17    15    1
    19     9     5   ar
@<TRIPOS>MOLECULE
*****
 17 19 0 0 0
SMALL
GASTEIGER

@<TRIPOS>ATOM
      1 C          -2.8062  -18.2490   21.3645 C.ar    1  UNL1        0.0923
      2 C          -2.7373  -17.2058   22.4401 C.ar    1  UNL1        0.0055
      3 C          -3.9121  -16.9840   23.3461 C.ar    1  UNL1        0.0016
      4 C          -5.1556  -17.8055   23.1765 C.ar    1  UNL1        0.0204
      5 C          -5.2244  -18.8486   22.1009 C.ar    1  UNL1        0.0987
      6 C          -4.0497  -19.0704   21.1949 C.ar    1  UNL1        0.1256
      7 N          -4.4074  -20.1628   20.2312 N.ar    1  UNL1       -0.1288
      8 N          -5.8031  -20.6162   20.5415 N.ar    1  UNL1       -0.0639
      9 N          -6.3081  -19.8040   21.6971 N.ar    1  UNL1       -0.2318
     10 F          -0.4567  -18.6926   19.5525 F       1  UNL1       -0.1658
     11 C          -1.6314  -18.4708   20.4585 C.3     1  UNL1        0.4201
     12 F          -1.5102  -19.8791   20.9605 F       1  UNL1       -0.1658
     13 F          -1.7527  -17.0625   19.9565 F       1  UNL1       -0.1658
     14 C          -7.6595  -19.9257   22.3366 C.3     1  UNL1        0.1291
     15 C          -8.6158  -18.7708   22.2947 C.3     1  UNL1        0.0245
     16 C         -10.0217  -18.2477   22.2953 C.3     1  UNL1        0.0021
     17 C          -8.8665  -17.2937   22.2215 C.3     1  UNL1        0.0021
@<TRIPOS>BOND
     1    10    11    1
     2    11    12    1
     3    11    13    1
     4    11     1    1
     5     1     2   ar
     6     2     3   ar
     7     3     4   ar
     8     4     5   ar
     9     5     6   ar
    10     6     7   ar
    11     7     8   ar
    12     8     9   ar
    13     9    14    1
    14    14    15    1
    15    15    16    1
    16    16    17    1
    17     6     1   ar
    18    17    15    1
    19     9     5   ar
