@<TRIPOS>MOLECULE
*****
 34 38 0 0 0
SMALL
GASTEIGER

@<TRIPOS>ATOM
      1 C          -1.2421    2.6058   25.8716 C.2     1  UNL1       -0.0144
      2 C          -1.0440    2.0565   27.2534 C.2     1  UNL1        0.0893
      3 C           0.1710    1.3924   27.8305 C.2     1  UNL1        0.3693
      4 N          -0.0512    0.9889   29.2580 N.2     1  UNL1        0.1553
      5 O           1.0435    0.3065   30.0235 O.2     1  UNL1       -0.2749
      6 C           2.3603    0.0276   29.3615 C.3     1  UNL1        0.2929
      7 C           2.5824    0.4312   27.9339 C.3     1  UNL1        0.2564
      8 N           1.4877    1.1137   27.1685 N.pl3   1  UNL1       -0.1835
      9 C           1.9149    1.4300   25.7658 C.3     1  UNL1        0.2029
     10 C           1.1307    2.1033   24.6787 C.3     1  UNL1        0.0555
     11 C          -0.2743    2.6266   24.7259 C.3     1  UNL1        0.0309
     12 C           3.4550   -0.6548   30.1269 C.ar    1  UNL1        0.0312
     13 C           3.2898   -0.9238   31.5932 C.ar    1  UNL1        0.0316
     14 C           4.3846   -1.6063   32.3586 C.ar    1  UNL1        0.1694
     15 F           4.2193   -1.8754   33.8250 F       1  UNL1       -0.2017
     16 C           5.6446   -2.0196   31.6575 C.ar    1  UNL1        0.1946
     17 F           6.7394   -2.7020   32.4229 F       1  UNL1       -0.1994
     18 C           5.8099   -1.7506   30.1912 C.ar    1  UNL1        0.1694
     19 F           7.0698   -2.1639   29.4902 F       1  UNL1       -0.2017
     20 C           4.7151   -1.0681   29.4258 C.ar    1  UNL1        0.0316
     21 C          -4.4466    3.9026   23.9224 C.ar    1  UNL1        0.1547
     22 C          -3.1029    3.2937   24.1941 C.ar    1  UNL1        0.0381
     23 C          -2.5857    3.2147   25.5998 C.ar    1  UNL1       -0.0006
     24 C          -3.4121    3.7446   26.7339 C.ar    1  UNL1        0.0014
     25 C          -4.7558    4.3536   26.4623 C.ar    1  UNL1        0.0206
     26 C          -5.2730    4.4326   25.0564 C.ar    1  UNL1        0.0994
     27 N          -6.6166    5.0415   24.7848 N.ar    1  UNL1       -0.2839
     28 C          -7.6743    4.4772   23.8830 C.ar    1  UNL1        0.1826
     29 N          -8.8499    5.4086   23.9081 N.ar    1  UNL1       -0.2280
     30 C          -8.5188    6.5484   24.8252 C.ar    1  UNL1        0.0786
     31 C          -9.4112    7.7110   25.1445 C.3     1  UNL1        0.0538
     32 C          -7.1385    6.3215   25.3671 C.ar    1  UNL1        0.0963
     33 C          -4.2680    3.2336   21.4183 C.3     1  UNL1        0.2525
     34 O          -4.9638    3.9816   22.5166 O.3     1  UNL1       -0.4700
@<TRIPOS>BOND
     1    33    34    1
     2    34    21    1
     3    21    22   ar
     4    22    23   ar
     5    23     1    1
     6     1     2    2
     7     2     3    1
     8     3     4    2
     9     4     5    1
    10     5     6    1
    11     6    12    1
    12    12    13   ar
    13    13    14   ar
    14    14    15    1
    15    14    16   ar
    16    16    17    1
    17    16    18   ar
    18    18    19    1
    19    18    20   ar
    20     6     7    1
    21     7     8    1
    22     8     9    1
    23     9    10    1
    24    10    11    1
    25    23    24   ar
    26    24    25   ar
    27    25    26   ar
    28    26    27    1
    29    27    28   ar
    30    28    29   ar
    31    29    30   ar
    32    30    31    1
    33    30    32   ar
    34    26    21   ar
    35    32    27   ar
    36    11     1    1
    37     8     3    1
    38    20    12   ar
@<TRIPOS>MOLECULE
*****
 34 38 0 0 0
SMALL
GASTEIGER

@<TRIPOS>ATOM
      1 C           2.9735    0.8603   29.1682 C.2     1  UNL1       -0.0144
      2 C           3.6627   -0.1603   28.3118 C.2     1  UNL1        0.0893
      3 C           3.5281   -0.3865   26.8350 C.2     1  UNL1        0.3693
      4 N           4.3995   -1.5163   26.3721 N.2     1  UNL1        0.1553
      5 O           4.4138   -1.9077   24.9241 O.2     1  UNL1       -0.2749
      6 C           3.5568   -1.1693   23.9391 C.3     1  UNL1        0.2929
      7 C           2.6855   -0.0394   24.4020 C.3     1  UNL1        0.2564
      8 N           2.6712    0.3519   25.8501 N.pl3   1  UNL1       -0.1835
      9 C           1.7371    1.4990   26.0984 C.3     1  UNL1        0.2029
     10 C           1.4293    2.1909   27.3932 C.3     1  UNL1        0.0555
     11 C           1.9796    1.9066   28.7594 C.3     1  UNL1        0.0309
     12 C           3.5711   -1.5606   22.4911 C.ar    1  UNL1        0.0312
     13 C           4.4248   -2.7051   22.0318 C.ar    1  UNL1        0.0316
     14 C           4.4391   -3.0964   20.5838 C.ar    1  UNL1        0.1694
     15 F           5.2929   -4.2410   20.1245 F       1  UNL1       -0.2017
     16 C           3.5995   -2.3430   19.5951 C.ar    1  UNL1        0.1946
     17 F           3.6137   -2.7342   18.1471 F       1  UNL1       -0.1994
     18 C           2.7457   -1.1984   20.0543 C.ar    1  UNL1        0.1694
     19 F           1.9062   -0.4451   19.0657 F       1  UNL1       -0.2017
     20 C           2.7315   -0.8072   21.5024 C.ar    1  UNL1        0.0316
     21 C           3.7111   -0.5055   32.8207 C.ar    1  UNL1        0.1547
     22 C           3.3598   -0.4758   31.3626 C.ar    1  UNL1        0.0381
     23 C           3.3247    0.8305   30.6262 C.ar    1  UNL1       -0.0006
     24 C           3.6409    2.1070   31.3477 C.ar    1  UNL1        0.0014
     25 C           3.9922    2.0773   32.8057 C.ar    1  UNL1        0.0206
     26 C           4.0273    0.7710   33.5422 C.ar    1  UNL1        0.0994
     27 N           4.3785    0.7412   35.0001 N.ar    1  UNL1       -0.2839
     28 C           5.5615    0.0475   35.6081 C.ar    1  UNL1        0.1826
     29 N           5.5225    0.2775   37.0898 N.ar    1  UNL1       -0.2280
     30 C           4.3157    1.1134   37.3976 C.ar    1  UNL1        0.0786
     31 C           3.8905    1.5806   38.7582 C.3     1  UNL1        0.0538
     32 C           3.6086    1.4000   36.1061 C.ar    1  UNL1        0.0963
     33 C           4.7818   -2.8402   33.2113 C.3     1  UNL1        0.2525
     34 O           3.7461   -1.8118   33.5572 O.3     1  UNL1       -0.4700
@<TRIPOS>BOND
     1    33    34    1
     2    34    21    1
     3    21    22   ar
     4    22    23   ar
     5    23     1    1
     6     1     2    2
     7     2     3    1
     8     3     4    2
     9     4     5    1
    10     5     6    1
    11     6    12    1
    12    12    13   ar
    13    13    14   ar
    14    14    15    1
    15    14    16   ar
    16    16    17    1
    17    16    18   ar
    18    18    19    1
    19    18    20   ar
    20     6     7    1
    21     7     8    1
    22     8     9    1
    23     9    10    1
    24    10    11    1
    25    23    24   ar
    26    24    25   ar
    27    25    26   ar
    28    26    27    1
    29    27    28   ar
    30    28    29   ar
    31    29    30   ar
    32    30    31    1
    33    30    32   ar
    34    26    21   ar
    35    32    27   ar
    36    11     1    1
    37     8     3    1
    38    20    12   ar
@<TRIPOS>MOLECULE
*****
 34 38 0 0 0
SMALL
GASTEIGER

@<TRIPOS>ATOM
      1 C           1.9774    0.9628   29.4200 C.2     1  UNL1       -0.0144
      2 C           2.7642    0.6152   28.1910 C.2     1  UNL1        0.0893
      3 C           2.3268    0.6601   26.7568 C.2     1  UNL1        0.3693
      4 N           3.4285    0.2294   25.8344 N.2     1  UNL1        0.1553
      5 O           3.1980    0.2021   24.3524 O.2     1  UNL1       -0.2749
      6 C           1.8660    0.6055   23.7930 C.3     1  UNL1        0.2929
      7 C           0.7644    1.0362   24.7155 C.3     1  UNL1        0.2564
      8 N           0.9949    1.0635   26.1975 N.pl3   1  UNL1       -0.1835
      9 C          -0.2289    1.5217   26.9340 C.3     1  UNL1        0.2029
     10 C          -0.4228    1.6898   28.4119 C.3     1  UNL1        0.0555
     11 C           0.5591    1.4410   29.5182 C.3     1  UNL1        0.0309
     12 C           1.6355    0.5783   22.3111 C.ar    1  UNL1        0.0312
     13 C           2.3595   -0.4203   21.4576 C.ar    1  UNL1        0.0316
     14 C           2.1289   -0.4475   19.9756 C.ar    1  UNL1        0.1694
     15 F           2.8530   -1.4462   19.1221 F       1  UNL1       -0.2017
     16 C           1.1743    0.5240   19.3473 C.ar    1  UNL1        0.1946
     17 F           0.9437    0.4968   17.8653 F       1  UNL1       -0.1994
     18 C           0.4502    1.5227   20.2007 C.ar    1  UNL1        0.1694
     19 F          -0.5043    2.4941   19.5723 F       1  UNL1       -0.2017
     20 C           0.6808    1.5498   21.6827 C.ar    1  UNL1        0.0316
     21 C           3.7181   -0.7059   32.5721 C.ar    1  UNL1        0.1547
     22 C           2.9901   -0.5554   31.2692 C.ar    1  UNL1        0.0381
     23 C           2.7053    0.8122   30.7229 C.ar    1  UNL1       -0.0006
     24 C           3.1483    2.0293   31.4794 C.ar    1  UNL1        0.0014
     25 C           3.8762    1.8789   32.7823 C.ar    1  UNL1        0.0206
     26 C           4.1611    0.5112   33.3287 C.ar    1  UNL1        0.0994
     27 N           4.8890    0.3607   34.6315 N.ar    1  UNL1       -0.2839
     28 C           4.2832    0.4793   35.9987 C.ar    1  UNL1        0.1826
     29 N           5.3703    0.2570   37.0081 N.ar    1  UNL1       -0.2280
     30 C           6.6478    0.0011   36.2648 C.ar    1  UNL1        0.0786
     31 C           7.9876   -0.2710   36.8820 C.3     1  UNL1        0.0538
     32 C           6.3504    0.0652   34.7960 C.ar    1  UNL1        0.0963
     33 C           5.2714   -2.7813   32.7443 C.3     1  UNL1        0.2525
     34 O           4.0029   -2.0735   33.1184 O.3     1  UNL1       -0.4700
@<TRIPOS>BOND
     1    33    34    1
     2    34    21    1
     3    21    22   ar
     4    22    23   ar
     5    23     1    1
     6     1     2    2
     7     2     3    1
     8     3     4    2
     9     4     5    1
    10     5     6    1
    11     6    12    1
    12    12    13   ar
    13    13    14   ar
    14    14    15    1
    15    14    16   ar
    16    16    17    1
    17    16    18   ar
    18    18    19    1
    19    18    20   ar
    20     6     7    1
    21     7     8    1
    22     8     9    1
    23     9    10    1
    24    10    11    1
    25    23    24   ar
    26    24    25   ar
    27    25    26   ar
    28    26    27    1
    29    27    28   ar
    30    28    29   ar
    31    29    30   ar
    32    30    31    1
    33    30    32   ar
    34    26    21   ar
    35    32    27   ar
    36    11     1    1
    37     8     3    1
    38    20    12   ar
@<TRIPOS>MOLECULE
*****
 34 38 0 0 0
SMALL
GASTEIGER

@<TRIPOS>ATOM
      1 C           6.3040   -3.1440   31.6184 C.2     1  UNL1       -0.0144
      2 C           6.3535   -2.5657   30.2351 C.2     1  UNL1        0.0893
      3 C           6.7425   -3.2402   28.9529 C.2     1  UNL1        0.3693
      4 N           6.6548   -2.2975   27.7895 N.2     1  UNL1        0.1553
      5 O           7.0027   -2.7739   26.4103 O.2     1  UNL1       -0.2749
      6 C           7.4383   -4.1930   26.1947 C.3     1  UNL1        0.2929
      7 C           7.5261   -5.1356   27.3583 C.3     1  UNL1        0.2564
      8 N           7.1781   -4.6591   28.7374 N.pl3   1  UNL1       -0.1835
      9 C           7.3323   -5.7544   29.7507 C.3     1  UNL1        0.2029
     10 C           7.0889   -5.7010   31.2298 C.3     1  UNL1        0.0555
     11 C           6.6313   -4.5392   32.0610 C.3     1  UNL1        0.0309
     12 C           7.7863   -4.6695   24.8157 C.ar    1  UNL1        0.0312
     13 C           8.4428   -6.0048   24.6269 C.ar    1  UNL1        0.0316
     14 C           8.7907   -6.4813   23.2477 C.ar    1  UNL1        0.1694
     15 F           9.4472   -7.8167   23.0589 F       1  UNL1       -0.2017
     16 C           8.4820   -5.6223   22.0574 C.ar    1  UNL1        0.1946
     17 F           8.8299   -6.0987   20.6783 F       1  UNL1       -0.1994
     18 C           7.8255   -4.2869   22.2461 C.ar    1  UNL1        0.1694
     19 F           7.5168   -3.4280   21.0559 F       1  UNL1       -0.2017
     20 C           7.4776   -3.8105   23.6253 C.ar    1  UNL1        0.0316
     21 C           6.3478   -0.1558   34.2298 C.ar    1  UNL1        0.1547
     22 C           6.7821   -1.0975   33.1459 C.ar    1  UNL1        0.0381
     23 C           5.8697   -2.2023   32.7022 C.ar    1  UNL1       -0.0006
     24 C           4.5230   -2.3654   33.3422 C.ar    1  UNL1        0.0014
     25 C           4.0886   -1.4237   34.4260 C.ar    1  UNL1        0.0206
     26 C           5.0011   -0.3189   34.8698 C.ar    1  UNL1        0.0994
     27 N           4.5668    0.6227   35.9535 N.ar    1  UNL1       -0.2839
     28 C           5.0186    0.5897   37.3836 C.ar    1  UNL1        0.1826
     29 N           4.3354    1.7094   38.1114 N.ar    1  UNL1       -0.2280
     30 C           3.4614    2.4343   37.1313 C.ar    1  UNL1        0.0786
     31 C           2.5963    3.6222   37.4321 C.3     1  UNL1        0.0538
     32 C           3.6044    1.7627   35.7977 C.ar    1  UNL1        0.0963
     33 C           7.0637    2.3403   34.1488 C.3     1  UNL1        0.2525
     34 O           7.2602    0.9489   34.6735 O.3     1  UNL1       -0.4700
@<TRIPOS>BOND
     1    33    34    1
     2    34    21    1
     3    21    22   ar
     4    22    23   ar
     5    23     1    1
     6     1     2    2
     7     2     3    1
     8     3     4    2
     9     4     5    1
    10     5     6    1
    11     6    12    1
    12    12    13   ar
    13    13    14   ar
    14    14    15    1
    15    14    16   ar
    16    16    17    1
    17    16    18   ar
    18    18    19    1
    19    18    20   ar
    20     6     7    1
    21     7     8    1
    22     8     9    1
    23     9    10    1
    24    10    11    1
    25    23    24   ar
    26    24    25   ar
    27    25    26   ar
    28    26    27    1
    29    27    28   ar
    30    28    29   ar
    31    29    30   ar
    32    30    31    1
    33    30    32   ar
    34    26    21   ar
    35    32    27   ar
    36    11     1    1
    37     8     3    1
    38    20    12   ar
@<TRIPOS>MOLECULE
*****
 34 38 0 0 0
SMALL
GASTEIGER

@<TRIPOS>ATOM
      1 C           4.7254   -0.2746   31.5844 C.2     1  UNL1       -0.0144
      2 C           5.4228   -1.5984   31.4776 C.2     1  UNL1        0.0893
      3 C           5.7862   -2.3671   30.2418 C.2     1  UNL1        0.3693
      4 N           6.4795   -3.6533   30.5806 N.2     1  UNL1        0.1553
      5 O           6.9286   -4.5744   29.4851 O.2     1  UNL1       -0.2749
      6 C           6.6843   -4.2091   28.0509 C.3     1  UNL1        0.2929
      7 C           5.9910   -2.9228   27.7121 C.3     1  UNL1        0.2564
      8 N           5.5419   -2.0018   28.8077 N.pl3   1  UNL1       -0.1835
      9 C           4.8740   -0.7776   28.2550 C.3     1  UNL1        0.2029
     10 C           4.2853    0.3835   29.0001 C.3     1  UNL1        0.0555
     11 C           4.2193    0.6073   30.4819 C.3     1  UNL1        0.0309
     12 C           7.1334   -5.1301   26.9554 C.ar    1  UNL1        0.0312
     13 C           7.5687   -6.5278   27.2819 C.ar    1  UNL1        0.0316
     14 C           8.0178   -7.4488   26.1863 C.ar    1  UNL1        0.1694
     15 F           8.4532   -8.8466   26.5128 F       1  UNL1       -0.2017
     16 C           8.0314   -6.9718   24.7642 C.ar    1  UNL1        0.1946
     17 F           8.4804   -7.8927   23.6686 F       1  UNL1       -0.1994
     18 C           7.5960   -5.5741   24.4376 C.ar    1  UNL1        0.1694
     19 F           7.6097   -5.0972   23.0156 F       1  UNL1       -0.2017
     20 C           7.1470   -4.6532   25.5332 C.ar    1  UNL1        0.0316
     21 C           5.0491    0.1481   35.5172 C.ar    1  UNL1        0.1547
     22 C           5.2694   -0.3609   34.1234 C.ar    1  UNL1        0.0381
     23 C           4.5052    0.2343   32.9782 C.ar    1  UNL1       -0.0006
     24 C           3.5208    1.3385   33.2265 C.ar    1  UNL1        0.0014
     25 C           3.3004    1.8475   34.6202 C.ar    1  UNL1        0.0206
     26 C           4.0646    1.2522   35.7656 C.ar    1  UNL1        0.0994
     27 N           3.8444    1.7612   37.1592 N.ar    1  UNL1       -0.2839
     28 C           3.0381    1.0844   38.2279 C.ar    1  UNL1        0.1826
     29 N           3.0871    1.9412   39.4581 N.ar    1  UNL1       -0.2280
     30 C           3.9236    3.1476   39.1498 C.ar    1  UNL1        0.0786
     31 C           4.2370    4.2684   40.0961 C.3     1  UNL1        0.0538
     32 C           4.3916    3.0363   37.7290 C.ar    1  UNL1        0.0963
     33 C           7.2836   -0.1845   36.8002 C.3     1  UNL1        0.2525
     34 O           5.8132   -0.4471   36.6625 O.3     1  UNL1       -0.4700
@<TRIPOS>BOND
     1    33    34    1
     2    34    21    1
     3    21    22   ar
     4    22    23   ar
     5    23     1    1
     6     1     2    2
     7     2     3    1
     8     3     4    2
     9     4     5    1
    10     5     6    1
    11     6    12    1
    12    12    13   ar
    13    13    14   ar
    14    14    15    1
    15    14    16   ar
    16    16    17    1
    17    16    18   ar
    18    18    19    1
    19    18    20   ar
    20     6     7    1
    21     7     8    1
    22     8     9    1
    23     9    10    1
    24    10    11    1
    25    23    24   ar
    26    24    25   ar
    27    25    26   ar
    28    26    27    1
    29    27    28   ar
    30    28    29   ar
    31    29    30   ar
    32    30    31    1
    33    30    32   ar
    34    26    21   ar
    35    32    27   ar
    36    11     1    1
    37     8     3    1
    38    20    12   ar
@<TRIPOS>MOLECULE
*****
 34 38 0 0 0
SMALL
GASTEIGER

@<TRIPOS>ATOM
      1 C           2.9517    0.0253   26.6865 C.2     1  UNL1       -0.0144
      2 C           3.7542   -0.4059   27.8782 C.2     1  UNL1        0.0893
      3 C           3.6060    0.0194   29.3091 C.2     1  UNL1        0.3693
      4 N           4.6172   -0.6543   30.1885 N.2     1  UNL1        0.1553
      5 O           4.6414   -0.3666   31.6604 O.2     1  UNL1       -0.2749
      6 C           3.6542    0.5950   32.2529 C.3     1  UNL1        0.2929
      7 C           2.6429    1.2687   31.3734 C.3     1  UNL1        0.2564
      8 N           2.6189    0.9809   29.9014 N.pl3   1  UNL1       -0.1835
      9 C           1.5360    1.7546   29.2095 C.3     1  UNL1        0.2029
     10 C           1.1729    1.7579   27.7541 C.3     1  UNL1        0.0555
     11 C           1.8030    0.9883   26.6313 C.3     1  UNL1        0.0309
     12 C           3.6782    0.8828   33.7248 C.ar    1  UNL1        0.0312
     13 C           2.8018    1.9593   34.2930 C.ar    1  UNL1        0.0316
     14 C           2.8259    2.2471   35.7650 C.ar    1  UNL1        0.1694
     15 F           1.9494    3.3238   36.3331 F       1  UNL1       -0.2017
     16 C           3.7264    1.4583   36.6687 C.ar    1  UNL1        0.1946
     17 F           3.7505    1.7460   38.1406 F       1  UNL1       -0.1994
     18 C           4.6028    0.3817   36.1006 C.ar    1  UNL1        0.1694
     19 F           5.5033   -0.4071   37.0043 F       1  UNL1       -0.2017
     20 C           4.5787    0.0939   34.6286 C.ar    1  UNL1        0.0316
     21 C           4.7507   -2.3173   24.0358 C.ar    1  UNL1        0.1547
     22 C           4.3515   -1.7045   25.3455 C.ar    1  UNL1        0.0381
     23 C           3.3509   -0.5875   25.3769 C.ar    1  UNL1       -0.0006
     24 C           2.7493   -0.0833   24.0986 C.ar    1  UNL1        0.0014
     25 C           3.1484   -0.6961   22.7889 C.ar    1  UNL1        0.0206
     26 C           4.1491   -1.8131   22.7576 C.ar    1  UNL1        0.0994
     27 N           4.5482   -2.4259   21.4480 N.ar    1  UNL1       -0.2839
     28 C           5.4262   -1.7928   20.4095 C.ar    1  UNL1        0.1826
     29 N           5.5600   -2.7550   19.2665 N.ar    1  UNL1       -0.2280
     30 C           4.7648   -3.9827   19.5986 C.ar    1  UNL1        0.0786
     31 C           4.6203   -5.2001   18.7343 C.3     1  UNL1        0.0538
     32 C           4.1394   -3.7793   20.9468 C.ar    1  UNL1        0.0963
     33 C           6.6351   -3.6830   25.1906 C.3     1  UNL1        0.2525
     34 O           5.7513   -3.4342   24.0044 O.3     1  UNL1       -0.4700
@<TRIPOS>BOND
     1    33    34    1
     2    34    21    1
     3    21    22   ar
     4    22    23   ar
     5    23     1    1
     6     1     2    2
     7     2     3    1
     8     3     4    2
     9     4     5    1
    10     5     6    1
    11     6    12    1
    12    12    13   ar
    13    13    14   ar
    14    14    15    1
    15    14    16   ar
    16    16    17    1
    17    16    18   ar
    18    18    19    1
    19    18    20   ar
    20     6     7    1
    21     7     8    1
    22     8     9    1
    23     9    10    1
    24    10    11    1
    25    23    24   ar
    26    24    25   ar
    27    25    26   ar
    28    26    27    1
    29    27    28   ar
    30    28    29   ar
    31    29    30   ar
    32    30    31    1
    33    30    32   ar
    34    26    21   ar
    35    32    27   ar
    36    11     1    1
    37     8     3    1
    38    20    12   ar
@<TRIPOS>MOLECULE
*****
 34 38 0 0 0
SMALL
GASTEIGER

@<TRIPOS>ATOM
      1 C           1.5933    0.8940   25.4449 C.2     1  UNL1       -0.0144
      2 C           2.4678    0.9583   26.6620 C.2     1  UNL1        0.0893
      3 C           2.1439    1.5120   28.0180 C.2     1  UNL1        0.3693
      4 N           3.3071    1.3798   28.9559 N.2     1  UNL1        0.1553
      5 O           3.1921    1.8737   30.3676 O.2     1  UNL1       -0.2749
      6 C           1.9140    2.4998   30.8414 C.3     1  UNL1        0.2929
      7 C           0.7508    2.6319   29.9034 C.3     1  UNL1        0.2564
      8 N           0.8659    2.1380   28.4917 N.pl3   1  UNL1       -0.1835
      9 C          -0.4042    2.3650   27.7266 C.3     1  UNL1        0.2029
     10 C          -0.7097    2.0221   26.2986 C.3     1  UNL1        0.0555
     11 C           0.1793    1.3674   25.2832 C.3     1  UNL1        0.0309
     12 C           1.7989    2.9937   32.2530 C.ar    1  UNL1        0.0312
     13 C           2.4188    2.2130   33.3737 C.ar    1  UNL1        0.0316
     14 C           2.3037    2.7070   34.7854 C.ar    1  UNL1        0.1694
     15 F           2.9236    1.9262   35.9062 F       1  UNL1       -0.2017
     16 C           1.5686    3.9817   35.0762 C.ar    1  UNL1        0.1946
     17 F           1.4535    4.4758   36.4879 F       1  UNL1       -0.1994
     18 C           0.9487    4.7626   33.9555 C.ar    1  UNL1        0.1694
     19 F           0.2136    6.0373   34.2464 F       1  UNL1       -0.2017
     20 C           1.0638    4.2685   32.5439 C.ar    1  UNL1        0.0316
     21 C           2.4605    0.1434   21.6455 C.ar    1  UNL1        0.1547
     22 C           1.8384    0.7632   22.8617 C.ar    1  UNL1        0.0381
     23 C           2.2154    0.2743   24.2287 C.ar    1  UNL1       -0.0006
     24 C           3.2145   -0.8343   24.3797 C.ar    1  UNL1        0.0014
     25 C           3.8366   -1.4541   23.1636 C.ar    1  UNL1        0.0206
     26 C           3.4596   -0.9652   21.7965 C.ar    1  UNL1        0.0994
     27 N           4.0817   -1.5849   20.5805 N.ar    1  UNL1       -0.2839
     28 C           3.4461   -2.6127   19.6916 C.ar    1  UNL1        0.1826
     29 N           4.4202   -2.9486   18.6015 N.ar    1  UNL1       -0.2280
     30 C           5.6576   -2.1287   18.8166 C.ar    1  UNL1        0.0786
     31 C           6.8883   -2.1481   17.9592 C.3     1  UNL1        0.0538
     32 C           5.4485   -1.2858   20.0397 C.ar    1  UNL1        0.0963
     33 C           0.8694    0.0794   19.5927 C.3     1  UNL1        0.2525
     34 O           2.0835    0.6323   20.2785 O.3     1  UNL1       -0.4700
@<TRIPOS>BOND
     1    33    34    1
     2    34    21    1
     3    21    22   ar
     4    22    23   ar
     5    23     1    1
     6     1     2    2
     7     2     3    1
     8     3     4    2
     9     4     5    1
    10     5     6    1
    11     6    12    1
    12    12    13   ar
    13    13    14   ar
    14    14    15    1
    15    14    16   ar
    16    16    17    1
    17    16    18   ar
    18    18    19    1
    19    18    20   ar
    20     6     7    1
    21     7     8    1
    22     8     9    1
    23     9    10    1
    24    10    11    1
    25    23    24   ar
    26    24    25   ar
    27    25    26   ar
    28    26    27    1
    29    27    28   ar
    30    28    29   ar
    31    29    30   ar
    32    30    31    1
    33    30    32   ar
    34    26    21   ar
    35    32    27   ar
    36    11     1    1
    37     8     3    1
    38    20    12   ar
@<TRIPOS>MOLECULE
*****
 34 38 0 0 0
SMALL
GASTEIGER

@<TRIPOS>ATOM
      1 C           3.0789   -0.0477   26.6305 C.2     1  UNL1       -0.0144
      2 C           3.8536   -0.4937   27.8351 C.2     1  UNL1        0.0893
      3 C           3.6968   -0.0581   29.2619 C.2     1  UNL1        0.3693
      4 N           4.6783   -0.7534   30.1581 N.2     1  UNL1        0.1553
      5 O           4.6896   -0.4594   31.6290 O.2     1  UNL1       -0.2749
      6 C           3.7194    0.5298   32.2036 C.3     1  UNL1        0.2929
      7 C           2.7379    1.2252   31.3073 C.3     1  UNL1        0.2564
      8 N           2.7267    0.9311   29.8364 N.pl3   1  UNL1       -0.1835
      9 C           1.6736    1.7291   29.1262 C.3     1  UNL1        0.2029
     10 C           1.3307    1.7349   27.6659 C.3     1  UNL1        0.0555
     11 C           1.9562    0.9441   26.5552 C.3     1  UNL1        0.0309
     12 C           3.7307    0.8238   33.6744 C.ar    1  UNL1        0.0312
     13 C           4.6250    0.0407   34.5890 C.ar    1  UNL1        0.0316
     14 C           4.6362    0.3348   36.0599 C.ar    1  UNL1        0.1694
     15 F           5.5307   -0.4484   36.9746 F       1  UNL1       -0.2017
     16 C           3.7530    1.4120   36.6161 C.ar    1  UNL1        0.1946
     17 F           3.7641    1.7062   38.0869 F       1  UNL1       -0.1994
     18 C           2.8585    2.1953   35.7015 C.ar    1  UNL1        0.1694
     19 F           1.9753    3.2725   36.2576 F       1  UNL1       -0.2017
     20 C           2.8474    1.9012   34.2306 C.ar    1  UNL1        0.0316
     21 C           3.1585   -0.9423   22.7648 C.ar    1  UNL1        0.1547
     22 C           2.7572   -0.3132   24.0661 C.ar    1  UNL1        0.0381
     23 C           3.4801   -0.6767   25.3292 C.ar    1  UNL1       -0.0006
     24 C           4.6041   -1.6692   25.2910 C.ar    1  UNL1        0.0014
     25 C           5.0054   -2.2983   23.9898 C.ar    1  UNL1        0.0206
     26 C           4.2825   -1.9348   22.7266 C.ar    1  UNL1        0.0994
     27 N           4.6838   -2.5638   21.4254 N.ar    1  UNL1       -0.2839
     28 C           5.6378   -1.9845   20.4232 C.ar    1  UNL1        0.1826
     29 N           5.7451   -2.9453   19.2763 N.ar    1  UNL1       -0.2280
     30 C           4.8575   -4.1183   19.5696 C.ar    1  UNL1        0.0786
     31 C           4.6603   -5.3167   18.6892 C.3     1  UNL1        0.0538
     32 C           4.2015   -3.8826   20.8978 C.ar    1  UNL1        0.0963
     33 C           2.8815    0.6057   20.6968 C.3     1  UNL1        0.2525
     34 O           2.4357   -0.5789   21.5017 O.3     1  UNL1       -0.4700
@<TRIPOS>BOND
     1    33    34    1
     2    34    21    1
     3    21    22   ar
     4    22    23   ar
     5    23     1    1
     6     1     2    2
     7     2     3    1
     8     3     4    2
     9     4     5    1
    10     5     6    1
    11     6    12    1
    12    12    13   ar
    13    13    14   ar
    14    14    15    1
    15    14    16   ar
    16    16    17    1
    17    16    18   ar
    18    18    19    1
    19    18    20   ar
    20     6     7    1
    21     7     8    1
    22     8     9    1
    23     9    10    1
    24    10    11    1
    25    23    24   ar
    26    24    25   ar
    27    25    26   ar
    28    26    27    1
    29    27    28   ar
    30    28    29   ar
    31    29    30   ar
    32    30    31    1
    33    30    32   ar
    34    26    21   ar
    35    32    27   ar
    36    11     1    1
    37     8     3    1
    38    20    12   ar
@<TRIPOS>MOLECULE
*****
 34 38 0 0 0
SMALL
GASTEIGER

@<TRIPOS>ATOM
      1 C          -0.6455    2.6096   26.0970 C.2     1  UNL1       -0.0144
      2 C          -0.7385    2.4181   27.5818 C.2     1  UNL1        0.0893
      3 C           0.2965    1.8735   28.5212 C.2     1  UNL1        0.3693
      4 N          -0.2044    1.8507   29.9349 N.2     1  UNL1        0.1553
      5 O           0.6783    1.3405   31.0352 O.2     1  UNL1       -0.2749
      6 C           2.0618    0.8530   30.7217 C.3     1  UNL1        0.2929
      7 C           2.5627    0.8758   29.3079 C.3     1  UNL1        0.2564
      8 N           1.6799    1.3860   28.2077 N.pl3   1  UNL1       -0.1835
      9 C           2.3702    1.3227   26.8774 C.3     1  UNL1        0.2029
     10 C           1.8475    1.7312   25.5321 C.3     1  UNL1        0.0555
     11 C           0.5053    2.3039   25.1849 C.3     1  UNL1        0.0309
     12 C           2.9445    0.3427   31.8218 C.ar    1  UNL1        0.0312
     13 C           3.5785   -1.0118   31.7076 C.ar    1  UNL1        0.0316
     14 C           4.4612   -1.5221   32.8078 C.ar    1  UNL1        0.1694
     15 F           5.0952   -2.8767   32.6935 F       1  UNL1       -0.2017
     16 C           4.7099   -0.6776   34.0223 C.ar    1  UNL1        0.1946
     17 F           5.5926   -1.1878   35.1226 F       1  UNL1       -0.1994
     18 C           4.0759    0.6770   34.1367 C.ar    1  UNL1        0.1694
     19 F           4.3246    1.5214   35.3512 F       1  UNL1       -0.2017
     20 C           3.1932    1.1872   33.0364 C.ar    1  UNL1        0.0316
     21 C          -4.2689    4.1525   25.6066 C.ar    1  UNL1        0.1547
     22 C          -3.0498    3.5795   26.2665 C.ar    1  UNL1        0.0381
     23 C          -1.8646    3.1826   25.4372 C.ar    1  UNL1       -0.0006
     24 C          -1.8986    3.3587   23.9479 C.ar    1  UNL1        0.0014
     25 C          -3.1177    3.9318   23.2880 C.ar    1  UNL1        0.0206
     26 C          -4.3029    4.3287   24.1174 C.ar    1  UNL1        0.0994
     27 N          -5.5220    4.9016   23.4576 N.ar    1  UNL1       -0.2839
     28 C          -6.7730    4.1497   23.1117 C.ar    1  UNL1        0.1826
     29 N          -7.7283    5.1105   22.4681 N.ar    1  UNL1       -0.2280
     30 C          -7.0677    6.4562   22.4162 C.ar    1  UNL1        0.0786
     31 C          -7.6658    7.7108   21.8519 C.3     1  UNL1        0.0538
     32 C          -5.7041    6.3272   23.0278 C.ar    1  UNL1        0.0963
     33 C          -5.5985    5.9657   26.9084 C.3     1  UNL1        0.2525
     34 O          -5.4541    4.5494   26.4360 O.3     1  UNL1       -0.4700
@<TRIPOS>BOND
     1    33    34    1
     2    34    21    1
     3    21    22   ar
     4    22    23   ar
     5    23     1    1
     6     1     2    2
     7     2     3    1
     8     3     4    2
     9     4     5    1
    10     5     6    1
    11     6    12    1
    12    12    13   ar
    13    13    14   ar
    14    14    15    1
    15    14    16   ar
    16    16    17    1
    17    16    18   ar
    18    18    19    1
    19    18    20   ar
    20     6     7    1
    21     7     8    1
    22     8     9    1
    23     9    10    1
    24    10    11    1
    25    23    24   ar
    26    24    25   ar
    27    25    26   ar
    28    26    27    1
    29    27    28   ar
    30    28    29   ar
    31    29    30   ar
    32    30    31    1
    33    30    32   ar
    34    26    21   ar
    35    32    27   ar
    36    11     1    1
    37     8     3    1
    38    20    12   ar
