@<TRIPOS>MOLECULE
*****
 34 36 0 0 0
SMALL
GASTEIGER

@<TRIPOS>ATOM
      1 C          -8.1142  -16.4724   25.0664 C.ar    1  UNL1        0.0528
      2 C          -7.0567  -16.6037   24.0107 C.ar    1  UNL1        0.0167
      3 C          -5.7272  -15.9339   24.1936 C.ar    1  UNL1        0.0505
      4 C          -5.4551  -15.1326   25.4322 C.ar    1  UNL1        0.0170
      5 C          -6.5126  -15.0012   26.4878 C.ar    1  UNL1        0.0307
      6 C          -7.8422  -15.6711   26.3049 C.ar    1  UNL1        0.1402
      7 F          -8.8997  -15.5397   27.3606 F       1  UNL1       -0.2044
      8 C          -9.0040  -17.7823   26.1668 C.3     1  UNL1        0.0607
      9 C          -9.4439  -17.1423   24.8835 C.3     1  UNL1        0.2223
     10 C          -9.4219  -16.2696   23.6637 C.3     1  UNL1        0.1959
     11 O         -10.5768  -16.2891   22.7068 O.3     1  UNL1       -0.3357
     12 C         -11.7537  -17.1813   22.9696 C.3     1  UNL1        0.2740
     13 C         -13.0833  -17.8512   22.7868 C.3     1  UNL1        0.0512
     14 C         -11.7756  -18.0539   24.1894 C.2     1  UNL1        0.3217
     15 N         -12.9525  -18.9461   24.4523 N.pl3   1  UNL1       -0.2480
     16 N         -10.6207  -18.0345   25.1464 N.2     1  UNL1       -0.0692
     17 H         -13.7105  -18.9589   23.8242 H       1  UNL1        0.2882
     18 H         -12.9668  -19.5189   25.2529 H       1  UNL1        0.2882
     19 C         -12.1936  -16.5412   21.6863 C.3     1  UNL1        0.4305
     20 F         -12.6334  -15.9011   20.4030 F       1  UNL1       -0.1670
     21 F         -12.9514  -15.5053   22.4627 F       1  UNL1       -0.1670
     22 F         -11.4357  -17.5770   20.9100 F       1  UNL1       -0.1670
     23 N          -4.6696  -16.0652   23.1380 N.am    1  UNL1       -0.2791
     24 C          -3.7332  -17.2369   23.1562 C.2     1  UNL1        0.2681
     25 O          -3.8544  -18.2772   24.2301 O.2     1  UNL1       -0.2681
     26 H          -4.5901  -15.3824   22.4332 H       1  UNL1        0.1552
     27 C          -2.6756  -17.3683   22.1006 C.ar    1  UNL1        0.1453
     28 N          -1.8231  -16.1874   21.7420 N.ar    1  UNL1       -0.2375
     29 C          -0.7655  -16.3189   20.6864 C.ar    1  UNL1        0.1104
     30 C          -0.5605  -17.6311   19.9894 C.ar    1  UNL1        0.0776
     31 CL          0.4970  -17.7625   18.9338 Cl      1  UNL1       -0.0806
     32 C          -1.4131  -18.8120   20.3480 C.ar    1  UNL1        0.0260
     33 C          -2.4706  -18.6806   21.4036 C.ar    1  UNL1        0.0806
     34 CL         -3.3232  -19.8615   21.7622 Cl      1  UNL1       -0.0805
@<TRIPOS>BOND
     1     9     8    1
     2     9     1    1
     3     1     2   ar
     4     2     3   ar
     5     3    23    1
     6    23    24   am
     7    24    25    2
     8    24    27    1
     9    27    28   ar
    10    28    29   ar
    11    29    30   ar
    12    30    31    1
    13    30    32   ar
    14    32    33   ar
    15    33    34    1
    16     3     4   ar
    17     4     5   ar
    18     5     6   ar
    19     6     7    1
    20     9    10    1
    21    10    11    1
    22    11    12    1
    23    12    13    1
    24    12    19    1
    25    19    20    1
    26    19    21    1
    27    19    22    1
    28    12    14    1
    29    14    15    1
    30    14    16    2
    31    16     9    1
    32     6     1   ar
    33    33    27   ar
    34    23    26    1
    35    15    17    1
    36    15    18    1
@<TRIPOS>MOLECULE
*****
 34 36 0 0 0
SMALL
GASTEIGER

@<TRIPOS>ATOM
      1 C           7.1117   -4.0792   23.3798 C.ar    1  UNL1        0.0528
      2 C           6.5482   -3.7115   24.7204 C.ar    1  UNL1        0.0167
      3 C           6.8440   -4.5649   25.9179 C.ar    1  UNL1        0.0505
      4 C           7.7032   -5.7861   25.7749 C.ar    1  UNL1        0.0170
      5 C           8.2667   -6.1538   24.4343 C.ar    1  UNL1        0.0307
      6 C           7.9709   -5.3003   23.2368 C.ar    1  UNL1        0.1402
      7 F           8.5344   -5.6680   21.8961 F       1  UNL1       -0.2044
      8 C           7.9853   -2.4787   22.7521 C.3     1  UNL1        0.0607
      9 C           6.8160   -3.2257   22.1822 C.3     1  UNL1        0.2223
     10 C           5.7494   -4.2691   22.0283 C.3     1  UNL1        0.1959
     11 O           4.7932   -4.1996   20.8747 O.3     1  UNL1       -0.3357
     12 C           4.9035   -3.0867   19.8750 C.3     1  UNL1        0.2740
     13 C           4.6079   -2.2332   18.6775 C.3     1  UNL1        0.0512
     14 C           5.9701   -2.0433   20.0290 C.2     1  UNL1        0.3217
     15 N           6.0805   -0.9304   19.0293 N.pl3   1  UNL1       -0.2480
     16 N           6.9264   -2.1128   21.1825 N.2     1  UNL1       -0.0692
     17 H           5.4529   -0.8848   18.2721 H       1  UNL1        0.2882
     18 H           6.7806   -0.2456   19.1303 H       1  UNL1        0.2882
     19 C           3.7342   -3.8337   19.3052 C.3     1  UNL1        0.4305
     20 F           2.5649   -4.5807   18.7353 F       1  UNL1       -0.1670
     21 F           2.8211   -2.7157   19.7133 F       1  UNL1       -0.1670
     22 F           4.6473   -4.9516   18.8971 F       1  UNL1       -0.1670
     23 N           6.2805   -4.1972   27.2586 N.am    1  UNL1       -0.2791
     24 C           7.1360   -3.4803   28.2607 C.2     1  UNL1        0.2681
     25 O           8.5550   -3.1311   27.9221 O.2     1  UNL1       -0.2681
     26 H           5.3492   -4.4265   27.4808 H       1  UNL1        0.1552
     27 C           6.5726   -3.1126   29.6013 C.ar    1  UNL1        0.1453
     28 N           5.7923   -1.8419   29.7640 N.ar    1  UNL1       -0.2375
     29 C           5.2288   -1.4742   31.1048 C.ar    1  UNL1        0.1104
     30 C           5.4457   -2.3772   32.2827 C.ar    1  UNL1        0.0776
     31 CL          4.8823   -2.0096   33.6233 Cl      1  UNL1       -0.0806
     32 C           6.2260   -3.6479   32.1199 C.ar    1  UNL1        0.0260
     33 C           6.7894   -4.0156   30.7793 C.ar    1  UNL1        0.0806
     34 CL          7.5697   -5.2863   30.6166 Cl      1  UNL1       -0.0805
@<TRIPOS>BOND
     1     9     8    1
     2     9     1    1
     3     1     2   ar
     4     2     3   ar
     5     3    23    1
     6    23    24   am
     7    24    25    2
     8    24    27    1
     9    27    28   ar
    10    28    29   ar
    11    29    30   ar
    12    30    31    1
    13    30    32   ar
    14    32    33   ar
    15    33    34    1
    16     3     4   ar
    17     4     5   ar
    18     5     6   ar
    19     6     7    1
    20     9    10    1
    21    10    11    1
    22    11    12    1
    23    12    13    1
    24    12    19    1
    25    19    20    1
    26    19    21    1
    27    19    22    1
    28    12    14    1
    29    14    15    1
    30    14    16    2
    31    16     9    1
    32     6     1   ar
    33    33    27   ar
    34    23    26    1
    35    15    17    1
    36    15    18    1
@<TRIPOS>MOLECULE
*****
 34 36 0 0 0
SMALL
GASTEIGER

@<TRIPOS>ATOM
      1 C         -12.1823   -5.9701   18.2360 C.ar    1  UNL1        0.0528
      2 C         -12.6951   -4.6647   17.7041 C.ar    1  UNL1        0.0167
      3 C         -11.8715   -3.4197   17.8507 C.ar    1  UNL1        0.0505
      4 C         -10.5351   -3.4801   18.5292 C.ar    1  UNL1        0.0170
      5 C         -10.0223   -4.7855   19.0611 C.ar    1  UNL1        0.0307
      6 C         -10.8459   -6.0305   18.9145 C.ar    1  UNL1        0.1402
      7 F         -10.3331   -7.3359   19.4464 F       1  UNL1       -0.2044
      8 C         -11.8254   -7.5823   17.2398 C.3     1  UNL1        0.0607
      9 C         -13.0059   -7.2152   18.0894 C.3     1  UNL1        0.2223
     10 C         -13.9004   -6.4157   18.9898 C.3     1  UNL1        0.1959
     11 O         -15.2085   -6.9888   19.4486 O.3     1  UNL1       -0.3357
     12 C         -15.6221   -8.3614   19.0069 C.3     1  UNL1        0.2740
     13 C         -16.4456   -9.6064   18.8603 C.3     1  UNL1        0.0512
     14 C         -14.7276   -9.1608   18.1065 C.2     1  UNL1        0.3217
     15 N         -15.1412  -10.5334   17.6649 N.pl3   1  UNL1       -0.2480
     16 N         -13.4195   -8.5878   17.6477 N.2     1  UNL1       -0.0692
     17 H         -15.9998  -10.9096   17.9660 H       1  UNL1        0.2882
     18 H         -14.5541  -11.0581   17.0739 H       1  UNL1        0.2882
     19 C         -16.8026   -7.9943   19.8564 C.3     1  UNL1        0.4305
     20 F         -17.9832   -7.6273   20.7060 F       1  UNL1       -0.1670
     21 F         -17.1497   -6.8935   18.8985 F       1  UNL1       -0.1670
     22 F         -16.4555   -9.0952   20.8143 F       1  UNL1       -0.1670
     23 N         -12.3842   -2.1142   17.3188 N.am    1  UNL1       -0.2791
     24 C         -13.3806   -1.3209   18.1112 C.2     1  UNL1        0.2681
     25 O         -13.8643   -1.8332   19.4355 O.2     1  UNL1       -0.2681
     26 H         -12.0668   -1.7780   16.4496 H       1  UNL1        0.1552
     27 C         -13.8934   -0.0155   17.5793 C.ar    1  UNL1        0.1453
     28 N         -13.0851    1.2357   17.7558 N.ar    1  UNL1       -0.2375
     29 C         -13.5979    2.5411   17.2239 C.ar    1  UNL1        0.1104
     30 C         -14.9190    2.5954   16.5156 C.ar    1  UNL1        0.0776
     31 CL        -15.4318    3.9008   15.9838 Cl      1  UNL1       -0.0806
     32 C         -15.7273    1.3442   16.3391 C.ar    1  UNL1        0.0260
     33 C         -15.2145    0.0387   16.8710 C.ar    1  UNL1        0.0806
     34 CL        -16.0228   -1.2125   16.6945 Cl      1  UNL1       -0.0805
@<TRIPOS>BOND
     1     9     8    1
     2     9     1    1
     3     1     2   ar
     4     2     3   ar
     5     3    23    1
     6    23    24   am
     7    24    25    2
     8    24    27    1
     9    27    28   ar
    10    28    29   ar
    11    29    30   ar
    12    30    31    1
    13    30    32   ar
    14    32    33   ar
    15    33    34    1
    16     3     4   ar
    17     4     5   ar
    18     5     6   ar
    19     6     7    1
    20     9    10    1
    21    10    11    1
    22    11    12    1
    23    12    13    1
    24    12    19    1
    25    19    20    1
    26    19    21    1
    27    19    22    1
    28    12    14    1
    29    14    15    1
    30    14    16    2
    31    16     9    1
    32     6     1   ar
    33    33    27   ar
    34    23    26    1
    35    15    17    1
    36    15    18    1
@<TRIPOS>MOLECULE
*****
 34 36 0 0 0
SMALL
GASTEIGER

@<TRIPOS>ATOM
      1 C           2.0993    0.5196   20.4133 C.ar    1  UNL1        0.0528
      2 C           0.6783    0.7738   20.8210 C.ar    1  UNL1        0.0167
      3 C          -0.1158    1.8496   20.1413 C.ar    1  UNL1        0.0505
      4 C           0.5110    2.6711   19.0540 C.ar    1  UNL1        0.0170
      5 C           1.9320    2.4169   18.6464 C.ar    1  UNL1        0.0307
      6 C           2.7261    1.3411   19.3261 C.ar    1  UNL1        0.1402
      7 F           4.1471    1.0868   18.9185 F       1  UNL1       -0.2044
      8 C           2.7112    0.3956   22.2379 C.3     1  UNL1        0.0607
      9 C           2.8935   -0.5563   21.0930 C.3     1  UNL1        0.2223
     10 C           2.8000   -1.1345   19.7122 C.3     1  UNL1        0.1959
     11 O           3.4374   -2.4579   19.4085 O.3     1  UNL1       -0.3357
     12 C           4.1683   -3.2032   20.4858 C.3     1  UNL1        0.2740
     13 C           4.9625   -4.2789   21.1655 C.3     1  UNL1        0.0512
     14 C           4.2618   -2.6249   21.8667 C.2     1  UNL1        0.3217
     15 N           4.9927   -3.3701   22.9440 N.pl3   1  UNL1       -0.2480
     16 N           3.6244   -1.3015   22.1703 N.2     1  UNL1       -0.0692
     17 H           5.4110   -4.2388   22.7447 H       1  UNL1        0.2882
     18 H           5.0540   -2.9906   23.8503 H       1  UNL1        0.2882
     19 C           4.3507   -4.1550   19.3409 C.3     1  UNL1        0.4305
     20 F           4.5330   -5.1069   18.1960 F       1  UNL1       -0.1670
     21 F           5.8337   -3.9365   19.3954 F       1  UNL1       -0.1670
     22 F           2.8677   -4.3736   19.2865 F       1  UNL1       -0.1670
     23 N          -1.5368    2.1039   20.5489 N.am    1  UNL1       -0.2791
     24 C          -1.8733    3.2995   21.3899 C.2     1  UNL1        0.2681
     25 O          -0.7888    4.2408   21.8233 O.2     1  UNL1       -0.2681
     26 H          -2.2486    1.4861   20.2645 H       1  UNL1        0.1552
     27 C          -3.2943    3.5538   21.7975 C.ar    1  UNL1        0.1453
     28 N          -3.6709    3.5460   23.2495 N.ar    1  UNL1       -0.2375
     29 C          -5.0919    3.8003   23.6571 C.ar    1  UNL1        0.1104
     30 C          -6.1362    4.0624   22.6128 C.ar    1  UNL1        0.0776
     31 CL         -7.5572    4.3168   23.0204 Cl      1  UNL1       -0.0806
     32 C          -5.7596    4.0702   21.1608 C.ar    1  UNL1        0.0260
     33 C          -4.3387    3.8159   20.7532 C.ar    1  UNL1        0.0806
     34 CL         -3.9621    3.8237   19.3013 Cl      1  UNL1       -0.0805
@<TRIPOS>BOND
     1     9     8    1
     2     9     1    1
     3     1     2   ar
     4     2     3   ar
     5     3    23    1
     6    23    24   am
     7    24    25    2
     8    24    27    1
     9    27    28   ar
    10    28    29   ar
    11    29    30   ar
    12    30    31    1
    13    30    32   ar
    14    32    33   ar
    15    33    34    1
    16     3     4   ar
    17     4     5   ar
    18     5     6   ar
    19     6     7    1
    20     9    10    1
    21    10    11    1
    22    11    12    1
    23    12    13    1
    24    12    19    1
    25    19    20    1
    26    19    21    1
    27    19    22    1
    28    12    14    1
    29    14    15    1
    30    14    16    2
    31    16     9    1
    32     6     1   ar
    33    33    27   ar
    34    23    26    1
    35    15    17    1
    36    15    18    1
@<TRIPOS>MOLECULE
*****
 34 36 0 0 0
SMALL
GASTEIGER

@<TRIPOS>ATOM
      1 C           3.1642    0.7761   18.4644 C.ar    1  UNL1        0.0528
      2 C           1.7119    1.1379   18.5638 C.ar    1  UNL1        0.0167
      3 C           1.2922    2.5770   18.5122 C.ar    1  UNL1        0.0505
      4 C           2.3249    3.6544   18.3612 C.ar    1  UNL1        0.0170
      5 C           3.7772    3.2927   18.2618 C.ar    1  UNL1        0.0307
      6 C           4.1968    1.8536   18.3134 C.ar    1  UNL1        0.1402
      7 F           5.6492    1.4918   18.2140 F       1  UNL1       -0.2044
      8 C           3.4765   -0.4761   17.0316 C.3     1  UNL1        0.0607
      9 C           3.5839   -0.6631   18.5160 C.3     1  UNL1        0.2223
     10 C           3.5455   -0.3502   19.9825 C.3     1  UNL1        0.1959
     11 O           3.8895   -1.4116   20.9851 O.3     1  UNL1       -0.3357
     12 C           4.2719   -2.7858   20.5211 C.3     1  UNL1        0.2740
     13 C           4.6916   -4.2250   20.5726 C.3     1  UNL1        0.0512
     14 C           4.3103   -3.0987   19.0546 C.2     1  UNL1        0.3217
     15 N           4.6928   -4.4729   18.5907 N.pl3   1  UNL1       -0.2480
     16 N           3.9663   -2.0373   18.0521 N.2     1  UNL1       -0.0692
     17 H           4.9186   -5.1696   19.2487 H       1  UNL1        0.2882
     18 H           4.7180   -4.6783   17.6281 H       1  UNL1        0.2882
     19 C           4.3793   -2.9728   22.0056 C.3     1  UNL1        0.4305
     20 F           4.4867   -3.1598   23.4900 F       1  UNL1       -0.1670
     21 F           5.5217   -3.9236   21.8032 F       1  UNL1       -0.1670
     22 F           3.2370   -2.0220   22.2079 F       1  UNL1       -0.1670
     23 N          -0.1602    2.9388   18.6117 N.am    1  UNL1       -0.2791
     24 C          -0.7386    3.3645   19.9286 C.2     1  UNL1        0.2681
     25 O           0.1354    3.4285   21.1460 O.2     1  UNL1       -0.2681
     26 H          -0.7337    2.8968   17.8126 H       1  UNL1        0.1552
     27 C          -2.1908    3.7263   20.0280 C.ar    1  UNL1        0.1453
     28 N          -3.1419    2.8193   20.7511 N.ar    1  UNL1       -0.2375
     29 C          -4.5943    3.1811   20.8505 C.ar    1  UNL1        0.1104
     30 C          -5.0955    4.4499   20.2270 C.ar    1  UNL1        0.0776
     31 CL         -6.5478    4.8117   20.3264 Cl      1  UNL1       -0.0806
     32 C          -4.1444    5.3570   19.5039 C.ar    1  UNL1        0.0260
     33 C          -2.6921    4.9952   19.4045 C.ar    1  UNL1        0.0806
     34 CL         -1.7410    5.9022   18.6814 Cl      1  UNL1       -0.0805
@<TRIPOS>BOND
     1     9     8    1
     2     9     1    1
     3     1     2   ar
     4     2     3   ar
     5     3    23    1
     6    23    24   am
     7    24    25    2
     8    24    27    1
     9    27    28   ar
    10    28    29   ar
    11    29    30   ar
    12    30    31    1
    13    30    32   ar
    14    32    33   ar
    15    33    34    1
    16     3     4   ar
    17     4     5   ar
    18     5     6   ar
    19     6     7    1
    20     9    10    1
    21    10    11    1
    22    11    12    1
    23    12    13    1
    24    12    19    1
    25    19    20    1
    26    19    21    1
    27    19    22    1
    28    12    14    1
    29    14    15    1
    30    14    16    2
    31    16     9    1
    32     6     1   ar
    33    33    27   ar
    34    23    26    1
    35    15    17    1
    36    15    18    1
@<TRIPOS>MOLECULE
*****
 34 36 0 0 0
SMALL
GASTEIGER

@<TRIPOS>ATOM
      1 C           2.7708    0.7357   20.8783 C.ar    1  UNL1        0.0528
      2 C           1.3457    0.9363   20.4553 C.ar    1  UNL1        0.0167
      3 C           0.4284    1.7824   21.2876 C.ar    1  UNL1        0.0505
      4 C           0.9362    2.4277   22.5429 C.ar    1  UNL1        0.0170
      5 C           2.3612    2.2271   22.9658 C.ar    1  UNL1        0.0307
      6 C           3.2785    1.3811   22.1335 C.ar    1  UNL1        0.1402
      7 F           4.7036    1.1804   22.5565 F       1  UNL1       -0.2044
      8 C           4.1656    1.2562   19.6526 C.3     1  UNL1        0.0607
      9 C           3.6882   -0.1104   20.0460 C.3     1  UNL1        0.2223
     10 C           2.8921   -1.1830   20.7284 C.3     1  UNL1        0.1959
     11 O           3.1793   -2.6271   20.4419 O.3     1  UNL1       -0.3357
     12 C           4.2625   -2.9986   19.4730 C.3     1  UNL1        0.2740
     13 C           5.1798   -3.8445   18.6407 C.3     1  UNL1        0.0512
     14 C           5.0585   -1.9259   18.7906 C.2     1  UNL1        0.3217
     15 N           6.1417   -2.2974   17.8217 N.pl3   1  UNL1       -0.2480
     16 N           4.7714   -0.4818   19.0771 N.2     1  UNL1       -0.0692
     17 H           6.3302   -3.2452   17.6336 H       1  UNL1        0.2882
     18 H           6.6642   -1.5933   17.3738 H       1  UNL1        0.2882
     19 C           3.7850   -4.3651   19.8663 C.3     1  UNL1        0.4305
     20 F           3.3075   -5.7316   20.2597 F       1  UNL1       -0.1670
     21 F           3.0470   -4.4816   18.5656 F       1  UNL1       -0.1670
     22 F           4.5230   -4.2485   21.1670 F       1  UNL1       -0.1670
     23 N          -0.9967    1.9830   20.8646 N.am    1  UNL1       -0.2791
     24 C          -1.4460    3.3195   20.3528 C.2     1  UNL1        0.2681
     25 O          -0.4702    4.4553   20.2640 O.2     1  UNL1       -0.2681
     26 H          -1.6371    1.2376   20.9230 H       1  UNL1        0.1552
     27 C          -2.8710    3.5202   19.9299 C.ar    1  UNL1        0.1453
     28 N          -3.9771    3.3900   20.9347 N.ar    1  UNL1       -0.2375
     29 C          -5.4022    3.5907   20.5117 C.ar    1  UNL1        0.1104
     30 C          -5.7212    3.9217   19.0839 C.ar    1  UNL1        0.0776
     31 CL         -7.1462    4.1224   18.6610 Cl      1  UNL1       -0.0806
     32 C          -4.6151    4.0519   18.0791 C.ar    1  UNL1        0.0260
     33 C          -3.1901    3.8512   18.5020 C.ar    1  UNL1        0.0806
     34 CL         -2.0841    3.9815   17.4972 Cl      1  UNL1       -0.0805
@<TRIPOS>BOND
     1     9     8    1
     2     9     1    1
     3     1     2   ar
     4     2     3   ar
     5     3    23    1
     6    23    24   am
     7    24    25    2
     8    24    27    1
     9    27    28   ar
    10    28    29   ar
    11    29    30   ar
    12    30    31    1
    13    30    32   ar
    14    32    33   ar
    15    33    34    1
    16     3     4   ar
    17     4     5   ar
    18     5     6   ar
    19     6     7    1
    20     9    10    1
    21    10    11    1
    22    11    12    1
    23    12    13    1
    24    12    19    1
    25    19    20    1
    26    19    21    1
    27    19    22    1
    28    12    14    1
    29    14    15    1
    30    14    16    2
    31    16     9    1
    32     6     1   ar
    33    33    27   ar
    34    23    26    1
    35    15    17    1
    36    15    18    1
@<TRIPOS>MOLECULE
*****
 34 36 0 0 0
SMALL
GASTEIGER

@<TRIPOS>ATOM
      1 C           4.1362    1.0288   34.0891 C.ar    1  UNL1        0.0528
      2 C           3.4919    1.5032   32.8203 C.ar    1  UNL1        0.0167
      3 C           3.2538    0.5407   31.6947 C.ar    1  UNL1        0.0505
      4 C           3.6600   -0.8961   31.8380 C.ar    1  UNL1        0.0170
      5 C           4.3043   -1.3705   33.1067 C.ar    1  UNL1        0.0307
      6 C           4.5424   -0.4081   34.2323 C.ar    1  UNL1        0.1402
      7 F           5.1867   -0.8824   35.5011 F       1  UNL1       -0.2044
      8 C           5.6794    2.1151   34.4856 C.3     1  UNL1        0.0607
      9 C           4.3743    1.9913   35.2147 C.3     1  UNL1        0.2223
     10 C           2.9867    1.5331   35.5529 C.3     1  UNL1        0.1959
     11 O           2.2903    2.0805   36.7635 O.3     1  UNL1       -0.3357
     12 C           2.9818    3.0860   37.6359 C.3     1  UNL1        0.2740
     13 C           3.2199    4.0484   38.7615 C.3     1  UNL1        0.0512
     14 C           4.3694    3.5441   37.2977 C.2     1  UNL1        0.3217
     15 N           5.0608    4.5496   38.1701 N.pl3   1  UNL1       -0.2480
     16 N           5.0658    2.9968   36.0871 N.2     1  UNL1       -0.0692
     17 H           4.6038    4.9088   38.9646 H       1  UNL1        0.2882
     18 H           5.9716    4.8503   37.9481 H       1  UNL1        0.2882
     19 C           1.6767    2.9621   38.3651 C.3     1  UNL1        0.4305
     20 F           0.3717    2.8382   39.0942 F       1  UNL1       -0.1670
     21 F           1.0992    4.0567   37.5174 F       1  UNL1       -0.1670
     22 F           2.2543    1.8675   39.2126 F       1  UNL1       -0.1670
     23 N           2.6095    1.0151   30.4259 N.am    1  UNL1       -0.2791
     24 C           1.2057    1.5432   30.4495 C.2     1  UNL1        0.2681
     25 O           0.4463    1.5969   31.7420 O.2     1  UNL1       -0.2681
     26 H           3.1080    0.9798   29.5776 H       1  UNL1        0.1552
     27 C           0.5614    2.0175   29.1807 C.ar    1  UNL1        0.1453
     28 N           0.7238    3.4436   28.7448 N.ar    1  UNL1       -0.2375
     29 C           0.0794    3.9179   27.4759 C.ar    1  UNL1        0.1104
     30 C          -0.7272    2.9662   26.6431 C.ar    1  UNL1        0.0776
     31 CL         -1.3716    3.4406   25.3744 Cl      1  UNL1       -0.0806
     32 C          -0.8896    1.5402   27.0791 C.ar    1  UNL1        0.0260
     33 C          -0.2453    1.0658   28.3479 C.ar    1  UNL1        0.0806
     34 CL         -0.4076   -0.3602   28.7839 Cl      1  UNL1       -0.0805
@<TRIPOS>BOND
     1     9     8    1
     2     9     1    1
     3     1     2   ar
     4     2     3   ar
     5     3    23    1
     6    23    24   am
     7    24    25    2
     8    24    27    1
     9    27    28   ar
    10    28    29   ar
    11    29    30   ar
    12    30    31    1
    13    30    32   ar
    14    32    33   ar
    15    33    34    1
    16     3     4   ar
    17     4     5   ar
    18     5     6   ar
    19     6     7    1
    20     9    10    1
    21    10    11    1
    22    11    12    1
    23    12    13    1
    24    12    19    1
    25    19    20    1
    26    19    21    1
    27    19    22    1
    28    12    14    1
    29    14    15    1
    30    14    16    2
    31    16     9    1
    32     6     1   ar
    33    33    27   ar
    34    23    26    1
    35    15    17    1
    36    15    18    1
@<TRIPOS>MOLECULE
*****
 34 36 0 0 0
SMALL
GASTEIGER

@<TRIPOS>ATOM
      1 C          -2.0339    3.8109   20.8005 C.ar    1  UNL1        0.0528
      2 C          -1.1978    2.6189   20.4399 C.ar    1  UNL1        0.0167
      3 C          -0.1610    2.7287   19.3615 C.ar    1  UNL1        0.0505
      4 C           0.0398    4.0305   18.6438 C.ar    1  UNL1        0.0170
      5 C          -0.7963    5.2225   19.0045 C.ar    1  UNL1        0.0307
      6 C          -1.8331    5.1127   20.0829 C.ar    1  UNL1        0.1402
      7 F          -2.6693    6.3047   20.4436 F       1  UNL1       -0.2044
      8 C          -3.9215    3.4380   20.6718 C.3     1  UNL1        0.0607
      9 C          -3.0707    3.7011   21.8790 C.3     1  UNL1        0.2223
     10 C          -1.8600    4.0023   22.7115 C.3     1  UNL1        0.1959
     11 O          -1.9814    4.1023   24.2032 O.3     1  UNL1       -0.3357
     12 C          -3.3138    3.9012   24.8624 C.3     1  UNL1        0.2740
     13 C          -4.3506    3.7914   25.9407 C.3     1  UNL1        0.0512
     14 C          -4.5246    3.6000   24.0298 C.2     1  UNL1        0.3217
     15 N          -5.8569    3.3988   24.6890 N.pl3   1  UNL1       -0.2480
     16 N          -4.4031    3.4999   22.5381 N.2     1  UNL1       -0.0692
     17 H          -5.9367    3.4645   25.6680 H       1  UNL1        0.2882
     18 H          -6.6516    3.2012   24.1425 H       1  UNL1        0.2882
     19 C          -2.4630    4.1642   26.0695 C.3     1  UNL1        0.4305
     20 F          -1.6123    4.4273   27.2766 F       1  UNL1       -0.1670
     21 F          -3.0943    5.5167   26.2196 F       1  UNL1       -0.1670
     22 F          -1.8318    2.8119   25.9193 F       1  UNL1       -0.1670
     23 N           0.6752    1.5367   19.0008 N.am    1  UNL1       -0.2791
     24 C           2.0777    1.4198   19.5196 C.2     1  UNL1        0.2681
     25 O           2.6441    2.4948   20.3992 O.2     1  UNL1       -0.2681
     26 H           0.3034    0.8312   18.4235 H       1  UNL1        0.1552
     27 C           2.9139    0.2279   19.1589 C.ar    1  UNL1        0.1453
     28 N           3.5845    0.1600   17.8189 N.ar    1  UNL1       -0.2375
     29 C           4.4207   -1.0320   17.4582 C.ar    1  UNL1        0.1104
     30 C           4.5862   -2.1561   18.4375 C.ar    1  UNL1        0.0776
     31 CL          5.4224   -3.3480   18.0769 Cl      1  UNL1       -0.0806
     32 C           3.9156   -2.0882   19.7776 C.ar    1  UNL1        0.0260
     33 C           3.0794   -0.8963   20.1382 C.ar    1  UNL1        0.0806
     34 CL          2.4088   -0.8284   21.4782 Cl      1  UNL1       -0.0805
@<TRIPOS>BOND
     1     9     8    1
     2     9     1    1
     3     1     2   ar
     4     2     3   ar
     5     3    23    1
     6    23    24   am
     7    24    25    2
     8    24    27    1
     9    27    28   ar
    10    28    29   ar
    11    29    30   ar
    12    30    31    1
    13    30    32   ar
    14    32    33   ar
    15    33    34    1
    16     3     4   ar
    17     4     5   ar
    18     5     6   ar
    19     6     7    1
    20     9    10    1
    21    10    11    1
    22    11    12    1
    23    12    13    1
    24    12    19    1
    25    19    20    1
    26    19    21    1
    27    19    22    1
    28    12    14    1
    29    14    15    1
    30    14    16    2
    31    16     9    1
    32     6     1   ar
    33    33    27   ar
    34    23    26    1
    35    15    17    1
    36    15    18    1
@<TRIPOS>MOLECULE
*****
 34 36 0 0 0
SMALL
GASTEIGER

@<TRIPOS>ATOM
      1 C         -11.5652   -4.3004   17.9576 C.ar    1  UNL1        0.0528
      2 C         -12.7289   -5.1875   17.6280 C.ar    1  UNL1        0.0167
      3 C         -12.6883   -6.6429   17.9883 C.ar    1  UNL1        0.0505
      4 C         -11.4838   -7.2113   18.6784 C.ar    1  UNL1        0.0170
      5 C         -10.3200   -6.3243   19.0081 C.ar    1  UNL1        0.0307
      6 C         -10.3607   -4.8688   18.6477 C.ar    1  UNL1        0.1402
      7 F          -9.1969   -3.9817   18.9774 F       1  UNL1       -0.2044
      8 C         -10.4034   -3.2746   16.8101 C.3     1  UNL1        0.0607
      9 C         -11.6058   -2.8449   17.5973 C.3     1  UNL1        0.2223
     10 C         -12.7940   -2.9206   18.5096 C.3     1  UNL1        0.1959
     11 O         -13.6053   -1.6901   18.7882 O.3     1  UNL1       -0.3357
     12 C         -13.2284   -0.3838   18.1544 C.3     1  UNL1        0.2740
     13 C         -13.2690    1.0717   17.7940 C.3     1  UNL1        0.0512
     14 C         -12.0402   -0.3081   17.2421 C.2     1  UNL1        0.3217
     15 N         -11.6632    0.9982   16.6083 N.pl3   1  UNL1       -0.2480
     16 N         -11.2289   -1.5386   16.9635 N.2     1  UNL1       -0.0692
     17 H         -12.1957    1.8058   16.7912 H       1  UNL1        0.2882
     18 H         -10.8833    1.0479   16.0096 H       1  UNL1        0.2882
     19 C         -14.4308    0.0460   18.9416 C.3     1  UNL1        0.4305
     20 F         -15.6332    0.4757   19.7288 F       1  UNL1       -0.1670
     21 F         -14.9617   -1.3562   18.8962 F       1  UNL1       -0.1670
     22 F         -13.8998    1.4481   18.9870 F       1  UNL1       -0.1670
     23 N         -13.8521   -7.5301   17.6586 N.am    1  UNL1       -0.2791
     24 C         -15.0702   -7.5253   18.5339 C.2     1  UNL1        0.2681
     25 O         -15.1246   -6.6335   19.7388 O.2     1  UNL1       -0.2681
     26 H         -13.8164   -8.1154   16.8678 H       1  UNL1        0.1552
     27 C         -16.2340   -8.4124   18.2042 C.ar    1  UNL1        0.1453
     28 N         -16.2860   -9.8120   18.7412 N.ar    1  UNL1       -0.2375
     29 C         -17.4498  -10.6991   18.4116 C.ar    1  UNL1        0.1104
     30 C         -18.5616  -10.1866   17.5449 C.ar    1  UNL1        0.0776
     31 CL        -19.7254  -11.0736   17.2153 Cl      1  UNL1       -0.0806
     32 C         -18.5097   -8.7869   17.0079 C.ar    1  UNL1        0.0260
     33 C         -17.3459   -7.8999   17.3376 C.ar    1  UNL1        0.0806
     34 CL        -17.2940   -6.5002   16.8006 Cl      1  UNL1       -0.0805
@<TRIPOS>BOND
     1     9     8    1
     2     9     1    1
     3     1     2   ar
     4     2     3   ar
     5     3    23    1
     6    23    24   am
     7    24    25    2
     8    24    27    1
     9    27    28   ar
    10    28    29   ar
    11    29    30   ar
    12    30    31    1
    13    30    32   ar
    14    32    33   ar
    15    33    34    1
    16     3     4   ar
    17     4     5   ar
    18     5     6   ar
    19     6     7    1
    20     9    10    1
    21    10    11    1
    22    11    12    1
    23    12    13    1
    24    12    19    1
    25    19    20    1
    26    19    21    1
    27    19    22    1
    28    12    14    1
    29    14    15    1
    30    14    16    2
    31    16     9    1
    32     6     1   ar
    33    33    27   ar
    34    23    26    1
    35    15    17    1
    36    15    18    1
