@<TRIPOS>MOLECULE
*****
 29 32 0 0 0
SMALL
GASTEIGER

@<TRIPOS>ATOM
      1 C           5.7559   -3.7156   21.6643 C.3     1  UNL1        0.0374
      2 C           4.6052   -2.9068   21.1428 C.ar    1  UNL1        0.0520
      3 C           3.9614   -3.2728   19.8385 C.ar    1  UNL1        0.0749
      4 C           2.8107   -2.4640   19.3169 C.ar    1  UNL1        0.0236
      5 C           2.3040   -1.2892   20.0998 C.ar    1  UNL1        0.0939
      6 N           1.1950   -0.3131   19.8403 N.ar    1  UNL1       -0.2334
      7 C           1.1535    0.6562   20.9843 C.ar    1  UNL1        0.1637
      8 S           2.2369    0.2792   21.9508 S.2     1  UNL1       -0.0558
      9 C           2.9479   -0.9231   21.4042 C.ar    1  UNL1        0.1175
     10 C           4.0985   -1.7319   21.9257 C.ar    1  UNL1        0.2931
     11 C           0.1967    1.8014   21.1352 C.2     1  UNL1        0.2456
     12 N          -1.1504    1.9164   20.4854 N.2     1  UNL1       -0.2248
     13 C          -1.7607    3.2188   20.9110 C.3     1  UNL1        0.2255
     14 C          -0.7909    3.9089   21.8239 C.3     1  UNL1        0.2407
     15 O           0.4188    3.0328   21.9625 O.2     1  UNL1       -0.4564
     16 C          -3.1049    3.7398   20.4966 C.2     1  UNL1        0.2519
     17 O          -3.3263    4.2082   19.0888 O.2     1  UNL1       -0.2726
     18 N          -4.2278    3.7923   21.4898 N.am    1  UNL1       -0.2779
     19 C          -5.6190    4.2854   21.2224 C.3     1  UNL1        0.0935
     20 C          -6.4076    4.1589   22.4921 C.3     1  UNL1        0.0233
     21 C          -5.5037    3.5876   23.5442 C.3     1  UNL1        0.0233
     22 C          -4.1565    3.3611   22.9247 C.3     1  UNL1        0.0935
     23 C           4.4682   -4.4477   19.0555 C.3     1  UNL1        0.4185
     24 F           4.9749   -5.6226   18.2726 F       1  UNL1       -0.1659
     25 F           5.4110   -3.5470   18.3141 F       1  UNL1       -0.1659
     26 F           3.5253   -5.3484   19.7970 F       1  UNL1       -0.1659
     27 N           4.7424   -1.3659   23.2301 N.pl3   1  UNL1        0.0811
     28 O           4.2861   -2.0189   24.5011 O.2     1  UNL1        0.0415
     29 O           5.8426   -0.3469   23.2635 O.co2   1  UNL1       -0.5760
@<TRIPOS>UNITY_ATOM_ATTR
27 1
charge 1
29 1
charge -1
@<TRIPOS>BOND
     1     1     2    1
     2     2     3   ar
     3     3    23    1
     4    23    24    1
     5    23    25    1
     6    23    26    1
     7     3     4   ar
     8     4     5   ar
     9     5     6   ar
    10     6     7   ar
    11     7    11    1
    12    11    12    2
    13    12    13    1
    14    13    16    1
    15    16    17    2
    16    16    18   am
    17    18    19    1
    18    19    20    1
    19    20    21    1
    20    21    22    1
    21    13    14    1
    22    14    15    1
    23     7     8   ar
    24     8     9   ar
    25     9    10   ar
    26    10    27    1
    27    27    28    2
    28    27    29    1
    29    10     2   ar
    30     9     5   ar
    31    15    11    1
    32    22    18    1
@<TRIPOS>MOLECULE
*****
 29 32 0 0 0
SMALL
GASTEIGER

@<TRIPOS>ATOM
      1 C           3.1308   -2.1161   18.5855 C.3     1  UNL1        0.0374
      2 C           3.5119   -2.2648   20.0287 C.ar    1  UNL1        0.0520
      3 C           4.2711   -3.4760   20.4830 C.ar    1  UNL1        0.0749
      4 C           4.6522   -3.6247   21.9262 C.ar    1  UNL1        0.0236
      5 C           4.2740   -2.5621   22.9150 C.ar    1  UNL1        0.0939
      6 N           4.5101   -2.4346   24.3908 N.ar    1  UNL1       -0.2334
      7 C           3.8969   -1.1445   24.8485 C.ar    1  UNL1        0.1637
      8 S           3.2817   -0.4747   23.6557 S.2     1  UNL1       -0.0558
      9 C           3.5147   -1.3508   22.4607 C.ar    1  UNL1        0.1175
     10 C           3.1337   -1.2022   21.0175 C.ar    1  UNL1        0.2931
     11 C           3.8985   -0.6168   26.2527 C.2     1  UNL1        0.2456
     12 N           3.4479   -1.3609   27.4747 N.2     1  UNL1       -0.2248
     13 C           3.6219   -0.4563   28.6585 C.3     1  UNL1        0.2255
     14 C           4.1801    0.8468   28.1682 C.3     1  UNL1        0.2407
     15 O           4.3510    0.7476   26.6813 O.2     1  UNL1       -0.4564
     16 C           3.2951   -0.7953   30.0827 C.2     1  UNL1        0.2519
     17 O           1.9072   -0.5739   30.6070 O.2     1  UNL1       -0.2726
     18 N           4.3562   -1.3558   30.9827 N.am    1  UNL1       -0.2779
     19 C           4.1790   -1.7401   32.4218 C.3     1  UNL1        0.0935
     20 C           5.4940   -2.2522   32.9302 C.3     1  UNL1        0.0233
     21 C           6.4840   -2.1844   31.8053 C.3     1  UNL1        0.0233
     22 C           5.7808   -1.6304   30.6017 C.3     1  UNL1        0.0935
     23 C           4.6493   -4.5387   19.4941 C.3     1  UNL1        0.4185
     24 F           5.0275   -5.6013   18.5053 F       1  UNL1       -0.1659
     25 F           5.9421   -3.8275   19.2243 F       1  UNL1       -0.1659
     26 F           3.3565   -5.2498   19.7639 F       1  UNL1       -0.1659
     27 N           2.3745    0.0091   20.5632 N.pl3   1  UNL1        0.0811
     28 O           0.8830   -0.0526   20.4147 O.2     1  UNL1        0.0415
     29 O           3.1066    1.2821   20.2573 O.co2   1  UNL1       -0.5760
@<TRIPOS>UNITY_ATOM_ATTR
27 1
charge 1
29 1
charge -1
@<TRIPOS>BOND
     1     1     2    1
     2     2     3   ar
     3     3    23    1
     4    23    24    1
     5    23    25    1
     6    23    26    1
     7     3     4   ar
     8     4     5   ar
     9     5     6   ar
    10     6     7   ar
    11     7    11    1
    12    11    12    2
    13    12    13    1
    14    13    16    1
    15    16    17    2
    16    16    18   am
    17    18    19    1
    18    19    20    1
    19    20    21    1
    20    21    22    1
    21    13    14    1
    22    14    15    1
    23     7     8   ar
    24     8     9   ar
    25     9    10   ar
    26    10    27    1
    27    27    28    2
    28    27    29    1
    29    10     2   ar
    30     9     5   ar
    31    15    11    1
    32    22    18    1
@<TRIPOS>MOLECULE
*****
 29 32 0 0 0
SMALL
GASTEIGER

@<TRIPOS>ATOM
      1 C           6.0066   -2.5496   19.0304 C.3     1  UNL1        0.0374
      2 C           4.8485   -1.8447   19.6724 C.ar    1  UNL1        0.0520
      3 C           4.4450   -2.1893   21.0753 C.ar    1  UNL1        0.0749
      4 C           3.2869   -1.4844   21.7173 C.ar    1  UNL1        0.0236
      5 C           2.5324   -0.4349   20.9562 C.ar    1  UNL1        0.0939
      6 N           1.3576    0.4219   21.3244 N.ar    1  UNL1       -0.2334
      7 C           1.0350    1.2960   20.1489 C.ar    1  UNL1        0.1637
      8 S           2.0105    0.9795   19.0543 S.2     1  UNL1       -0.0558
      9 C           2.9360   -0.0903   19.5532 C.ar    1  UNL1        0.1175
     10 C           4.0940   -0.7952   18.9113 C.ar    1  UNL1        0.2931
     11 C          -0.0692    2.3089   20.0801 C.2     1  UNL1        0.2456
     12 N          -1.4970    2.0854   20.4821 N.2     1  UNL1       -0.2248
     13 C          -2.2497    3.3615   20.2476 C.3     1  UNL1        0.2255
     14 C          -1.2872    4.3737   19.7008 C.3     1  UNL1        0.2407
     15 O           0.0605    3.7231   19.5972 O.2     1  UNL1       -0.4564
     16 C          -3.7088    3.5860   20.5134 C.2     1  UNL1        0.2519
     17 O          -4.6707    3.7015   19.3681 O.2     1  UNL1       -0.2726
     18 N          -4.2061    3.6951   21.9244 N.am    1  UNL1       -0.2779
     19 C          -5.6292    3.9180   22.3429 C.3     1  UNL1        0.0935
     20 C          -5.6702    3.9611   23.8417 C.3     1  UNL1        0.0233
     21 C          -4.2725    3.7648   24.3495 C.3     1  UNL1        0.0233
     22 C          -3.3676    3.6004   23.1645 C.3     1  UNL1        0.0935
     23 C           5.1996   -3.2389   21.8365 C.3     1  UNL1        0.4185
     24 F           5.9541   -4.2884   22.5975 F       1  UNL1       -0.1659
     25 F           4.2837   -4.2936   21.2900 F       1  UNL1       -0.1659
     26 F           6.1154   -2.1841   22.3829 F       1  UNL1       -0.1659
     27 N           4.4976   -0.4506   17.5083 N.pl3   1  UNL1        0.0811
     28 O           5.5101    0.6286   17.2628 O.2     1  UNL1        0.0415
     29 O           3.8887   -1.1852   16.3509 O.co2   1  UNL1       -0.5760
@<TRIPOS>UNITY_ATOM_ATTR
27 1
charge 1
29 1
charge -1
@<TRIPOS>BOND
     1     1     2    1
     2     2     3   ar
     3     3    23    1
     4    23    24    1
     5    23    25    1
     6    23    26    1
     7     3     4   ar
     8     4     5   ar
     9     5     6   ar
    10     6     7   ar
    11     7    11    1
    12    11    12    2
    13    12    13    1
    14    13    16    1
    15    16    17    2
    16    16    18   am
    17    18    19    1
    18    19    20    1
    19    20    21    1
    20    21    22    1
    21    13    14    1
    22    14    15    1
    23     7     8   ar
    24     8     9   ar
    25     9    10   ar
    26    10    27    1
    27    27    28    2
    28    27    29    1
    29    10     2   ar
    30     9     5   ar
    31    15    11    1
    32    22    18    1
@<TRIPOS>MOLECULE
*****
 29 32 0 0 0
SMALL
GASTEIGER

@<TRIPOS>ATOM
      1 C           5.7496   -3.7630   21.7560 C.3     1  UNL1        0.0374
      2 C           4.6254   -2.9462   21.1909 C.ar    1  UNL1        0.0520
      3 C           3.9912   -3.3414   19.8904 C.ar    1  UNL1        0.0749
      4 C           2.8670   -2.5246   19.3253 C.ar    1  UNL1        0.0236
      5 C           2.3772   -1.3126   20.0609 C.ar    1  UNL1        0.0939
      6 N           1.2950   -0.3208   19.7526 N.ar    1  UNL1       -0.2334
      7 C           1.2604    0.6874   20.8627 C.ar    1  UNL1        0.1637
      8 S           2.3212    0.3187   21.8570 S.2     1  UNL1       -0.0558
      9 C           3.0115   -0.9174   21.3614 C.ar    1  UNL1        0.1175
     10 C           4.1356   -1.7342   21.9264 C.ar    1  UNL1        0.2931
     11 C           0.3286    1.8588   20.9611 C.2     1  UNL1        0.2456
     12 N          -1.1184    1.8699   20.5661 N.2     1  UNL1       -0.2248
     13 C          -1.6612    3.2426   20.8327 C.3     1  UNL1        0.2255
     14 C          -0.5496    4.0799   21.3926 C.3     1  UNL1        0.2407
     15 O           0.6801    3.2246   21.4720 O.2     1  UNL1       -0.4564
     16 C          -3.0684    3.6981   20.5833 C.2     1  UNL1        0.2519
     17 O          -4.0316    3.8186   21.7270 O.2     1  UNL1       -0.2726
     18 N          -3.5125    4.0331   19.1903 N.am    1  UNL1       -0.2779
     19 C          -4.8808    4.4991   18.7892 C.3     1  UNL1        0.0935
     20 C          -4.8803    4.7149   17.3048 C.3     1  UNL1        0.0233
     21 C          -3.5118    4.3824   16.7885 C.3     1  UNL1        0.0233
     22 C          -2.6665    3.9610   17.9538 C.3     1  UNL1        0.0935
     23 C           4.4811   -4.5535   19.1548 C.3     1  UNL1        0.4185
     24 F           4.9709   -5.7655   18.4192 F       1  UNL1       -0.1659
     25 F           3.5358   -5.4127   19.9410 F       1  UNL1       -0.1659
     26 F           5.4263   -3.6942   18.3685 F       1  UNL1       -0.1659
     27 N           4.7698   -1.3390   23.2270 N.pl3   1  UNL1        0.0811
     28 O           5.9728   -0.4428   23.2331 O.2     1  UNL1        0.0415
     29 O           4.2012   -1.8398   24.5215 O.co2   1  UNL1       -0.5760
@<TRIPOS>UNITY_ATOM_ATTR
27 1
charge 1
29 1
charge -1
@<TRIPOS>BOND
     1     1     2    1
     2     2     3   ar
     3     3    23    1
     4    23    24    1
     5    23    25    1
     6    23    26    1
     7     3     4   ar
     8     4     5   ar
     9     5     6   ar
    10     6     7   ar
    11     7    11    1
    12    11    12    2
    13    12    13    1
    14    13    16    1
    15    16    17    2
    16    16    18   am
    17    18    19    1
    18    19    20    1
    19    20    21    1
    20    21    22    1
    21    13    14    1
    22    14    15    1
    23     7     8   ar
    24     8     9   ar
    25     9    10   ar
    26    10    27    1
    27    27    28    2
    28    27    29    1
    29    10     2   ar
    30     9     5   ar
    31    15    11    1
    32    22    18    1
@<TRIPOS>MOLECULE
*****
 29 32 0 0 0
SMALL
GASTEIGER

@<TRIPOS>ATOM
      1 C           3.5565   -0.8417   16.8935 C.3     1  UNL1        0.0374
      2 C           3.7710   -0.8027   18.3776 C.ar    1  UNL1        0.0520
      3 C           3.0077    0.1756   19.2203 C.ar    1  UNL1        0.0749
      4 C           3.2221    0.2146   20.7044 C.ar    1  UNL1        0.0236
      5 C           4.2000   -0.7248   21.3458 C.ar    1  UNL1        0.0939
      6 N           4.6188   -0.9168   22.7732 N.ar    1  UNL1       -0.2334
      7 C           5.6410   -2.0139   22.8128 C.ar    1  UNL1        0.1637
      8 S           5.8539   -2.4999   21.4097 S.2     1  UNL1       -0.0558
      9 C           4.9633   -1.7031   20.5030 C.ar    1  UNL1        0.1175
     10 C           4.7488   -1.7421   19.0190 C.ar    1  UNL1        0.2931
     11 C           6.3294   -2.5338   24.0399 C.2     1  UNL1        0.2456
     12 N           6.0519   -3.8421   24.7190 N.2     1  UNL1       -0.2248
     13 C           6.9671   -3.9536   25.9021 C.3     1  UNL1        0.2255
     14 C           7.8104   -2.7141   25.9543 C.3     1  UNL1        0.2407
     15 O           7.4162   -1.8366   24.8033 O.2     1  UNL1       -0.4564
     16 C           7.0285   -5.1027   26.8643 C.2     1  UNL1        0.2519
     17 O           6.2693   -5.0403   28.1565 O.2     1  UNL1       -0.2726
     18 N           7.8489   -6.3143   26.5342 N.am    1  UNL1       -0.2779
     19 C           8.0052   -7.5341   27.3932 C.3     1  UNL1        0.0935
     20 C           8.9100   -8.4925   26.6771 C.3     1  UNL1        0.0233
     21 C           9.3129   -7.8650   25.3756 C.3     1  UNL1        0.0233
     22 C           8.6571   -6.5189   25.2872 C.3     1  UNL1        0.0935
     23 C           2.0298    1.1151   18.5789 C.3     1  UNL1        0.4185
     24 F           1.0519    2.0545   17.9375 F       1  UNL1       -0.1659
     25 F           3.1353    2.0989   18.3344 F       1  UNL1       -0.1659
     26 F           0.9243    0.1312   18.8234 F       1  UNL1       -0.1659
     27 N           5.5122   -2.7204   18.1763 N.pl3   1  UNL1        0.0811
     28 O           6.6540   -2.2473   17.3262 O.2     1  UNL1        0.0415
     29 O           5.1337   -4.1719   18.1835 O.co2   1  UNL1       -0.5760
@<TRIPOS>UNITY_ATOM_ATTR
27 1
charge 1
29 1
charge -1
@<TRIPOS>BOND
     1     1     2    1
     2     2     3   ar
     3     3    23    1
     4    23    24    1
     5    23    25    1
     6    23    26    1
     7     3     4   ar
     8     4     5   ar
     9     5     6   ar
    10     6     7   ar
    11     7    11    1
    12    11    12    2
    13    12    13    1
    14    13    16    1
    15    16    17    2
    16    16    18   am
    17    18    19    1
    18    19    20    1
    19    20    21    1
    20    21    22    1
    21    13    14    1
    22    14    15    1
    23     7     8   ar
    24     8     9   ar
    25     9    10   ar
    26    10    27    1
    27    27    28    2
    28    27    29    1
    29    10     2   ar
    30     9     5   ar
    31    15    11    1
    32    22    18    1
@<TRIPOS>MOLECULE
*****
 29 32 0 0 0
SMALL
GASTEIGER

@<TRIPOS>ATOM
      1 C           3.1366   -1.1731   18.4339 C.3     1  UNL1        0.0374
      2 C           3.5199   -1.4904   19.8490 C.ar    1  UNL1        0.0520
      3 C           2.7805   -0.8525   20.9874 C.ar    1  UNL1        0.0749
      4 C           3.1638   -1.1699   22.4025 C.ar    1  UNL1        0.0236
      5 C           4.2866   -2.1253   22.6790 C.ar    1  UNL1        0.0939
      6 N           4.8851   -2.6270   23.9597 N.ar    1  UNL1       -0.2334
      7 C           5.9945   -3.5751   23.6126 C.ar    1  UNL1        0.1637
      8 S           6.0816   -3.6594   22.1175 S.2     1  UNL1       -0.0558
      9 C           5.0261   -2.7633   21.5405 C.ar    1  UNL1        0.1175
     10 C           4.6427   -2.4459   20.1255 C.ar    1  UNL1        0.2931
     11 C           6.8641   -4.3100   24.5892 C.2     1  UNL1        0.2456
     12 N           6.4472   -4.8041   25.9428 N.2     1  UNL1       -0.2248
     13 C           7.6286   -5.4793   26.5739 C.3     1  UNL1        0.2255
     14 C           8.7758   -5.4025   25.6104 C.3     1  UNL1        0.2407
     15 O           8.3032   -4.6798   24.3838 O.2     1  UNL1       -0.4564
     16 C           7.6579   -6.1190   27.9303 C.2     1  UNL1        0.2519
     17 O           8.0356   -7.5640   28.0701 O.2     1  UNL1       -0.2726
     18 N           7.3096   -5.3138   29.1470 N.am    1  UNL1       -0.2779
     19 C           7.2949   -5.8143   30.5610 C.3     1  UNL1        0.0935
     20 C           6.8910   -4.6766   31.4512 C.3     1  UNL1        0.0233
     21 C           6.6561   -3.4730   30.5874 C.3     1  UNL1        0.0233
     22 C           6.9147   -3.8668   29.1633 C.3     1  UNL1        0.0935
     23 C           1.6576    0.1030   20.7109 C.3     1  UNL1        0.4185
     24 F           0.5348    1.0584   20.4344 F       1  UNL1       -0.1659
     25 F           0.7255   -1.0533   20.5010 F       1  UNL1       -0.1659
     26 F           2.5899    1.2592   20.9208 F       1  UNL1       -0.1659
     27 N           5.3822   -3.0839   18.9870 N.pl3   1  UNL1        0.0811
     28 O           5.0409   -4.4808   18.5600 O.2     1  UNL1        0.0415
     29 O           6.4629   -2.3250   18.2755 O.co2   1  UNL1       -0.5760
@<TRIPOS>UNITY_ATOM_ATTR
27 1
charge 1
29 1
charge -1
@<TRIPOS>BOND
     1     1     2    1
     2     2     3   ar
     3     3    23    1
     4    23    24    1
     5    23    25    1
     6    23    26    1
     7     3     4   ar
     8     4     5   ar
     9     5     6   ar
    10     6     7   ar
    11     7    11    1
    12    11    12    2
    13    12    13    1
    14    13    16    1
    15    16    17    2
    16    16    18   am
    17    18    19    1
    18    19    20    1
    19    20    21    1
    20    21    22    1
    21    13    14    1
    22    14    15    1
    23     7     8   ar
    24     8     9   ar
    25     9    10   ar
    26    10    27    1
    27    27    28    2
    28    27    29    1
    29    10     2   ar
    30     9     5   ar
    31    15    11    1
    32    22    18    1
@<TRIPOS>MOLECULE
*****
 29 32 0 0 0
SMALL
GASTEIGER

@<TRIPOS>ATOM
      1 C           1.3648    4.3373   36.9649 C.3     1  UNL1        0.0374
      2 C           2.2173    3.1129   36.8095 C.ar    1  UNL1        0.0520
      3 C           2.4492    2.2067   37.9820 C.ar    1  UNL1        0.0749
      4 C           3.3018    0.9823   37.8266 C.ar    1  UNL1        0.0236
      5 C           3.9224    0.6642   36.4986 C.ar    1  UNL1        0.0939
      6 N           4.8029   -0.4628   36.0464 N.ar    1  UNL1       -0.2334
      7 C           5.1152   -0.2531   34.5943 C.ar    1  UNL1        0.1637
      8 S           4.4277    1.0035   34.1491 S.2     1  UNL1       -0.0558
      9 C           3.6904    1.5705   35.3260 C.ar    1  UNL1        0.1175
     10 C           2.8379    2.7948   35.4814 C.ar    1  UNL1        0.2931
     11 C           5.9657   -1.1436   33.7378 C.2     1  UNL1        0.2456
     12 N           5.5222   -2.4133   33.0736 N.2     1  UNL1       -0.2248
     13 C           6.6914   -2.9752   32.3204 C.3     1  UNL1        0.2255
     14 C           7.8575   -2.0528   32.5192 C.3     1  UNL1        0.2407
     15 O           7.4090   -0.9208   33.3953 O.2     1  UNL1       -0.4564
     16 C           6.6941   -4.2378   31.5107 C.2     1  UNL1        0.2519
     17 O           6.7535   -5.5697   32.1982 O.2     1  UNL1       -0.2726
     18 N           6.6374   -4.1687   30.0133 N.am    1  UNL1       -0.2779
     19 C           6.6331   -5.3399   29.0761 C.3     1  UNL1        0.0935
     20 C           6.5681   -4.8113   27.6739 C.3     1  UNL1        0.0233
     21 C           6.5322   -3.3134   27.7444 C.3     1  UNL1        0.0233
     22 C           6.5751   -2.9162   29.1903 C.3     1  UNL1        0.0935
     23 C           1.8286    2.5248   39.3101 C.3     1  UNL1        0.4185
     24 F           1.2080    2.8430   40.6381 F       1  UNL1       -0.1659
     25 F           2.9695    3.4473   39.6223 F       1  UNL1       -0.1659
     26 F           0.6877    1.6024   38.9978 F       1  UNL1       -0.1659
     27 N           2.6060    3.7011   34.3089 N.pl3   1  UNL1        0.0811
     28 O           3.5841    4.7963   34.0024 O.2     1  UNL1        0.0415
     29 O           1.3960    3.5121   33.4427 O.co2   1  UNL1       -0.5760
@<TRIPOS>UNITY_ATOM_ATTR
27 1
charge 1
29 1
charge -1
@<TRIPOS>BOND
     1     1     2    1
     2     2     3   ar
     3     3    23    1
     4    23    24    1
     5    23    25    1
     6    23    26    1
     7     3     4   ar
     8     4     5   ar
     9     5     6   ar
    10     6     7   ar
    11     7    11    1
    12    11    12    2
    13    12    13    1
    14    13    16    1
    15    16    17    2
    16    16    18   am
    17    18    19    1
    18    19    20    1
    19    20    21    1
    20    21    22    1
    21    13    14    1
    22    14    15    1
    23     7     8   ar
    24     8     9   ar
    25     9    10   ar
    26    10    27    1
    27    27    28    2
    28    27    29    1
    29    10     2   ar
    30     9     5   ar
    31    15    11    1
    32    22    18    1
@<TRIPOS>MOLECULE
*****
 29 32 0 0 0
SMALL
GASTEIGER

@<TRIPOS>ATOM
      1 C           3.0391   -1.7178   18.8525 C.3     1  UNL1        0.0374
      2 C           3.4779   -1.9948   20.2599 C.ar    1  UNL1        0.0520
      3 C           4.2382   -3.2487   20.5754 C.ar    1  UNL1        0.0749
      4 C           4.6769   -3.5257   21.9829 C.ar    1  UNL1        0.0236
      5 C           4.3552   -2.5488   23.0747 C.ar    1  UNL1        0.0939
      6 N           4.6545   -2.5521   24.5446 N.ar    1  UNL1       -0.2334
      7 C           4.0790   -1.3001   25.1374 C.ar    1  UNL1        0.1637
      8 S           3.4241   -0.5232   24.0340 S.2     1  UNL1       -0.0558
      9 C           3.5948   -1.2950   22.7592 C.ar    1  UNL1        0.1175
     10 C           3.1561   -1.0180   21.3518 C.ar    1  UNL1        0.2931
     11 C           4.1465   -0.8960   26.5804 C.2     1  UNL1        0.2456
     12 N           2.9753   -0.7001   27.4968 N.2     1  UNL1       -0.2248
     13 C           3.5020   -0.2999   28.8431 C.3     1  UNL1        0.2255
     14 C           4.9988   -0.2485   28.7587 C.3     1  UNL1        0.2407
     15 O           5.3971   -0.6169   27.3602 O.2     1  UNL1       -0.4564
     16 C           2.6769   -0.0032   30.0601 C.2     1  UNL1        0.2519
     17 O           2.5005   -1.0499   31.1201 O.2     1  UNL1       -0.2726
     18 N           2.0282    1.3401   30.2172 N.am    1  UNL1       -0.2779
     19 C           1.1790    1.7793   31.3732 C.3     1  UNL1        0.0935
     20 C           0.7407    3.1907   31.1164 C.3     1  UNL1        0.0233
     21 C           1.3189    3.6236   29.8017 C.3     1  UNL1        0.0233
     22 C           2.1146    2.4799   29.2461 C.3     1  UNL1        0.0935
     23 C           4.5599   -4.2256   19.4835 C.3     1  UNL1        0.4185
     24 F           4.8816   -5.2025   18.3916 F       1  UNL1       -0.1659
     25 F           5.8586   -3.5180   19.2330 F       1  UNL1       -0.1659
     26 F           3.2613   -4.9332   19.7340 F       1  UNL1       -0.1659
     27 N           2.3957    0.2359   21.0362 N.pl3   1  UNL1        0.0811
     28 O           3.1352    1.4969   20.6994 O.2     1  UNL1        0.0415
     29 O           0.8959    0.2290   21.0574 O.co2   1  UNL1       -0.5760
@<TRIPOS>UNITY_ATOM_ATTR
27 1
charge 1
29 1
charge -1
@<TRIPOS>BOND
     1     1     2    1
     2     2     3   ar
     3     3    23    1
     4    23    24    1
     5    23    25    1
     6    23    26    1
     7     3     4   ar
     8     4     5   ar
     9     5     6   ar
    10     6     7   ar
    11     7    11    1
    12    11    12    2
    13    12    13    1
    14    13    16    1
    15    16    17    2
    16    16    18   am
    17    18    19    1
    18    19    20    1
    19    20    21    1
    20    21    22    1
    21    13    14    1
    22    14    15    1
    23     7     8   ar
    24     8     9   ar
    25     9    10   ar
    26    10    27    1
    27    27    28    2
    28    27    29    1
    29    10     2   ar
    30     9     5   ar
    31    15    11    1
    32    22    18    1
@<TRIPOS>MOLECULE
*****
 29 32 0 0 0
SMALL
GASTEIGER

@<TRIPOS>ATOM
      1 C           5.4583   -0.3186   19.2399 C.3     1  UNL1        0.0374
      2 C           4.0155   -0.1199   19.5988 C.ar    1  UNL1        0.0520
      3 C           3.1541   -1.3034   19.9261 C.ar    1  UNL1        0.0749
      4 C           1.7113   -1.1047   20.2850 C.ar    1  UNL1        0.0236
      5 C           1.1299    0.2776   20.3166 C.ar    1  UNL1        0.0939
      6 N          -0.2478    0.7800   20.6322 N.ar    1  UNL1       -0.2334
      7 C          -0.2379    2.2741   20.4999 C.ar    1  UNL1        0.1637
      8 S           1.1459    2.6951   20.1026 S.2     1  UNL1       -0.0558
      9 C           1.9912    1.4612   19.9893 C.ar    1  UNL1        0.1175
     10 C           3.4340    1.2625   19.6304 C.ar    1  UNL1        0.2931
     11 C          -1.4066    3.1870   20.7254 C.2     1  UNL1        0.2456
     12 N          -2.8527    2.7892   20.7055 N.2     1  UNL1       -0.2248
     13 C          -3.6742    4.0142   20.9781 C.3     1  UNL1        0.2255
     14 C          -2.7358    5.1692   21.1664 C.3     1  UNL1        0.2407
     15 O          -1.3343    4.6579   21.0102 O.2     1  UNL1       -0.4564
     16 C          -5.1713    4.0739   21.0498 C.2     1  UNL1        0.2519
     17 O          -5.9890    3.9139   19.8024 O.2     1  UNL1       -0.2726
     18 N          -5.8509    4.2936   22.3689 N.am    1  UNL1       -0.2779
     19 C          -7.3315    4.3759   22.5951 C.3     1  UNL1        0.0935
     20 C          -7.5648    4.6027   24.0593 C.3     1  UNL1        0.0233
     21 C          -6.2284    4.6606   24.7381 C.3     1  UNL1        0.0233
     22 C          -5.1692    4.4696   23.6934 C.3     1  UNL1        0.0935
     23 C           3.7356   -2.6859   19.8945 C.3     1  UNL1        0.4185
     24 F           4.3170   -4.0682   19.8629 F       1  UNL1       -0.1659
     25 F           3.5865   -2.7145   18.4022 F       1  UNL1       -0.1659
     26 F           3.8847   -2.6572   21.3868 F       1  UNL1       -0.1659
     27 N           4.2954    2.4461   19.3031 N.pl3   1  UNL1        0.0811
     28 O           4.9657    3.2133   20.4042 O.2     1  UNL1        0.0415
     29 O           4.4866    2.8625   17.8748 O.co2   1  UNL1       -0.5760
@<TRIPOS>UNITY_ATOM_ATTR
27 1
charge 1
29 1
charge -1
@<TRIPOS>BOND
     1     1     2    1
     2     2     3   ar
     3     3    23    1
     4    23    24    1
     5    23    25    1
     6    23    26    1
     7     3     4   ar
     8     4     5   ar
     9     5     6   ar
    10     6     7   ar
    11     7    11    1
    12    11    12    2
    13    12    13    1
    14    13    16    1
    15    16    17    2
    16    16    18   am
    17    18    19    1
    18    19    20    1
    19    20    21    1
    20    21    22    1
    21    13    14    1
    22    14    15    1
    23     7     8   ar
    24     8     9   ar
    25     9    10   ar
    26    10    27    1
    27    27    28    2
    28    27    29    1
    29    10     2   ar
    30     9     5   ar
    31    15    11    1
    32    22    18    1
