@<TRIPOS>MOLECULE
*****
 30 32 0 0 0
SMALL
GASTEIGER

@<TRIPOS>ATOM
      1 C          -9.3007  -17.2918   23.2783 C.ar    1  UNL1        0.1194
      2 N          -8.7768  -15.8924   23.4096 N.ar    1  UNL1       -0.2208
      3 C          -7.3257  -15.6082   23.1578 C.ar    1  UNL1        0.2002
      4 N          -6.3985  -16.7233   22.7745 N.ar    1  UNL1       -0.2058
      5 C          -6.9224  -18.1226   22.6432 C.ar    1  UNL1        0.1695
      6 C          -8.3736  -18.4068   22.8950 C.ar    1  UNL1        0.1835
      7 O          -8.8975  -19.8063   22.7637 O.3     1  UNL1       -0.5020
      8 H          -8.3183  -20.5028   22.5243 H       1  UNL1        0.2924
      9 C         -15.1052  -18.4288   24.2857 C.3     1  UNL1        0.0310
     10 C         -13.6541  -18.1445   24.0338 C.ar    1  UNL1       -0.0218
     11 C         -13.2559  -17.1500   22.9839 C.ar    1  UNL1       -0.0042
     12 C         -11.8048  -16.8658   22.7321 C.ar    1  UNL1        0.0013
     13 C         -10.7519  -17.5760   23.5301 C.ar    1  UNL1        0.0208
     14 C         -11.1501  -18.5705   24.5800 C.ar    1  UNL1        0.0013
     15 C         -12.6012  -18.8548   24.8319 C.ar    1  UNL1       -0.0042
     16 N          -5.9952  -19.2378   22.2600 N.pl3   1  UNL1       -0.2948
     17 H          -6.2446  -20.1716   22.4473 H       1  UNL1        0.1537
     18 C          -4.6882  -18.9301   21.5914 C.ar    1  UNL1        0.0601
     19 C          -4.5364  -19.1319   20.1127 C.ar    1  UNL1        0.0157
     20 C          -3.2293  -18.8242   19.4441 C.ar    1  UNL1        0.0087
     21 C          -2.0742  -18.3148   20.2542 C.ar    1  UNL1        0.0822
     22 C          -2.2260  -18.1130   21.7327 C.ar    1  UNL1        0.0200
     23 C          -3.5331  -18.4206   22.4013 C.ar    1  UNL1        0.0713
     24 CL         -3.6849  -18.2188   23.8800 Cl      1  UNL1       -0.0809
     25 C          -0.7671  -18.0071   19.5856 C.2     1  UNL1        0.3094
     26 N           0.4932  -17.9431   20.3963 N.2     1  UNL1       -0.0994
     27 N          -0.7205  -17.7634   18.1062 N.pl3   1  UNL1       -0.2466
     28 H           0.4627  -18.1030   21.3672 H       1  UNL1        0.3633
     29 H          -1.5478  -17.8054   17.5741 H       1  UNL1        0.2884
     30 H           0.1373  -17.5615   17.6673 H       1  UNL1        0.2884
@<TRIPOS>BOND
     1     9    10    1
     2    10    11   ar
     3    11    12   ar
     4    12    13   ar
     5    13     1    1
     6     1     2   ar
     7     2     3   ar
     8     3     4   ar
     9     4     5   ar
    10     5    16    1
    11    16    18    1
    12    18    19   ar
    13    19    20   ar
    14    20    21   ar
    15    21    25    1
    16    25    26    2
    17    25    27    1
    18    21    22   ar
    19    22    23   ar
    20    23    24    1
    21     5     6   ar
    22     6     7    1
    23    13    14   ar
    24    14    15   ar
    25    15    10   ar
    26     6     1   ar
    27    23    18   ar
    28    16    17    1
    29    26    28    1
    30    27    29    1
    31    27    30    1
    32     7     8    1
@<TRIPOS>MOLECULE
*****
 30 32 0 0 0
SMALL
GASTEIGER

@<TRIPOS>ATOM
      1 C          -9.6852  -19.0718   21.4379 C.ar    1  UNL1        0.1194
      2 N          -9.7593  -19.0066   19.9412 N.ar    1  UNL1       -0.2208
      3 C          -8.5335  -19.2690   19.1174 C.ar    1  UNL1        0.2002
      4 N          -7.2336  -19.5967   19.7904 N.ar    1  UNL1       -0.2058
      5 C          -7.1595  -19.6619   21.2871 C.ar    1  UNL1        0.1695
      6 C          -8.3853  -19.3995   22.1108 C.ar    1  UNL1        0.1835
      7 O          -8.3112  -19.4648   23.6076 O.3     1  UNL1       -0.5020
      8 H          -7.4992  -19.6695   24.0280 H       1  UNL1        0.2924
      9 C         -14.5883  -18.0221   24.7330 C.3     1  UNL1        0.0310
     10 C         -13.3625  -18.2845   23.9092 C.ar    1  UNL1       -0.0218
     11 C         -12.1899  -18.9970   24.5153 C.ar    1  UNL1       -0.0042
     12 C         -10.9642  -19.2594   23.6916 C.ar    1  UNL1        0.0013
     13 C         -10.9110  -18.8094   22.2617 C.ar    1  UNL1        0.0208
     14 C         -12.0835  -18.0969   21.6556 C.ar    1  UNL1        0.0013
     15 C         -13.3093  -17.8345   22.4794 C.ar    1  UNL1       -0.0042
     16 N          -5.8596  -19.9896   21.9601 N.pl3   1  UNL1       -0.2948
     17 H          -5.8539  -20.5296   22.7833 H       1  UNL1        0.1537
     18 C          -4.5685  -19.4947   21.3788 C.ar    1  UNL1        0.0601
     19 C          -4.1400  -19.9433   20.0131 C.ar    1  UNL1        0.0157
     20 C          -2.8488  -19.4484   19.4318 C.ar    1  UNL1        0.0087
     21 C          -1.9861  -18.5047   20.2163 C.ar    1  UNL1        0.0822
     22 C          -2.4146  -18.0560   21.5819 C.ar    1  UNL1        0.0200
     23 C          -3.7058  -18.5510   22.1632 C.ar    1  UNL1        0.0713
     24 CL         -4.1342  -18.1023   23.5289 Cl      1  UNL1       -0.0809
     25 C          -0.6950  -18.0097   19.6350 C.2     1  UNL1        0.3094
     26 N           0.4929  -17.7908   20.5244 N.2     1  UNL1       -0.0994
     27 N          -0.5917  -17.7335   18.1642 N.pl3   1  UNL1       -0.2466
     28 H           0.4251  -17.9721   21.4897 H       1  UNL1        0.3633
     29 H          -1.3713  -17.8772   17.5804 H       1  UNL1        0.2884
     30 H           0.2558  -17.4087   17.7827 H       1  UNL1        0.2884
@<TRIPOS>BOND
     1     9    10    1
     2    10    11   ar
     3    11    12   ar
     4    12    13   ar
     5    13     1    1
     6     1     2   ar
     7     2     3   ar
     8     3     4   ar
     9     4     5   ar
    10     5    16    1
    11    16    18    1
    12    18    19   ar
    13    19    20   ar
    14    20    21   ar
    15    21    25    1
    16    25    26    2
    17    25    27    1
    18    21    22   ar
    19    22    23   ar
    20    23    24    1
    21     5     6   ar
    22     6     7    1
    23    13    14   ar
    24    14    15   ar
    25    15    10   ar
    26     6     1   ar
    27    23    18   ar
    28    16    17    1
    29    26    28    1
    30    27    29    1
    31    27    30    1
    32     7     8    1
@<TRIPOS>MOLECULE
*****
 30 32 0 0 0
SMALL
GASTEIGER

@<TRIPOS>ATOM
      1 C          -8.5451  -17.0462   23.5442 C.ar    1  UNL1        0.1194
      2 N          -8.0456  -15.6596   23.8230 N.ar    1  UNL1       -0.2208
      3 C          -6.5792  -15.3577   23.7293 C.ar    1  UNL1        0.2002
      4 N          -5.6125  -16.4424   23.3570 N.ar    1  UNL1       -0.2058
      5 C          -6.1120  -17.8290   23.0783 C.ar    1  UNL1        0.1695
      6 C          -7.5783  -18.1309   23.1719 C.ar    1  UNL1        0.1835
      7 O          -8.0779  -19.5176   22.8931 O.3     1  UNL1       -0.5020
      8 H          -7.4739  -20.1952   22.6605 H       1  UNL1        0.2924
      9 C         -14.4104  -18.2538   23.9187 C.3     1  UNL1        0.0310
     10 C         -12.9441  -17.9519   23.8251 C.ar    1  UNL1       -0.0218
     11 C         -11.9897  -18.5546   24.8129 C.ar    1  UNL1       -0.0042
     12 C         -10.5234  -18.2527   24.7193 C.ar    1  UNL1        0.0013
     13 C         -10.0114  -17.3481   23.6379 C.ar    1  UNL1        0.0208
     14 C         -10.9658  -16.7454   22.6500 C.ar    1  UNL1        0.0013
     15 C         -12.4321  -17.0473   22.7437 C.ar    1  UNL1       -0.0042
     16 N          -5.1452  -18.9139   22.7059 N.pl3   1  UNL1       -0.2948
     17 H          -5.2038  -19.7957   23.1397 H       1  UNL1        0.1537
     18 C          -4.0892  -18.6551   21.6725 C.ar    1  UNL1        0.0601
     19 C          -2.8905  -17.8218   22.0174 C.ar    1  UNL1        0.0157
     20 C          -1.8346  -17.5630   20.9840 C.ar    1  UNL1        0.0087
     21 C          -1.9773  -18.1375   19.6057 C.ar    1  UNL1        0.0822
     22 C          -3.1759  -18.9707   19.2608 C.ar    1  UNL1        0.0200
     23 C          -4.2319  -19.2295   20.2942 C.ar    1  UNL1        0.0713
     24 CL         -5.4306  -20.0628   19.9493 Cl      1  UNL1       -0.0809
     25 C          -0.9213  -17.8787   18.5723 C.2     1  UNL1        0.3094
     26 N          -1.2817  -17.8752   17.1162 N.2     1  UNL1       -0.0994
     27 N           0.4952  -17.6235   18.9949 N.pl3   1  UNL1       -0.2466
     28 H          -2.2113  -18.0427   16.8388 H       1  UNL1        0.3633
     29 H           0.7317  -17.6258   19.9506 H       1  UNL1        0.2884
     30 H           1.1883  -17.4536   18.3167 H       1  UNL1        0.2884
@<TRIPOS>BOND
     1     9    10    1
     2    10    11   ar
     3    11    12   ar
     4    12    13   ar
     5    13     1    1
     6     1     2   ar
     7     2     3   ar
     8     3     4   ar
     9     4     5   ar
    10     5    16    1
    11    16    18    1
    12    18    19   ar
    13    19    20   ar
    14    20    21   ar
    15    21    25    1
    16    25    26    2
    17    25    27    1
    18    21    22   ar
    19    22    23   ar
    20    23    24    1
    21     5     6   ar
    22     6     7    1
    23    13    14   ar
    24    14    15   ar
    25    15    10   ar
    26     6     1   ar
    27    23    18   ar
    28    16    17    1
    29    26    28    1
    30    27    29    1
    31    27    30    1
    32     7     8    1
@<TRIPOS>MOLECULE
*****
 30 32 0 0 0
SMALL
GASTEIGER

@<TRIPOS>ATOM
      1 C           3.8705   -2.3212   19.6280 C.ar    1  UNL1        0.1194
      2 N           3.5700   -3.6173   18.9353 N.ar    1  UNL1       -0.2208
      3 C           4.4600   -4.8057   19.1486 C.ar    1  UNL1        0.2002
      4 N           5.6507   -4.6980   20.0545 N.ar    1  UNL1       -0.2058
      5 C           5.9512   -3.4020   20.7472 C.ar    1  UNL1        0.1695
      6 C           5.0612   -2.2136   20.5339 C.ar    1  UNL1        0.1835
      7 O           5.3618   -0.9175   21.2267 O.3     1  UNL1       -0.5020
      8 H           6.1056   -0.8502   21.7926 H       1  UNL1        0.2924
      9 C           0.3103    2.4325   18.7750 C.3     1  UNL1        0.0310
     10 C           1.2004    1.2440   18.9883 C.ar    1  UNL1       -0.0218
     11 C           2.4893    1.1267   18.2301 C.ar    1  UNL1       -0.0042
     12 C           3.3794   -0.0617   18.4434 C.ar    1  UNL1        0.0013
     13 C           2.9805   -1.1328   19.4148 C.ar    1  UNL1        0.0208
     14 C           1.6916   -1.0154   20.1729 C.ar    1  UNL1        0.0013
     15 C           0.8015    0.1730   19.9597 C.ar    1  UNL1       -0.0042
     16 N           7.1419   -3.2943   21.6532 N.pl3   1  UNL1       -0.2948
     17 H           7.9532   -2.8283   21.3466 H       1  UNL1        0.1537
     18 C           7.0965   -3.8966   23.0262 C.ar    1  UNL1        0.0601
     19 C           6.3026   -3.2312   24.1112 C.ar    1  UNL1        0.0157
     20 C           6.2572   -3.8335   25.4842 C.ar    1  UNL1        0.0087
     21 C           7.0057   -5.1012   25.7722 C.ar    1  UNL1        0.0822
     22 C           7.7995   -5.7665   24.6873 C.ar    1  UNL1        0.0200
     23 C           7.8449   -5.1642   23.3143 C.ar    1  UNL1        0.0713
     24 CL          8.6388   -5.8296   22.2293 Cl      1  UNL1       -0.0809
     25 C           6.9603   -5.7035   27.1452 C.2     1  UNL1        0.3094
     26 N           5.6565   -5.7953   27.8812 N.2     1  UNL1       -0.0994
     27 N           8.2187   -6.2140   27.7823 N.pl3   1  UNL1       -0.2466
     28 H           4.8306   -5.4602   27.4631 H       1  UNL1        0.3633
     29 H           9.0744   -6.1538   27.2992 H       1  UNL1        0.2884
     30 H           8.1889   -6.6094   28.6834 H       1  UNL1        0.2884
@<TRIPOS>BOND
     1     9    10    1
     2    10    11   ar
     3    11    12   ar
     4    12    13   ar
     5    13     1    1
     6     1     2   ar
     7     2     3   ar
     8     3     4   ar
     9     4     5   ar
    10     5    16    1
    11    16    18    1
    12    18    19   ar
    13    19    20   ar
    14    20    21   ar
    15    21    25    1
    16    25    26    2
    17    25    27    1
    18    21    22   ar
    19    22    23   ar
    20    23    24    1
    21     5     6   ar
    22     6     7    1
    23    13    14   ar
    24    14    15   ar
    25    15    10   ar
    26     6     1   ar
    27    23    18   ar
    28    16    17    1
    29    26    28    1
    30    27    29    1
    31    27    30    1
    32     7     8    1
@<TRIPOS>MOLECULE
*****
 30 32 0 0 0
SMALL
GASTEIGER

@<TRIPOS>ATOM
      1 C           7.8427   -3.6854   21.0244 C.ar    1  UNL1        0.1194
      2 N           8.9296   -2.6850   20.7640 N.ar    1  UNL1       -0.2208
      3 C           8.7754   -1.6800   19.6612 C.ar    1  UNL1        0.2002
      4 N           7.5344   -1.6754   18.8187 N.ar    1  UNL1       -0.2058
      5 C           6.4475   -2.6758   19.0791 C.ar    1  UNL1        0.1695
      6 C           6.6016   -3.6807   20.1820 C.ar    1  UNL1        0.1835
      7 O           5.5147   -4.6811   20.4423 O.3     1  UNL1       -0.5020
      8 H           4.7394   -4.6783   19.9161 H       1  UNL1        0.2924
      9 C           8.4593   -7.7053   25.4357 C.3     1  UNL1        0.0310
     10 C           8.3051   -6.7003   24.3329 C.ar    1  UNL1       -0.0218
     11 C           7.5047   -5.4526   24.5617 C.ar    1  UNL1       -0.0042
     12 C           7.3506   -4.4476   23.4589 C.ar    1  UNL1        0.0013
     13 C           7.9968   -4.6903   22.1272 C.ar    1  UNL1        0.0208
     14 C           8.7973   -5.9381   21.8984 C.ar    1  UNL1        0.0013
     15 C           8.9514   -6.9431   23.0012 C.ar    1  UNL1       -0.0042
     16 N           5.2064   -2.6712   18.2367 N.pl3   1  UNL1       -0.2948
     17 H           5.1357   -3.2733   17.4610 H       1  UNL1        0.1537
     18 C           4.0729   -1.7492   18.5761 C.ar    1  UNL1        0.0601
     19 C           3.1504   -2.0811   19.7114 C.ar    1  UNL1        0.0157
     20 C           2.0169   -1.1592   20.0509 C.ar    1  UNL1        0.0087
     21 C           1.8060    0.0948   19.2551 C.ar    1  UNL1        0.0822
     22 C           2.7285    0.4267   18.1199 C.ar    1  UNL1        0.0200
     23 C           3.8620   -0.4953   17.7804 C.ar    1  UNL1        0.0713
     24 CL          4.7846   -0.1634   16.6451 Cl      1  UNL1       -0.0809
     25 C           0.6726    1.0168   19.5945 C.2     1  UNL1        0.3094
     26 N           0.4528    2.2632   18.7895 N.2     1  UNL1       -0.0994
     27 N          -0.2411    0.6923   20.7391 N.pl3   1  UNL1       -0.2466
     28 H           1.0525    2.4761   18.0383 H       1  UNL1        0.3633
     29 H          -0.0969   -0.1258   21.2674 H       1  UNL1        0.2884
     30 H          -0.9851    1.2974   20.9619 H       1  UNL1        0.2884
@<TRIPOS>BOND
     1     9    10    1
     2    10    11   ar
     3    11    12   ar
     4    12    13   ar
     5    13     1    1
     6     1     2   ar
     7     2     3   ar
     8     3     4   ar
     9     4     5   ar
    10     5    16    1
    11    16    18    1
    12    18    19   ar
    13    19    20   ar
    14    20    21   ar
    15    21    25    1
    16    25    26    2
    17    25    27    1
    18    21    22   ar
    19    22    23   ar
    20    23    24    1
    21     5     6   ar
    22     6     7    1
    23    13    14   ar
    24    14    15   ar
    25    15    10   ar
    26     6     1   ar
    27    23    18   ar
    28    16    17    1
    29    26    28    1
    30    27    29    1
    31    27    30    1
    32     7     8    1
@<TRIPOS>MOLECULE
*****
 30 32 0 0 0
SMALL
GASTEIGER

@<TRIPOS>ATOM
      1 C         -13.4762   -2.9597   18.5639 C.ar    1  UNL1        0.1194
      2 N         -12.3057   -3.4264   19.3775 N.ar    1  UNL1       -0.2208
      3 C         -11.7844   -4.8228   19.2092 C.ar    1  UNL1        0.2002
      4 N         -12.4336   -5.7524   18.2272 N.ar    1  UNL1       -0.2058
      5 C         -13.6041   -5.2857   17.4136 C.ar    1  UNL1        0.1695
      6 C         -14.1254   -3.8893   17.5819 C.ar    1  UNL1        0.1835
      7 O         -15.2959   -3.4226   16.7682 O.3     1  UNL1       -0.5020
      8 H         -15.7015   -4.0033   16.1548 H       1  UNL1        0.2924
      9 C         -15.5614    2.6259   19.2372 C.3     1  UNL1        0.0310
     10 C         -15.0401    1.2295   19.0689 C.ar    1  UNL1       -0.0218
     11 C         -15.7968    0.0715   19.6487 C.ar    1  UNL1       -0.0042
     12 C         -15.2755   -1.3249   19.4804 C.ar    1  UNL1        0.0013
     13 C         -13.9975   -1.5633   18.7322 C.ar    1  UNL1        0.0208
     14 C         -13.2408   -0.4052   18.1523 C.ar    1  UNL1        0.0013
     15 C         -13.7621    0.9912   18.3207 C.ar    1  UNL1       -0.0042
     16 N         -14.2533   -6.2153   16.4316 N.pl3   1  UNL1       -0.2948
     17 H         -14.1458   -6.0635   15.4648 H       1  UNL1        0.1537
     18 C         -15.0663   -7.3763   16.9225 C.ar    1  UNL1        0.0601
     19 C         -14.3812   -8.6116   17.4273 C.ar    1  UNL1        0.0157
     20 C         -15.1942   -9.7726   17.9183 C.ar    1  UNL1        0.0087
     21 C         -16.6924   -9.6984   17.9045 C.ar    1  UNL1        0.0822
     22 C         -17.3774   -8.4631   17.3998 C.ar    1  UNL1        0.0200
     23 C         -16.5644   -7.3021   16.9088 C.ar    1  UNL1        0.0713
     24 CL        -17.2495   -6.0668   16.4040 Cl      1  UNL1       -0.0809
     25 C         -17.5054  -10.8594   18.3955 C.2     1  UNL1        0.3094
     26 N         -16.8515  -11.9495   19.1918 N.2     1  UNL1       -0.0994
     27 N         -18.9723  -10.9302   18.0902 N.pl3   1  UNL1       -0.2466
     28 H         -15.8887  -11.9030   19.3921 H       1  UNL1        0.3633
     29 H         -19.4015  -10.2147   17.5676 H       1  UNL1        0.2884
     30 H         -19.5059  -11.6922   18.4125 H       1  UNL1        0.2884
@<TRIPOS>BOND
     1     9    10    1
     2    10    11   ar
     3    11    12   ar
     4    12    13   ar
     5    13     1    1
     6     1     2   ar
     7     2     3   ar
     8     3     4   ar
     9     4     5   ar
    10     5    16    1
    11    16    18    1
    12    18    19   ar
    13    19    20   ar
    14    20    21   ar
    15    21    25    1
    16    25    26    2
    17    25    27    1
    18    21    22   ar
    19    22    23   ar
    20    23    24    1
    21     5     6   ar
    22     6     7    1
    23    13    14   ar
    24    14    15   ar
    25    15    10   ar
    26     6     1   ar
    27    23    18   ar
    28    16    17    1
    29    26    28    1
    30    27    29    1
    31    27    30    1
    32     7     8    1
@<TRIPOS>MOLECULE
*****
 30 32 0 0 0
SMALL
GASTEIGER

@<TRIPOS>ATOM
      1 C           6.6215  -12.2785   28.1259 C.ar    1  UNL1        0.1194
      2 N           7.6493  -13.2979   28.5186 N.ar    1  UNL1       -0.2208
      3 C           9.1062  -12.9415   28.4955 C.ar    1  UNL1        0.2002
      4 N           9.5352  -11.5657   28.0797 N.ar    1  UNL1       -0.2058
      5 C           8.5074  -10.5463   27.6869 C.ar    1  UNL1        0.1695
      6 C           7.0505  -10.9027   27.7101 C.ar    1  UNL1        0.1835
      7 O           6.0226   -9.8831   27.3173 O.3     1  UNL1       -0.5020
      8 H           6.2907   -9.0237   27.0576 H       1  UNL1        0.2924
      9 C           0.7940  -13.7041   28.2185 C.3     1  UNL1        0.0310
     10 C           2.2509  -13.3477   28.1953 C.ar    1  UNL1       -0.0218
     11 C           3.1219  -13.8245   27.0711 C.ar    1  UNL1       -0.0042
     12 C           4.5788  -13.4681   27.0480 C.ar    1  UNL1        0.0013
     13 C           5.1646  -12.6349   28.1491 C.ar    1  UNL1        0.0208
     14 C           4.2936  -12.1580   29.2733 C.ar    1  UNL1        0.0013
     15 C           2.8367  -12.5144   29.2964 C.ar    1  UNL1       -0.0042
     16 N           8.9364   -9.1703   27.2711 N.pl3   1  UNL1       -0.2948
     17 H           9.3283   -9.0253   26.3797 H       1  UNL1        0.1537
     18 C           8.7682   -8.0154   28.2134 C.ar    1  UNL1        0.0601
     19 C           9.5215   -7.9898   29.5103 C.ar    1  UNL1        0.0157
     20 C           9.3533   -6.8349   30.4526 C.ar    1  UNL1        0.0087
     21 C           8.4318   -5.7057   30.0980 C.ar    1  UNL1        0.0822
     22 C           7.6785   -5.7314   28.8012 C.ar    1  UNL1        0.0200
     23 C           7.8467   -6.8863   27.8588 C.ar    1  UNL1        0.0713
     24 CL          7.0933   -6.9119   26.5619 Cl      1  UNL1       -0.0809
     25 C           8.2636   -4.5508   31.0403 C.2     1  UNL1        0.3094
     26 N           7.2757   -4.6387   32.1656 N.2     1  UNL1       -0.0994
     27 N           9.0833   -3.3079   30.8572 N.pl3   1  UNL1       -0.2466
     28 H           6.7377   -5.4544   32.2857 H       1  UNL1        0.3633
     29 H           9.7317   -3.2502   30.1186 H       1  UNL1        0.2884
     30 H           8.9729   -2.5499   31.4757 H       1  UNL1        0.2884
@<TRIPOS>BOND
     1     9    10    1
     2    10    11   ar
     3    11    12   ar
     4    12    13   ar
     5    13     1    1
     6     1     2   ar
     7     2     3   ar
     8     3     4   ar
     9     4     5   ar
    10     5    16    1
    11    16    18    1
    12    18    19   ar
    13    19    20   ar
    14    20    21   ar
    15    21    25    1
    16    25    26    2
    17    25    27    1
    18    21    22   ar
    19    22    23   ar
    20    23    24    1
    21     5     6   ar
    22     6     7    1
    23    13    14   ar
    24    14    15   ar
    25    15    10   ar
    26     6     1   ar
    27    23    18   ar
    28    16    17    1
    29    26    28    1
    30    27    29    1
    31    27    30    1
    32     7     8    1
@<TRIPOS>MOLECULE
*****
 30 32 0 0 0
SMALL
GASTEIGER

@<TRIPOS>ATOM
      1 C          -8.4554  -17.7323   22.2532 C.ar    1  UNL1        0.1194
      2 N          -9.6389  -17.5976   21.3416 N.ar    1  UNL1       -0.2208
      3 C          -9.6468  -18.2969   20.0146 C.ar    1  UNL1        0.2002
      4 N          -8.4712  -19.1308   19.5992 N.ar    1  UNL1       -0.2058
      5 C          -7.2877  -19.2655   20.5108 C.ar    1  UNL1        0.1695
      6 C          -7.2798  -18.5662   21.8378 C.ar    1  UNL1        0.1835
      7 O          -6.0962  -18.7009   22.7495 O.3     1  UNL1       -0.5020
      8 H          -5.3618  -19.2218   22.4900 H       1  UNL1        0.2924
      9 C          -8.4236  -14.9352   27.5612 C.3     1  UNL1        0.0310
     10 C          -8.4315  -15.6344   26.2342 C.ar    1  UNL1       -0.0218
     11 C          -9.1536  -16.9399   26.0787 C.ar    1  UNL1       -0.0042
     12 C          -9.1616  -17.6392   24.7517 C.ar    1  UNL1        0.0013
     13 C          -8.4474  -17.0330   23.5802 C.ar    1  UNL1        0.0208
     14 C          -7.7253  -15.7275   23.7357 C.ar    1  UNL1        0.0013
     15 C          -7.7174  -15.0282   25.0627 C.ar    1  UNL1       -0.0042
     16 N          -6.1121  -20.0994   20.0955 N.pl3   1  UNL1       -0.2948
     17 H          -6.2462  -21.0325   19.8116 H       1  UNL1        0.1537
     18 C          -4.7322  -19.5116   20.1127 C.ar    1  UNL1        0.0601
     19 C          -4.2819  -18.6219   18.9920 C.ar    1  UNL1        0.0157
     20 C          -2.9020  -18.0342   19.0092 C.ar    1  UNL1        0.0087
     21 C          -1.9723  -18.3361   20.1471 C.ar    1  UNL1        0.0822
     22 C          -2.4226  -19.2257   21.2676 C.ar    1  UNL1        0.0200
     23 C          -3.8025  -19.8135   21.2504 C.ar    1  UNL1        0.0713
     24 CL         -4.2528  -20.7032   22.3711 Cl      1  UNL1       -0.0809
     25 C          -0.5923  -17.7483   20.1643 C.2     1  UNL1        0.3094
     26 N           0.5963  -18.6166   19.8762 N.2     1  UNL1       -0.0994
     27 N          -0.4011  -16.2921   20.4696 N.pl3   1  UNL1       -0.2466
     28 H           0.4708  -19.5723   19.6758 H       1  UNL1        0.3633
     29 H          -1.1813  -15.7222   20.6587 H       1  UNL1        0.2884
     30 H           0.5045  -15.9063   20.4809 H       1  UNL1        0.2884
@<TRIPOS>BOND
     1     9    10    1
     2    10    11   ar
     3    11    12   ar
     4    12    13   ar
     5    13     1    1
     6     1     2   ar
     7     2     3   ar
     8     3     4   ar
     9     4     5   ar
    10     5    16    1
    11    16    18    1
    12    18    19   ar
    13    19    20   ar
    14    20    21   ar
    15    21    25    1
    16    25    26    2
    17    25    27    1
    18    21    22   ar
    19    22    23   ar
    20    23    24    1
    21     5     6   ar
    22     6     7    1
    23    13    14   ar
    24    14    15   ar
    25    15    10   ar
    26     6     1   ar
    27    23    18   ar
    28    16    17    1
    29    26    28    1
    30    27    29    1
    31    27    30    1
    32     7     8    1
@<TRIPOS>MOLECULE
*****
 30 32 0 0 0
SMALL
GASTEIGER

@<TRIPOS>ATOM
      1 C         -15.8970   -1.7878   18.4377 C.ar    1  UNL1        0.1194
      2 N         -16.2479   -1.9324   16.9866 N.ar    1  UNL1       -0.2208
      3 C         -16.1009   -3.2622   16.3083 C.ar    1  UNL1        0.2002
      4 N         -15.6030   -4.4474   17.0812 N.ar    1  UNL1       -0.2058
      5 C         -15.2522   -4.3028   18.5323 C.ar    1  UNL1        0.1695
      6 C         -15.3992   -2.9730   19.2106 C.ar    1  UNL1        0.1835
      7 O         -15.0483   -2.8285   20.6619 O.3     1  UNL1       -0.5020
      8 H         -14.7373   -3.5688   21.1447 H       1  UNL1        0.2924
      9 C         -16.4851    3.5313   21.1509 C.3     1  UNL1        0.0310
     10 C         -16.3381    2.2015   20.4726 C.ar    1  UNL1       -0.0218
     11 C         -15.3349    2.0283   19.3710 C.ar    1  UNL1       -0.0042
     12 C         -15.1879    0.6985   18.6927 C.ar    1  UNL1        0.0013
     13 C         -16.0441   -0.4580   19.1160 C.ar    1  UNL1        0.0208
     14 C         -17.0472   -0.2849   20.2177 C.ar    1  UNL1        0.0013
     15 C         -17.1942    1.0449   20.8959 C.ar    1  UNL1       -0.0042
     16 N         -14.7542   -5.4880   19.3053 N.pl3   1  UNL1       -0.2948
     17 H         -13.9899   -5.3903   19.9181 H       1  UNL1        0.1537
     18 C         -15.4210   -6.8221   19.1447 C.ar    1  UNL1        0.0601
     19 C         -16.8600   -6.9929   19.5323 C.ar    1  UNL1        0.0157
     20 C         -17.5267   -8.3269   19.3717 C.ar    1  UNL1        0.0087
     21 C         -16.7544   -9.4902   18.8233 C.ar    1  UNL1        0.0822
     22 C         -15.3155   -9.3193   18.4357 C.ar    1  UNL1        0.0200
     23 C         -14.6488   -7.9853   18.5964 C.ar    1  UNL1        0.0713
     24 CL        -13.2098   -7.8144   18.2087 Cl      1  UNL1       -0.0809
     25 C         -17.4211  -10.8242   18.6627 C.2     1  UNL1        0.3094
     26 N         -16.7033  -12.0757   19.0731 N.2     1  UNL1       -0.0994
     27 N         -18.8058  -10.9067   18.0916 N.pl3   1  UNL1       -0.2466
     28 H         -15.7946  -12.0215   19.4479 H       1  UNL1        0.3633
     29 H         -19.2769  -10.0853   17.8222 H       1  UNL1        0.2884
     30 H         -19.2434  -11.7823   17.9861 H       1  UNL1        0.2884
@<TRIPOS>BOND
     1     9    10    1
     2    10    11   ar
     3    11    12   ar
     4    12    13   ar
     5    13     1    1
     6     1     2   ar
     7     2     3   ar
     8     3     4   ar
     9     4     5   ar
    10     5    16    1
    11    16    18    1
    12    18    19   ar
    13    19    20   ar
    14    20    21   ar
    15    21    25    1
    16    25    26    2
    17    25    27    1
    18    21    22   ar
    19    22    23   ar
    20    23    24    1
    21     5     6   ar
    22     6     7    1
    23    13    14   ar
    24    14    15   ar
    25    15    10   ar
    26     6     1   ar
    27    23    18   ar
    28    16    17    1
    29    26    28    1
    30    27    29    1
    31    27    30    1
    32     7     8    1
