@<TRIPOS>MOLECULE
*****
 31 33 0 0 0
SMALL
GASTEIGER

@<TRIPOS>ATOM
      1 C          -5.6767  -17.6303   22.9070 C.ar    1  UNL1        0.0942
      2 C          -5.9378  -16.5005   23.8586 C.ar    1  UNL1        0.1078
      3 N          -7.3430  -16.1789   24.2735 N.ar    1  UNL1       -0.2119
      4 C          -8.4871  -16.9870   23.7367 C.ar    1  UNL1        0.2207
      5 N          -8.2260  -18.1168   22.7851 N.ar    1  UNL1       -0.2094
      6 C          -6.8208  -18.4384   22.3703 C.ar    1  UNL1        0.1613
      7 O          -3.2710  -16.8487   22.3142 O.2     1  UNL1       -0.2700
      8 C          -4.2716  -17.9519   22.4922 C.2     1  UNL1        0.2488
      9 N          -3.8671  -19.3768   22.2554 N.am    1  UNL1       -0.3008
     10 H          -4.5238  -20.1009   22.3722 H       1  UNL1        0.1497
     11 C          -2.4619  -19.6985   21.8405 C.3     1  UNL1        0.0898
     12 C          -1.8579  -19.0188   20.6475 C.3     1  UNL1        0.0246
     13 C          -0.4499  -18.5055   20.7098 C.3     1  UNL1        0.0338
     14 C           0.1540  -17.8258   19.5168 C.3     1  UNL1        0.1422
     15 O          -0.6500  -17.6595   18.2615 O.3     1  UNL1       -0.3538
     16 C          -2.0580  -18.1729   18.1991 C.3     1  UNL1        0.1422
     17 C          -2.6620  -18.8525   19.3921 C.3     1  UNL1        0.0338
     18 C          -6.5597  -19.5681   21.4187 C.3     1  UNL1        0.4351
     19 F          -6.2986  -20.6979   20.4671 F       1  UNL1       -0.1644
     20 F          -6.4091  -18.5865   20.2946 F       1  UNL1       -0.1644
     21 F          -6.7102  -20.5498   22.5428 F       1  UNL1       -0.1644
     22 N          -9.8922  -16.6654   24.1516 N.pl3   1  UNL1       -0.2808
     23 H         -10.0681  -16.2898   25.0444 H       1  UNL1        0.1551
     24 C         -11.0294  -16.9160   23.2060 C.ar    1  UNL1        0.0791
     25 C         -11.0696  -16.2171   21.8794 C.ar    1  UNL1        0.0284
     26 C         -12.2067  -16.4677   20.9338 C.ar    1  UNL1        0.0590
     27 CL        -12.2469  -15.7689   19.6071 Cl      1  UNL1       -0.0822
     28 C         -13.3037  -17.4172   21.3149 C.ar    1  UNL1        0.0138
     29 C         -13.2635  -18.1160   22.6415 C.ar    1  UNL1        0.0318
     30 C         -12.1263  -17.8654   23.5871 C.ar    1  UNL1        0.1535
     31 F         -12.0861  -18.5643   24.9138 F       1  UNL1       -0.2029
@<TRIPOS>BOND
     1     7     8    2
     2     8     9   am
     3     9    11    1
     4    11    12    1
     5    12    13    1
     6    13    14    1
     7    14    15    1
     8    15    16    1
     9    16    17    1
    10     8     1    1
    11     1     2   ar
    12     2     3   ar
    13     3     4   ar
    14     4    22    1
    15    22    24    1
    16    24    25   ar
    17    25    26   ar
    18    26    27    1
    19    26    28   ar
    20    28    29   ar
    21    29    30   ar
    22    30    31    1
    23     4     5   ar
    24     5     6   ar
    25     6    18    1
    26    18    19    1
    27    18    20    1
    28    18    21    1
    29    17    12    1
    30     6     1   ar
    31    30    24   ar
    32     9    10    1
    33    22    23    1
@<TRIPOS>MOLECULE
*****
 31 33 0 0 0
SMALL
GASTEIGER

@<TRIPOS>ATOM
      1 C           6.0731   -2.3802   19.3588 C.ar    1  UNL1        0.0942
      2 C           7.4553   -1.9381   19.7381 C.ar    1  UNL1        0.1078
      3 N           8.3329   -2.8386   20.5558 N.ar    1  UNL1       -0.2119
      4 C           7.8283   -4.1815   20.9943 C.ar    1  UNL1        0.2207
      5 N           6.4460   -4.6237   20.6151 N.ar    1  UNL1       -0.2094
      6 C           5.5684   -3.7230   19.7973 C.ar    1  UNL1        0.1613
      7 O           5.0271   -1.7289   17.0716 O.2     1  UNL1       -0.2700
      8 C           5.1955   -1.4797   18.5411 C.2     1  UNL1        0.2488
      9 N           4.4862   -0.3298   19.1929 N.am    1  UNL1       -0.3008
     10 H           4.5967   -0.1662   20.1574 H       1  UNL1        0.1497
     11 C           3.6086    0.5708   18.3752 C.3     1  UNL1        0.0898
     12 C           2.2911    1.0338   18.9231 C.3     1  UNL1        0.0246
     13 C           1.5071    0.1448   19.8423 C.3     1  UNL1        0.0338
     14 C           0.1897    0.6077   20.3901 C.3     1  UNL1        0.1422
     15 O          -0.3435    1.9597   20.0189 O.3     1  UNL1       -0.3538
     16 C           0.4406    2.8487   19.0998 C.3     1  UNL1        0.1422
     17 C           1.7579    2.3857   18.5519 C.3     1  UNL1        0.0338
     18 C           4.1862   -4.1652   19.4180 C.3     1  UNL1        0.4351
     19 F           2.8039   -4.6074   19.0387 F       1  UNL1       -0.1644
     20 F           3.6165   -3.3437   20.5363 F       1  UNL1       -0.1644
     21 F           4.7558   -4.9866   18.2996 F       1  UNL1       -0.1644
     22 N           8.7059   -5.0820   21.8121 N.pl3   1  UNL1       -0.2808
     23 H           9.5611   -5.4024   21.4444 H       1  UNL1        0.1551
     24 C           8.2805   -5.4946   23.1901 C.ar    1  UNL1        0.0791
     25 C           7.6487   -4.4934   24.1111 C.ar    1  UNL1        0.0284
     26 C           7.2233   -4.9060   25.4891 C.ar    1  UNL1        0.0590
     27 CL          6.5915   -3.9047   26.4102 Cl      1  UNL1       -0.0822
     28 C           7.4297   -6.3197   25.9460 C.ar    1  UNL1        0.0138
     29 C           8.0615   -7.3208   25.0249 C.ar    1  UNL1        0.0318
     30 C           8.4869   -6.9083   23.6469 C.ar    1  UNL1        0.1535
     31 F           9.1187   -7.9095   22.7258 F       1  UNL1       -0.2029
@<TRIPOS>BOND
     1     7     8    2
     2     8     9   am
     3     9    11    1
     4    11    12    1
     5    12    13    1
     6    13    14    1
     7    14    15    1
     8    15    16    1
     9    16    17    1
    10     8     1    1
    11     1     2   ar
    12     2     3   ar
    13     3     4   ar
    14     4    22    1
    15    22    24    1
    16    24    25   ar
    17    25    26   ar
    18    26    27    1
    19    26    28   ar
    20    28    29   ar
    21    29    30   ar
    22    30    31    1
    23     4     5   ar
    24     5     6   ar
    25     6    18    1
    26    18    19    1
    27    18    20    1
    28    18    21    1
    29    17    12    1
    30     6     1   ar
    31    30    24   ar
    32     9    10    1
    33    22    23    1
@<TRIPOS>MOLECULE
*****
 31 33 0 0 0
SMALL
GASTEIGER

@<TRIPOS>ATOM
      1 C         -12.5555   -5.2132   17.3992 C.ar    1  UNL1        0.0942
      2 C         -13.8586   -5.6997   16.8377 C.ar    1  UNL1        0.1078
      3 N         -14.4559   -6.9835   17.3327 N.ar    1  UNL1       -0.2119
      4 C         -13.7501   -7.7809   18.3892 C.ar    1  UNL1        0.2207
      5 N         -12.4470   -7.2943   18.9507 N.ar    1  UNL1       -0.2094
      6 C         -11.8497   -6.0105   18.4557 C.ar    1  UNL1        0.1613
      7 O         -10.7753   -3.9589   15.9824 O.2     1  UNL1       -0.2700
      8 C         -11.9582   -3.9294   16.9042 C.2     1  UNL1        0.2488
      9 N         -12.5438   -2.6160   17.3311 N.am    1  UNL1       -0.3008
     10 H         -13.3202   -2.5966   17.9362 H       1  UNL1        0.1497
     11 C         -11.9465   -1.3322   16.8362 C.3     1  UNL1        0.0898
     12 C         -12.6031   -0.0240   17.1641 C.3     1  UNL1        0.0246
     13 C         -12.1991    1.2220   16.4331 C.3     1  UNL1        0.0338
     14 C         -12.8557    2.5301   16.7610 C.3     1  UNL1        0.1422
     15 O         -13.9163    2.5923   17.8199 O.3     1  UNL1       -0.3538
     16 C         -14.3203    1.3464   18.5509 C.3     1  UNL1        0.1422
     17 C         -13.6637    0.0383   18.2230 C.3     1  UNL1        0.0338
     18 C         -10.5466   -5.5239   19.0172 C.3     1  UNL1        0.4351
     19 F          -9.2436   -5.0374   19.5787 F       1  UNL1       -0.1644
     20 F          -9.8221   -6.6069   18.2741 F       1  UNL1       -0.1644
     21 F         -11.2712   -4.4409   19.7603 F       1  UNL1       -0.1644
     22 N         -14.3474   -9.0647   18.8842 N.pl3   1  UNL1       -0.2808
     23 H         -13.7614   -9.7990   19.1785 H       1  UNL1        0.1551
     24 C         -15.8376   -9.2297   18.9308 C.ar    1  UNL1        0.0791
     25 C         -16.6960   -8.1359   19.4935 C.ar    1  UNL1        0.0284
     26 C         -18.1862   -8.3009   19.5401 C.ar    1  UNL1        0.0590
     27 CL        -19.0447   -7.2071   20.1029 Cl      1  UNL1       -0.0822
     28 C         -18.8179   -9.5597   19.0241 C.ar    1  UNL1        0.0138
     29 C         -17.9594  -10.6535   18.4614 C.ar    1  UNL1        0.0318
     30 C         -16.4693  -10.4885   18.4148 C.ar    1  UNL1        0.1535
     31 F         -15.6108  -11.5823   17.8520 F       1  UNL1       -0.2029
@<TRIPOS>BOND
     1     7     8    2
     2     8     9   am
     3     9    11    1
     4    11    12    1
     5    12    13    1
     6    13    14    1
     7    14    15    1
     8    15    16    1
     9    16    17    1
    10     8     1    1
    11     1     2   ar
    12     2     3   ar
    13     3     4   ar
    14     4    22    1
    15    22    24    1
    16    24    25   ar
    17    25    26   ar
    18    26    27    1
    19    26    28   ar
    20    28    29   ar
    21    29    30   ar
    22    30    31    1
    23     4     5   ar
    24     5     6   ar
    25     6    18    1
    26    18    19    1
    27    18    20    1
    28    18    21    1
    29    17    12    1
    30     6     1   ar
    31    30    24   ar
    32     9    10    1
    33    22    23    1
@<TRIPOS>MOLECULE
*****
 31 33 0 0 0
SMALL
GASTEIGER

@<TRIPOS>ATOM
      1 C          -9.1888  -19.4678   21.2650 C.ar    1  UNL1        0.0942
      2 C          -8.5747  -19.5528   19.8991 C.ar    1  UNL1        0.1078
      3 N          -7.1154  -19.8665   19.7511 N.ar    1  UNL1       -0.2119
      4 C          -6.2701  -20.0952   20.9690 C.ar    1  UNL1        0.2207
      5 N          -6.8841  -20.0102   22.3349 N.ar    1  UNL1       -0.2094
      6 C          -8.3435  -19.6965   22.4829 C.ar    1  UNL1        0.1613
      7 O         -11.6699  -20.2378   21.2361 O.2     1  UNL1       -0.2700
      8 C         -10.6481  -19.1541   21.4131 C.2     1  UNL1        0.2488
      9 N         -11.0856  -17.7566   21.7382 N.am    1  UNL1       -0.3008
     10 H         -10.4149  -17.0453   21.8545 H       1  UNL1        0.1497
     11 C         -12.5449  -17.4429   21.8863 C.3     1  UNL1        0.0898
     12 C         -13.2926  -17.9080   23.1007 C.3     1  UNL1        0.0246
     13 C         -14.7802  -18.0912   23.0410 C.3     1  UNL1        0.0338
     14 C         -15.5278  -18.5564   24.2553 C.3     1  UNL1        0.1422
     15 O         -14.7879  -18.8384   25.5293 O.3     1  UNL1       -0.3538
     16 C         -13.3004  -18.6552   25.5890 C.3     1  UNL1        0.1422
     17 C         -12.5527  -18.1900   24.3747 C.3     1  UNL1        0.0338
     18 C          -8.9576  -19.6115   23.8488 C.3     1  UNL1        0.4351
     19 F          -9.5716  -19.5265   25.2147 F       1  UNL1       -0.1644
     20 F          -9.1642  -21.0972   23.8484 F       1  UNL1       -0.1644
     21 F          -8.7509  -18.1258   23.8492 F       1  UNL1       -0.1644
     22 N          -4.8108  -20.4089   20.8209 N.pl3   1  UNL1       -0.2808
     23 H          -4.5081  -21.3455   20.8016 H       1  UNL1        0.1551
     24 C          -3.8126  -19.2956   20.7022 C.ar    1  UNL1        0.0791
     25 C          -3.2389  -18.9423   19.3621 C.ar    1  UNL1        0.0284
     26 C          -2.2406  -17.8290   19.2434 C.ar    1  UNL1        0.0590
     27 CL         -1.6669  -17.4758   17.9031 Cl      1  UNL1       -0.0822
     28 C          -1.8161  -17.0689   20.4649 C.ar    1  UNL1        0.0138
     29 C          -2.3898  -17.4222   21.8050 C.ar    1  UNL1        0.0318
     30 C          -3.3880  -18.5355   21.9237 C.ar    1  UNL1        0.1535
     31 F          -3.9618  -18.8887   23.2639 F       1  UNL1       -0.2029
@<TRIPOS>BOND
     1     7     8    2
     2     8     9   am
     3     9    11    1
     4    11    12    1
     5    12    13    1
     6    13    14    1
     7    14    15    1
     8    15    16    1
     9    16    17    1
    10     8     1    1
    11     1     2   ar
    12     2     3   ar
    13     3     4   ar
    14     4    22    1
    15    22    24    1
    16    24    25   ar
    17    25    26   ar
    18    26    27    1
    19    26    28   ar
    20    28    29   ar
    21    29    30   ar
    22    30    31    1
    23     4     5   ar
    24     5     6   ar
    25     6    18    1
    26    18    19    1
    27    18    20    1
    28    18    21    1
    29    17    12    1
    30     6     1   ar
    31    30    24   ar
    32     9    10    1
    33    22    23    1
@<TRIPOS>MOLECULE
*****
 31 33 0 0 0
SMALL
GASTEIGER

@<TRIPOS>ATOM
      1 C          -8.7454  -18.0694   21.3277 C.ar    1  UNL1        0.0942
      2 C          -8.3480  -19.0536   20.2678 C.ar    1  UNL1        0.1078
      3 N          -6.9488  -19.5930   20.2320 N.ar    1  UNL1       -0.2119
      4 C          -5.9471  -19.1483   21.2562 C.ar    1  UNL1        0.2207
      5 N          -6.3445  -18.1642   22.3161 N.ar    1  UNL1       -0.2094
      6 C          -7.7438  -17.6247   22.3519 C.ar    1  UNL1        0.1613
      7 O         -10.4820  -16.2704   20.6221 O.2     1  UNL1       -0.2700
      8 C         -10.1446  -17.5300   21.3636 C.2     1  UNL1        0.2488
      9 N         -11.2064  -18.2501   22.1408 N.am    1  UNL1       -0.3008
     10 H         -10.9850  -19.0768   22.6275 H       1  UNL1        0.1497
     11 C         -12.6056  -17.7107   22.1766 C.3     1  UNL1        0.0898
     12 C         -13.5266  -18.0885   23.2987 C.3     1  UNL1        0.0246
     13 C         -12.9965  -18.2054   24.6971 C.3     1  UNL1        0.0338
     14 C         -13.9176  -18.5832   25.8191 C.3     1  UNL1        0.1422
     15 O         -15.3686  -18.8441   25.5428 O.3     1  UNL1       -0.3538
     16 C         -15.8987  -18.7272   24.1444 C.3     1  UNL1        0.1422
     17 C         -14.9777  -18.3494   23.0224 C.3     1  UNL1        0.0338
     18 C          -8.1413  -16.6406   23.4118 C.3     1  UNL1        0.4351
     19 F          -8.5388  -15.6564   24.4717 F       1  UNL1       -0.1644
     20 F          -7.5654  -15.5245   22.5915 F       1  UNL1       -0.1644
     21 F          -8.7171  -17.7566   24.2321 F       1  UNL1       -0.1644
     22 N          -4.5479  -19.6878   21.2203 N.pl3   1  UNL1       -0.2808
     23 H          -4.3773  -20.6294   21.4516 H       1  UNL1        0.1551
     24 C          -3.4086  -18.7925   20.8322 C.ar    1  UNL1        0.0791
     25 C          -2.9682  -18.7172   19.4003 C.ar    1  UNL1        0.0284
     26 C          -1.8289  -17.8220   19.0122 C.ar    1  UNL1        0.0590
     27 CL         -1.3885  -17.7467   17.5802 Cl      1  UNL1       -0.0822
     28 C          -1.1301  -17.0021   20.0559 C.ar    1  UNL1        0.0138
     29 C          -1.5705  -17.0775   21.4878 C.ar    1  UNL1        0.0318
     30 C          -2.7098  -17.9727   21.8759 C.ar    1  UNL1        0.1535
     31 F          -3.1503  -18.0480   23.3079 F       1  UNL1       -0.2029
@<TRIPOS>BOND
     1     7     8    2
     2     8     9   am
     3     9    11    1
     4    11    12    1
     5    12    13    1
     6    13    14    1
     7    14    15    1
     8    15    16    1
     9    16    17    1
    10     8     1    1
    11     1     2   ar
    12     2     3   ar
    13     3     4   ar
    14     4    22    1
    15    22    24    1
    16    24    25   ar
    17    25    26   ar
    18    26    27    1
    19    26    28   ar
    20    28    29   ar
    21    29    30   ar
    22    30    31    1
    23     4     5   ar
    24     5     6   ar
    25     6    18    1
    26    18    19    1
    27    18    20    1
    28    18    21    1
    29    17    12    1
    30     6     1   ar
    31    30    24   ar
    32     9    10    1
    33    22    23    1
@<TRIPOS>MOLECULE
*****
 31 33 0 0 0
SMALL
GASTEIGER

@<TRIPOS>ATOM
      1 C         -13.3945   -0.7652   18.5221 C.ar    1  UNL1        0.0942
      2 C         -13.1492    0.6834   18.2195 C.ar    1  UNL1        0.1078
      3 N         -14.1713    1.7128   18.6011 N.ar    1  UNL1       -0.2119
      4 C         -15.4388    1.2937   19.2852 C.ar    1  UNL1        0.2207
      5 N         -15.6840   -0.1549   19.5878 N.ar    1  UNL1       -0.2094
      6 C         -14.6619   -1.1843   19.2062 C.ar    1  UNL1        0.1613
      7 O         -12.3606   -2.3608   16.7516 O.2     1  UNL1       -0.2700
      8 C         -12.3724   -1.7946   18.1405 C.2     1  UNL1        0.2488
      9 N         -11.3621   -2.2577   19.1479 N.am    1  UNL1       -0.3008
     10 H         -11.3699   -1.8861   20.0596 H       1  UNL1        0.1497
     11 C         -10.3400   -3.2871   18.7664 C.3     1  UNL1        0.0898
     12 C         -10.6818   -4.7460   18.8382 C.3     1  UNL1        0.0246
     13 C         -12.1165   -5.1775   18.9100 C.3     1  UNL1        0.0338
     14 C         -12.4582   -6.6363   18.9818 C.3     1  UNL1        0.1422
     15 O         -11.3651   -7.6635   18.9819 O.3     1  UNL1       -0.3538
     16 C          -9.9303   -7.2320   18.9102 C.3     1  UNL1        0.1422
     17 C          -9.5887   -5.7732   18.8384 C.3     1  UNL1        0.0338
     18 C         -14.9072   -2.6329   19.5087 C.3     1  UNL1        0.4351
     19 F         -15.1524   -4.0814   19.8113 F       1  UNL1       -0.1644
     20 F         -15.5958   -2.7926   18.1858 F       1  UNL1       -0.1644
     21 F         -14.2185   -2.4731   20.8317 F       1  UNL1       -0.1644
     22 N         -16.4608    2.3231   19.6668 N.pl3   1  UNL1       -0.2808
     23 H         -17.0749    2.6828   18.9865 H       1  UNL1        0.1551
     24 C         -16.5474    2.8044   21.0848 C.ar    1  UNL1        0.0791
     25 C         -15.7164    3.9698   21.5333 C.ar    1  UNL1        0.0284
     26 C         -15.8029    4.4511   22.9514 C.ar    1  UNL1        0.0590
     27 CL        -14.9718    5.6165   23.3999 Cl      1  UNL1       -0.0822
     28 C         -16.7205    3.7670   23.9209 C.ar    1  UNL1        0.0138
     29 C         -17.5516    2.6017   23.4724 C.ar    1  UNL1        0.0318
     30 C         -17.4650    2.1203   22.0543 C.ar    1  UNL1        0.1535
     31 F         -18.2961    0.9549   21.6058 F       1  UNL1       -0.2029
@<TRIPOS>BOND
     1     7     8    2
     2     8     9   am
     3     9    11    1
     4    11    12    1
     5    12    13    1
     6    13    14    1
     7    14    15    1
     8    15    16    1
     9    16    17    1
    10     8     1    1
    11     1     2   ar
    12     2     3   ar
    13     3     4   ar
    14     4    22    1
    15    22    24    1
    16    24    25   ar
    17    25    26   ar
    18    26    27    1
    19    26    28   ar
    20    28    29   ar
    21    29    30   ar
    22    30    31    1
    23     4     5   ar
    24     5     6   ar
    25     6    18    1
    26    18    19    1
    27    18    20    1
    28    18    21    1
    29    17    12    1
    30     6     1   ar
    31    30    24   ar
    32     9    10    1
    33    22    23    1
@<TRIPOS>MOLECULE
*****
 31 33 0 0 0
SMALL
GASTEIGER

@<TRIPOS>ATOM
      1 C         -13.5085   -0.6575   18.4905 C.ar    1  UNL1        0.0942
      2 C         -13.2611    0.7978   18.2243 C.ar    1  UNL1        0.1078
      3 N         -14.2975    1.8155   18.5986 N.ar    1  UNL1       -0.2119
      4 C         -15.5814    1.3779   19.2390 C.ar    1  UNL1        0.2207
      5 N         -15.8289   -0.0774   19.5052 N.ar    1  UNL1       -0.2094
      6 C         -14.7924   -1.0951   19.1310 C.ar    1  UNL1        0.1613
      7 O         -12.4260   -2.2200   16.7195 O.2     1  UNL1       -0.2700
      8 C         -12.4721   -1.6752   18.1163 C.2     1  UNL1        0.2488
      9 N         -11.4818   -2.1482   19.1389 N.am    1  UNL1       -0.3008
     10 H         -11.5120   -1.7906   20.0556 H       1  UNL1        0.1497
     11 C         -10.4454   -3.1659   18.7646 C.3     1  UNL1        0.0898
     12 C         -10.7729   -4.6283   18.8283 C.3     1  UNL1        0.0246
     13 C          -9.6756   -5.6472   18.7404 C.3     1  UNL1        0.0338
     14 C         -10.0032   -7.1096   18.8041 C.3     1  UNL1        0.1422
     15 O         -11.4280   -7.5531   18.9557 O.3     1  UNL1       -0.3538
     16 C         -12.5254   -6.5342   19.0437 C.3     1  UNL1        0.1422
     17 C         -12.1978   -5.0718   18.9800 C.3     1  UNL1        0.0338
     18 C         -15.0398   -2.5504   19.3971 C.3     1  UNL1        0.4351
     19 F         -15.2872   -4.0058   19.6633 F       1  UNL1       -0.1644
     20 F         -14.3947   -2.4137   20.7444 F       1  UNL1       -0.1644
     21 F         -15.6848   -2.6872   18.0499 F       1  UNL1       -0.1644
     22 N         -16.6178    2.3956   19.6133 N.pl3   1  UNL1       -0.2808
     23 H         -17.2124    2.7693   18.9233 H       1  UNL1        0.1551
     24 C         -16.7484    2.8439   21.0388 C.ar    1  UNL1        0.0791
     25 C         -17.7781    2.2165   21.9309 C.ar    1  UNL1        0.0284
     26 C         -17.9087    2.6648   23.3564 C.ar    1  UNL1        0.0590
     27 CL        -18.9385    2.0374   24.2486 Cl      1  UNL1       -0.0822
     28 C         -17.0095    3.7404   23.8897 C.ar    1  UNL1        0.0138
     29 C         -15.9798    4.3678   22.9975 C.ar    1  UNL1        0.0318
     30 C         -15.8492    3.9195   21.5720 C.ar    1  UNL1        0.1535
     31 F         -14.8194    4.5469   20.6798 F       1  UNL1       -0.2029
@<TRIPOS>BOND
     1     7     8    2
     2     8     9   am
     3     9    11    1
     4    11    12    1
     5    12    13    1
     6    13    14    1
     7    14    15    1
     8    15    16    1
     9    16    17    1
    10     8     1    1
    11     1     2   ar
    12     2     3   ar
    13     3     4   ar
    14     4    22    1
    15    22    24    1
    16    24    25   ar
    17    25    26   ar
    18    26    27    1
    19    26    28   ar
    20    28    29   ar
    21    29    30   ar
    22    30    31    1
    23     4     5   ar
    24     5     6   ar
    25     6    18    1
    26    18    19    1
    27    18    20    1
    28    18    21    1
    29    17    12    1
    30     6     1   ar
    31    30    24   ar
    32     9    10    1
    33    22    23    1
@<TRIPOS>MOLECULE
*****
 31 33 0 0 0
SMALL
GASTEIGER

@<TRIPOS>ATOM
      1 C           4.7796   -2.4945   21.0078 C.ar    1  UNL1        0.0942
      2 C           4.3193   -1.2610   21.7266 C.ar    1  UNL1        0.1078
      3 N           3.0242   -0.6088   21.3430 N.ar    1  UNL1       -0.2119
      4 C           2.1893   -1.1899   20.2405 C.ar    1  UNL1        0.2207
      5 N           2.6497   -2.4234   19.5217 N.ar    1  UNL1       -0.2094
      6 C           3.9449   -3.0756   19.9054 C.ar    1  UNL1        0.1613
      7 O           7.2809   -2.9931   20.5130 O.2     1  UNL1       -0.2700
      8 C           6.0747   -3.1467   21.3914 C.2     1  UNL1        0.2488
      9 N           6.1637   -3.9527   22.6534 N.am    1  UNL1       -0.3008
     10 H           5.3721   -4.0535   23.2299 H       1  UNL1        0.1497
     11 C           7.4588   -4.6049   23.0370 C.3     1  UNL1        0.0898
     12 C           7.5192   -5.5050   24.2355 C.3     1  UNL1        0.0246
     13 C           8.1517   -6.8606   24.1243 C.3     1  UNL1        0.0338
     14 C           8.2120   -7.7605   25.3228 C.3     1  UNL1        0.1422
     15 O           7.6399   -7.3050   26.6324 O.3     1  UNL1       -0.3538
     16 C           7.0075   -5.9494   26.7436 C.3     1  UNL1        0.1422
     17 C           6.9471   -5.0494   25.5452 C.3     1  UNL1        0.0338
     18 C           4.4053   -4.3090   19.1865 C.3     1  UNL1        0.4351
     19 F           4.8656   -5.5425   18.4677 F       1  UNL1       -0.1644
     20 F           5.1502   -3.4572   18.2019 F       1  UNL1       -0.1644
     21 F           3.6603   -5.1609   20.1711 F       1  UNL1       -0.1644
     22 N           0.8942   -0.5377   19.8569 N.pl3   1  UNL1       -0.2808
     23 H           0.0910   -1.0874   19.7094 H       1  UNL1        0.1551
     24 C           0.8230    0.9522   19.6982 C.ar    1  UNL1        0.0791
     25 C          -0.0828    1.7581   20.5814 C.ar    1  UNL1        0.0284
     26 C          -0.1541    3.2480   20.4226 C.ar    1  UNL1        0.0590
     27 CL         -1.0600    4.0538   21.3059 Cl      1  UNL1       -0.0822
     28 C           0.6804    3.9320   19.3807 C.ar    1  UNL1        0.0138
     29 C           1.5862    3.1261   18.4975 C.ar    1  UNL1        0.0318
     30 C           1.6575    1.6362   18.6562 C.ar    1  UNL1        0.1535
     31 F           2.5633    0.8303   17.7730 F       1  UNL1       -0.2029
@<TRIPOS>BOND
     1     7     8    2
     2     8     9   am
     3     9    11    1
     4    11    12    1
     5    12    13    1
     6    13    14    1
     7    14    15    1
     8    15    16    1
     9    16    17    1
    10     8     1    1
    11     1     2   ar
    12     2     3   ar
    13     3     4   ar
    14     4    22    1
    15    22    24    1
    16    24    25   ar
    17    25    26   ar
    18    26    27    1
    19    26    28   ar
    20    28    29   ar
    21    29    30   ar
    22    30    31    1
    23     4     5   ar
    24     5     6   ar
    25     6    18    1
    26    18    19    1
    27    18    20    1
    28    18    21    1
    29    17    12    1
    30     6     1   ar
    31    30    24   ar
    32     9    10    1
    33    22    23    1
@<TRIPOS>MOLECULE
*****
 31 33 0 0 0
SMALL
GASTEIGER

@<TRIPOS>ATOM
      1 C           0.0527    2.4034   28.5337 C.ar    1  UNL1        0.0942
      2 C           0.7018    3.6322   29.0981 C.ar    1  UNL1        0.1078
      3 N           1.0614    3.6894   30.5532 N.ar    1  UNL1       -0.2119
      4 C           0.7719    2.5177   31.4440 C.ar    1  UNL1        0.2207
      5 N           0.1228    1.2888   30.8795 N.ar    1  UNL1       -0.2094
      6 C          -0.2368    1.2317   29.4243 C.ar    1  UNL1        0.1613
      7 O           0.5053    1.5066   26.1377 O.2     1  UNL1       -0.2700
      8 C          -0.3069    2.3462   27.0786 C.2     1  UNL1        0.2488
      9 N          -1.4788    3.1288   26.5643 N.am    1  UNL1       -0.3008
     10 H          -2.0119    3.6799   27.1818 H       1  UNL1        0.1497
     11 C          -1.8384    3.0716   25.1092 C.3     1  UNL1        0.0898
     12 C          -3.2179    3.4552   24.6618 C.3     1  UNL1        0.0246
     13 C          -3.5719    3.4157   23.2048 C.3     1  UNL1        0.0338
     14 C          -4.9513    3.7993   22.7576 C.3     1  UNL1        0.1422
     15 O          -5.9767    4.2223   23.7674 O.3     1  UNL1       -0.3538
     16 C          -5.6226    4.2618   25.2244 C.3     1  UNL1        0.1422
     17 C          -4.2432    3.8782   25.6717 C.3     1  UNL1        0.0338
     18 C          -0.8860    0.0029   28.8599 C.3     1  UNL1        0.4351
     19 F          -1.5351   -1.2259   28.2954 F       1  UNL1       -0.1644
     20 F           0.4662   -0.5812   28.5764 F       1  UNL1       -0.1644
     21 F          -2.2382    0.5870   29.1434 F       1  UNL1       -0.1644
     22 N           1.1315    2.5748   32.8991 N.pl3   1  UNL1       -0.2808
     23 H           0.5836    3.1061   33.5210 H       1  UNL1        0.1551
     24 C           2.3258    1.8225   33.4066 C.ar    1  UNL1        0.0791
     25 C           3.0121    0.8218   32.5249 C.ar    1  UNL1        0.0284
     26 C           4.2064    0.0695   33.0324 C.ar    1  UNL1        0.0590
     27 CL          4.8927   -0.9313   32.1506 Cl      1  UNL1       -0.0822
     28 C           4.7145    0.3179   34.4217 C.ar    1  UNL1        0.0138
     29 C           4.0282    1.3187   35.3034 C.ar    1  UNL1        0.0318
     30 C           2.8339    2.0710   34.7958 C.ar    1  UNL1        0.1535
     31 F           2.1476    3.0718   35.6777 F       1  UNL1       -0.2029
@<TRIPOS>BOND
     1     7     8    2
     2     8     9   am
     3     9    11    1
     4    11    12    1
     5    12    13    1
     6    13    14    1
     7    14    15    1
     8    15    16    1
     9    16    17    1
    10     8     1    1
    11     1     2   ar
    12     2     3   ar
    13     3     4   ar
    14     4    22    1
    15    22    24    1
    16    24    25   ar
    17    25    26   ar
    18    26    27    1
    19    26    28   ar
    20    28    29   ar
    21    29    30   ar
    22    30    31    1
    23     4     5   ar
    24     5     6   ar
    25     6    18    1
    26    18    19    1
    27    18    20    1
    28    18    21    1
    29    17    12    1
    30     6     1   ar
    31    30    24   ar
    32     9    10    1
    33    22    23    1
