@<TRIPOS>MOLECULE
*****
 32 36 0 0 0
SMALL
GASTEIGER

@<TRIPOS>ATOM
      1 O           6.4971   -4.3748   32.3896 O.2     1  UNL1       -0.2668
      2 C           6.6068   -3.4821   31.1892 C.2     1  UNL1        0.2806
      3 N           6.5155   -1.9936   31.3506 N.am    1  UNL1       -0.2999
      4 H           6.5875   -1.4077   30.5627 H       1  UNL1        0.1498
      5 C           6.8078   -4.0779   29.8272 C.ar    1  UNL1        0.2014
      6 C           7.3216   -5.4805   29.6906 C.ar    1  UNL1        0.0843
      7 C           7.5226   -6.0763   28.3288 C.ar    1  UNL1        0.2018
      8 O           8.0364   -7.4789   28.1921 O.2     1  UNL1       -0.2864
      9 C           7.2097   -5.2694   27.1035 C.ar    1  UNL1        0.0736
     10 C           7.4107   -5.8652   25.7417 C.ar    1  UNL1        0.0067
     11 C           7.0978   -5.0584   24.5165 C.ar    1  UNL1        0.0070
     12 C           6.5840   -3.6558   24.6532 C.ar    1  UNL1        0.0376
     13 BR          6.2711   -2.8490   23.4279 Br      1  UNL1       -0.0489
     14 C           6.3830   -3.0600   26.0150 C.ar    1  UNL1        0.0443
     15 C           6.6959   -3.8668   27.2401 C.ar    1  UNL1        0.1490
     16 O           6.4949   -3.2711   28.6021 O.2     1  UNL1       -0.4487
     17 C           6.3145   -1.3978   32.7124 C.3     1  UNL1        0.0747
     18 C           4.9759   -1.4930   33.3826 C.3     1  UNL1        0.0369
     19 C           4.7750   -0.8972   34.7444 C.3     1  UNL1        0.0741
     20 N           5.9126   -0.2062   35.4361 N.3     1  UNL1       -0.2688
     21 C           7.2512   -0.1110   34.7659 C.3     1  UNL1        0.0741
     22 C           7.4521   -0.7069   33.4040 C.3     1  UNL1        0.0369
     23 C           5.7117    0.3896   36.7979 C.3     1  UNL1        0.0992
     24 C           4.4459    1.1302   37.1133 C.ar    1  UNL1       -0.0029
     25 C           3.9896    2.2482   36.2235 C.ar    1  UNL1        0.0004
     26 C           2.7238    2.9888   36.5388 C.ar    1  UNL1        0.0399
     27 C           1.9144    2.6113   37.7439 C.ar    1  UNL1        0.1764
     28 C           2.3707    1.4933   38.6337 C.ar    1  UNL1        0.1762
     29 C           3.6365    0.7527   38.3183 C.ar    1  UNL1        0.0373
     30 O           1.3722    1.3471   39.7436 O.3     1  UNL1       -0.4346
     31 C           0.2988    2.3748   39.5397 C.3     1  UNL1        0.4294
     32 O           0.6339    3.1561   38.3038 O.3     1  UNL1       -0.4346
@<TRIPOS>BOND
     1     1     2    2
     2     2     3   am
     3     3    17    1
     4    17    18    1
     5    18    19    1
     6    19    20    1
     7    20    23    1
     8    23    24    1
     9    24    25   ar
    10    25    26   ar
    11    26    27   ar
    12    27    28   ar
    13    28    29   ar
    14    28    30    1
    15    30    31    1
    16    31    32    1
    17    20    21    1
    18    21    22    1
    19     2     5    1
    20     5     6   ar
    21     6     7   ar
    22     7     8    2
    23     7     9   ar
    24     9    10   ar
    25    10    11   ar
    26    11    12   ar
    27    12    13    1
    28    12    14   ar
    29    14    15   ar
    30    15    16   ar
    31    22    17    1
    32    16     5   ar
    33    29    24   ar
    34    15     9   ar
    35    32    27    1
    36     3     4    1
@<TRIPOS>MOLECULE
*****
 32 36 0 0 0
SMALL
GASTEIGER

@<TRIPOS>ATOM
      1 O           5.2727   -2.7275   24.2469 O.2     1  UNL1       -0.2668
      2 C           6.1598   -3.8682   23.8448 C.2     1  UNL1        0.2806
      3 N           6.3590   -4.1877   22.3928 N.am    1  UNL1       -0.2999
      4 H           6.9412   -4.9364   22.1289 H       1  UNL1        0.1498
      5 C           6.8479   -4.6894   24.8947 C.ar    1  UNL1        0.2014
      6 C           7.8479   -5.7333   24.4943 C.ar    1  UNL1        0.0843
      7 C           8.5360   -6.5545   25.5441 C.ar    1  UNL1        0.2018
      8 O           9.5360   -7.5983   25.1437 O.2     1  UNL1       -0.2864
      9 C           8.2240   -6.3318   26.9944 C.ar    1  UNL1        0.0736
     10 C           8.9121   -7.1530   28.0442 C.ar    1  UNL1        0.0067
     11 C           8.6002   -6.9304   29.4944 C.ar    1  UNL1        0.0070
     12 C           7.6002   -5.8865   29.8947 C.ar    1  UNL1        0.0376
     13 BR          7.2882   -5.6638   31.3450 Br      1  UNL1       -0.0489
     14 C           6.9121   -5.0653   28.8449 C.ar    1  UNL1        0.0443
     15 C           7.2240   -5.2879   27.3948 C.ar    1  UNL1        0.1490
     16 O           6.5360   -4.4667   26.3449 O.2     1  UNL1       -0.4487
     17 C           5.6709   -3.3665   21.3429 C.3     1  UNL1        0.0747
     18 C           4.4331   -3.8877   20.6750 C.3     1  UNL1        0.0369
     19 C           3.7451   -3.0665   19.6251 C.3     1  UNL1        0.0741
     20 N           4.2949   -1.7242   19.2431 N.3     1  UNL1       -0.2688
     21 C           5.5327   -1.2030   19.9111 C.3     1  UNL1        0.0741
     22 C           6.2208   -2.0243   20.9610 C.3     1  UNL1        0.0369
     23 C           3.6069   -0.9030   18.1932 C.3     1  UNL1        0.0992
     24 C           2.7647    0.2722   18.5928 C.ar    1  UNL1       -0.0029
     25 C           3.1972    1.6623   18.2314 C.ar    1  UNL1        0.0004
     26 C           2.3550    2.8375   18.6310 C.ar    1  UNL1        0.0399
     27 C           1.0803    2.6226   19.3918 C.ar    1  UNL1        0.1764
     28 C           0.6478    1.2325   19.7532 C.ar    1  UNL1        0.1762
     29 C           1.4900    0.0573   19.3537 C.ar    1  UNL1        0.0373
     30 O          -0.6483    1.3302   20.5021 O.3     1  UNL1       -0.4346
     31 C          -1.0167    2.7807   20.6035 C.3     1  UNL1        0.4294
     32 O           0.0516    3.5794   19.9174 O.3     1  UNL1       -0.4346
@<TRIPOS>BOND
     1     1     2    2
     2     2     3   am
     3     3    17    1
     4    17    18    1
     5    18    19    1
     6    19    20    1
     7    20    23    1
     8    23    24    1
     9    24    25   ar
    10    25    26   ar
    11    26    27   ar
    12    27    28   ar
    13    28    29   ar
    14    28    30    1
    15    30    31    1
    16    31    32    1
    17    20    21    1
    18    21    22    1
    19     2     5    1
    20     5     6   ar
    21     6     7   ar
    22     7     8    2
    23     7     9   ar
    24     9    10   ar
    25    10    11   ar
    26    11    12   ar
    27    12    13    1
    28    12    14   ar
    29    14    15   ar
    30    15    16   ar
    31    22    17    1
    32    16     5   ar
    33    29    24   ar
    34    15     9   ar
    35    32    27    1
    36     3     4    1
@<TRIPOS>MOLECULE
*****
 32 36 0 0 0
SMALL
GASTEIGER

@<TRIPOS>ATOM
      1 O           6.7564   -0.6657   30.1783 O.2     1  UNL1       -0.2668
      2 C           6.6960   -2.1459   30.4137 C.2     1  UNL1        0.2806
      3 N           6.5195   -2.6774   31.8052 N.am    1  UNL1       -0.2999
      4 H           6.4799   -3.6489   31.9596 H       1  UNL1        0.1498
      5 C           6.8122   -3.0945   29.2575 C.ar    1  UNL1        0.2014
      6 C           6.4157   -2.6509   27.8806 C.ar    1  UNL1        0.0843
      7 C           6.5318   -3.5994   26.7245 C.ar    1  UNL1        0.2018
      8 O           6.1353   -3.1558   25.3475 O.2     1  UNL1       -0.2864
      9 C           7.0445   -4.9918   26.9452 C.ar    1  UNL1        0.0736
     10 C           7.1607   -5.9403   25.7891 C.ar    1  UNL1        0.0067
     11 C           7.6734   -7.3326   26.0099 C.ar    1  UNL1        0.0070
     12 C           8.0699   -7.7762   27.3869 C.ar    1  UNL1        0.0376
     13 BR          8.5826   -9.1685   27.6076 Br      1  UNL1       -0.0489
     14 C           7.9537   -6.8276   28.5430 C.ar    1  UNL1        0.0443
     15 C           7.4411   -5.4354   28.3222 C.ar    1  UNL1        0.1490
     16 O           7.3249   -4.4868   29.4783 O.2     1  UNL1       -0.4487
     17 C           6.4033   -1.7289   32.9613 C.3     1  UNL1        0.0747
     18 C           7.6139   -0.9901   33.4499 C.3     1  UNL1        0.0369
     19 C           7.4977   -0.0415   34.6060 C.3     1  UNL1        0.0741
     20 N           6.1709    0.1683   35.2736 N.3     1  UNL1       -0.2688
     21 C           4.9604   -0.5705   34.7851 C.3     1  UNL1        0.0741
     22 C           5.0766   -1.5191   33.6289 C.3     1  UNL1        0.0369
     23 C           6.0548    1.1169   36.4297 C.3     1  UNL1        0.0992
     24 C           4.7040    1.5895   36.8793 C.ar    1  UNL1       -0.0029
     25 C           4.0103    2.6932   36.1373 C.ar    1  UNL1        0.0004
     26 C           2.6596    3.1658   36.5868 C.ar    1  UNL1        0.0399
     27 C           2.0025    2.5347   37.7785 C.ar    1  UNL1        0.1764
     28 C           2.6962    1.4311   38.5205 C.ar    1  UNL1        0.1762
     29 C           4.0470    0.9585   38.0709 C.ar    1  UNL1        0.0373
     30 O           1.8081    1.0030   39.6511 O.3     1  UNL1       -0.4346
     31 C           0.5655    1.8421   39.6077 C.3     1  UNL1        0.4294
     32 O           0.6857    2.7888   38.4504 O.3     1  UNL1       -0.4346
@<TRIPOS>BOND
     1     1     2    2
     2     2     3   am
     3     3    17    1
     4    17    18    1
     5    18    19    1
     6    19    20    1
     7    20    23    1
     8    23    24    1
     9    24    25   ar
    10    25    26   ar
    11    26    27   ar
    12    27    28   ar
    13    28    29   ar
    14    28    30    1
    15    30    31    1
    16    31    32    1
    17    20    21    1
    18    21    22    1
    19     2     5    1
    20     5     6   ar
    21     6     7   ar
    22     7     8    2
    23     7     9   ar
    24     9    10   ar
    25    10    11   ar
    26    11    12   ar
    27    12    13    1
    28    12    14   ar
    29    14    15   ar
    30    15    16   ar
    31    22    17    1
    32    16     5   ar
    33    29    24   ar
    34    15     9   ar
    35    32    27    1
    36     3     4    1
@<TRIPOS>MOLECULE
*****
 32 36 0 0 0
SMALL
GASTEIGER

@<TRIPOS>ATOM
      1 O           0.0099    1.0113   21.4932 O.2     1  UNL1       -0.2668
      2 C           1.4517    1.0209   21.9066 C.2     1  UNL1        0.2806
      3 N           1.8539    1.6432   23.2109 N.am    1  UNL1       -0.2999
      4 H           2.8002    1.6495   23.4822 H       1  UNL1        0.1498
      5 C           2.4915    0.4082   21.0158 C.ar    1  UNL1        0.2014
      6 C           3.4772    1.2842   20.3010 C.ar    1  UNL1        0.0843
      7 C           4.5170    0.6716   19.4102 C.ar    1  UNL1        0.2018
      8 O           5.5027    1.5477   18.6954 O.2     1  UNL1       -0.2864
      9 C           4.5711   -0.8171   19.2341 C.ar    1  UNL1        0.0736
     10 C           5.6108   -1.4297   18.3433 C.ar    1  UNL1        0.0067
     11 C           5.6649   -2.9183   18.1673 C.ar    1  UNL1        0.0070
     12 C           4.6791   -3.7943   18.8821 C.ar    1  UNL1        0.0376
     13 BR          4.7332   -5.2830   18.7061 Br      1  UNL1       -0.0489
     14 C           3.6394   -3.1817   19.7730 C.ar    1  UNL1        0.0443
     15 C           3.5854   -1.6931   19.9490 C.ar    1  UNL1        0.1490
     16 O           2.5456   -1.0804   20.8398 O.2     1  UNL1       -0.4487
     17 C           0.8142    2.2558   24.1017 C.3     1  UNL1        0.0747
     18 C           0.1537    1.4274   25.1635 C.3     1  UNL1        0.0369
     19 C          -0.8860    2.0400   26.0544 C.3     1  UNL1        0.0741
     20 N          -1.2653    3.4812   25.8834 N.3     1  UNL1       -0.2688
     21 C          -0.6048    4.3097   24.8216 C.3     1  UNL1        0.0741
     22 C           0.4349    3.6970   23.9307 C.3     1  UNL1        0.0369
     23 C          -2.3050    4.0939   26.7742 C.3     1  UNL1        0.0992
     24 C          -3.6669    4.4095   26.2305 C.ar    1  UNL1       -0.0029
     25 C          -4.6025    5.2833   27.0122 C.ar    1  UNL1        0.0004
     26 C          -5.9644    5.5989   26.4685 C.ar    1  UNL1        0.0399
     27 C          -6.3907    5.0407   25.1432 C.ar    1  UNL1        0.1764
     28 C          -5.4551    4.1669   24.3615 C.ar    1  UNL1        0.1762
     29 C          -4.0932    3.8513   24.9052 C.ar    1  UNL1        0.0373
     30 O          -6.1479    3.7636   23.0936 O.3     1  UNL1       -0.4346
     31 C          -7.5116    4.3882   23.0917 C.3     1  UNL1        0.4294
     32 O          -7.6617    5.1774   24.3584 O.3     1  UNL1       -0.4346
@<TRIPOS>BOND
     1     1     2    2
     2     2     3   am
     3     3    17    1
     4    17    18    1
     5    18    19    1
     6    19    20    1
     7    20    23    1
     8    23    24    1
     9    24    25   ar
    10    25    26   ar
    11    26    27   ar
    12    27    28   ar
    13    28    29   ar
    14    28    30    1
    15    30    31    1
    16    31    32    1
    17    20    21    1
    18    21    22    1
    19     2     5    1
    20     5     6   ar
    21     6     7   ar
    22     7     8    2
    23     7     9   ar
    24     9    10   ar
    25    10    11   ar
    26    11    12   ar
    27    12    13    1
    28    12    14   ar
    29    14    15   ar
    30    15    16   ar
    31    22    17    1
    32    16     5   ar
    33    29    24   ar
    34    15     9   ar
    35    32    27    1
    36     3     4    1
@<TRIPOS>MOLECULE
*****
 32 36 0 0 0
SMALL
GASTEIGER

@<TRIPOS>ATOM
      1 O           6.8911   -4.9392   32.0917 O.2     1  UNL1       -0.2668
      2 C           6.7245   -4.1609   30.8204 C.2     1  UNL1        0.2806
      3 N           6.2455   -2.7403   30.8680 N.am    1  UNL1       -0.2999
      4 H           6.1362   -2.2294   30.0335 H       1  UNL1        0.1498
      5 C           7.0369   -4.8033   29.5013 C.ar    1  UNL1        0.2014
      6 C           7.6198   -6.1848   29.4592 C.ar    1  UNL1        0.0843
      7 C           7.9322   -6.8271   28.1402 C.ar    1  UNL1        0.2018
      8 O           8.5152   -8.2086   28.0982 O.2     1  UNL1       -0.2864
      9 C           7.6616   -6.0881   26.8632 C.ar    1  UNL1        0.0736
     10 C           7.9740   -6.7304   25.5443 C.ar    1  UNL1        0.0067
     11 C           7.7034   -5.9914   24.2674 C.ar    1  UNL1        0.0070
     12 C           7.1204   -4.6099   24.3095 C.ar    1  UNL1        0.0376
     13 BR          6.8498   -3.8709   23.0325 Br      1  UNL1       -0.0489
     14 C           6.8080   -3.9676   25.6284 C.ar    1  UNL1        0.0443
     15 C           7.0786   -4.7066   26.9053 C.ar    1  UNL1        0.1490
     16 O           6.7663   -4.0642   28.2244 O.2     1  UNL1       -0.4487
     17 C           5.9332   -2.0979   32.1869 C.3     1  UNL1        0.0747
     18 C           6.9368   -1.1918   32.8363 C.3     1  UNL1        0.0369
     19 C           6.6245   -0.5494   34.1552 C.3     1  UNL1        0.0741
     20 N           5.3084   -0.8131   34.8249 N.3     1  UNL1       -0.2688
     21 C           4.3047   -1.7192   34.1756 C.3     1  UNL1        0.0741
     22 C           4.6171   -2.3616   32.8566 C.3     1  UNL1        0.0369
     23 C           4.9960   -0.1708   36.1439 C.3     1  UNL1        0.0992
     24 C           4.0657    1.0043   36.2042 C.ar    1  UNL1       -0.0029
     25 C           3.4582    1.4136   37.5132 C.ar    1  UNL1        0.0004
     26 C           2.5279    2.5887   37.5735 C.ar    1  UNL1        0.0399
     27 C           2.2049    3.3544   36.3249 C.ar    1  UNL1        0.1764
     28 C           2.8123    2.9452   35.0159 C.ar    1  UNL1        0.1762
     29 C           3.7427    1.7701   34.9556 C.ar    1  UNL1        0.0373
     30 O           2.3118    3.8844   33.9588 O.3     1  UNL1       -0.4346
     31 C           1.3951    4.8741   34.6145 C.3     1  UNL1        0.4294
     32 O           1.3290    4.5466   36.0768 O.3     1  UNL1       -0.4346
@<TRIPOS>BOND
     1     1     2    2
     2     2     3   am
     3     3    17    1
     4    17    18    1
     5    18    19    1
     6    19    20    1
     7    20    23    1
     8    23    24    1
     9    24    25   ar
    10    25    26   ar
    11    26    27   ar
    12    27    28   ar
    13    28    29   ar
    14    28    30    1
    15    30    31    1
    16    31    32    1
    17    20    21    1
    18    21    22    1
    19     2     5    1
    20     5     6   ar
    21     6     7   ar
    22     7     8    2
    23     7     9   ar
    24     9    10   ar
    25    10    11   ar
    26    11    12   ar
    27    12    13    1
    28    12    14   ar
    29    14    15   ar
    30    15    16   ar
    31    22    17    1
    32    16     5   ar
    33    29    24   ar
    34    15     9   ar
    35    32    27    1
    36     3     4    1
@<TRIPOS>MOLECULE
*****
 32 36 0 0 0
SMALL
GASTEIGER

@<TRIPOS>ATOM
      1 O           3.0948    0.7754   29.5083 O.2     1  UNL1       -0.2668
      2 C           2.3518    1.1229   30.7641 C.2     1  UNL1        0.2806
      3 N           1.0207    1.8096   30.6823 N.am    1  UNL1       -0.2999
      4 H           0.5330    2.0377   31.5065 H       1  UNL1        0.1498
      5 C           2.9398    0.7839   32.1018 C.ar    1  UNL1        0.2014
      6 C           3.7316   -0.4783   32.2748 C.ar    1  UNL1        0.0843
      7 C           4.3196   -0.8174   33.6124 C.ar    1  UNL1        0.2018
      8 O           5.1114   -2.0796   33.7854 O.2     1  UNL1       -0.2864
      9 C           4.1159    0.1057   34.7771 C.ar    1  UNL1        0.0736
     10 C           4.7039   -0.2333   36.1147 C.ar    1  UNL1        0.0067
     11 C           4.5001    0.6898   37.2793 C.ar    1  UNL1        0.0070
     12 C           3.7083    1.9520   37.1062 C.ar    1  UNL1        0.0376
     13 BR          3.5046    2.8751   38.2709 Br      1  UNL1       -0.0489
     14 C           3.1203    2.2911   35.7686 C.ar    1  UNL1        0.0443
     15 C           3.3241    1.3679   34.6041 C.ar    1  UNL1        0.1490
     16 O           2.7360    1.7070   33.2664 O.2     1  UNL1       -0.4487
     17 C           0.4326    2.1486   29.3447 C.3     1  UNL1        0.0747
     18 C           0.6029    3.5271   28.7782 C.3     1  UNL1        0.0369
     19 C           0.0149    3.8661   27.4406 C.3     1  UNL1        0.0741
     20 N          -0.7435    2.8267   26.6694 N.3     1  UNL1       -0.2688
     21 C          -0.9138    1.4483   27.2359 C.3     1  UNL1        0.0741
     22 C          -0.3257    1.1093   28.5736 C.3     1  UNL1        0.0369
     23 C          -1.3315    3.1658   25.3318 C.3     1  UNL1        0.0992
     24 C          -2.7749    3.5599   25.2252 C.ar    1  UNL1       -0.0029
     25 C          -3.5043    4.0699   26.4326 C.ar    1  UNL1        0.0004
     26 C          -4.9477    4.4640   26.3260 C.ar    1  UNL1        0.0399
     27 C          -5.6617    4.3480   25.0120 C.ar    1  UNL1        0.1764
     28 C          -4.9323    3.8379   23.8046 C.ar    1  UNL1        0.1762
     29 C          -3.4889    3.4438   23.9112 C.ar    1  UNL1        0.0373
     30 O          -5.8916    3.8329   22.6513 O.3     1  UNL1       -0.4346
     31 C          -7.2137    4.3399   23.1460 C.3     1  UNL1        0.4294
     32 O          -7.0717    4.6582   24.6050 O.3     1  UNL1       -0.4346
@<TRIPOS>BOND
     1     1     2    2
     2     2     3   am
     3     3    17    1
     4    17    18    1
     5    18    19    1
     6    19    20    1
     7    20    23    1
     8    23    24    1
     9    24    25   ar
    10    25    26   ar
    11    26    27   ar
    12    27    28   ar
    13    28    29   ar
    14    28    30    1
    15    30    31    1
    16    31    32    1
    17    20    21    1
    18    21    22    1
    19     2     5    1
    20     5     6   ar
    21     6     7   ar
    22     7     8    2
    23     7     9   ar
    24     9    10   ar
    25    10    11   ar
    26    11    12   ar
    27    12    13    1
    28    12    14   ar
    29    14    15   ar
    30    15    16   ar
    31    22    17    1
    32    16     5   ar
    33    29    24   ar
    34    15     9   ar
    35    32    27    1
    36     3     4    1
@<TRIPOS>MOLECULE
*****
 32 36 0 0 0
SMALL
GASTEIGER

@<TRIPOS>ATOM
      1 O           7.2090   -2.1873   23.9903 O.2     1  UNL1       -0.2668
      2 C           6.2540   -3.2208   24.5097 C.2     1  UNL1        0.2806
      3 N           5.0335   -3.5807   23.7154 N.am    1  UNL1       -0.2999
      4 H           4.4066   -4.2590   24.0563 H       1  UNL1        0.1498
      5 C           6.5194   -3.8944   25.8234 C.ar    1  UNL1        0.2014
      6 C           6.9713   -5.3243   25.8553 C.ar    1  UNL1        0.0843
      7 C           7.2367   -5.9980   27.1689 C.ar    1  UNL1        0.2018
      8 O           7.6887   -7.4279   27.2007 O.2     1  UNL1       -0.2864
      9 C           7.0502   -5.2417   28.4508 C.ar    1  UNL1        0.0736
     10 C           7.3156   -5.9153   29.7645 C.ar    1  UNL1        0.0067
     11 C           7.1291   -5.1590   31.0463 C.ar    1  UNL1        0.0070
     12 C           6.6771   -3.7290   31.0145 C.ar    1  UNL1        0.0376
     13 BR          6.4905   -2.9727   32.2964 Br      1  UNL1       -0.0489
     14 C           6.4117   -3.0554   29.7009 C.ar    1  UNL1        0.0443
     15 C           6.5982   -3.8117   28.4190 C.ar    1  UNL1        0.1490
     16 O           6.3328   -3.1381   27.1053 O.2     1  UNL1       -0.4487
     17 C           4.7680   -2.9071   22.4017 C.3     1  UNL1        0.0747
     18 C           5.2682   -3.5228   21.1286 C.3     1  UNL1        0.0369
     19 C           5.0028   -2.8492   19.8149 C.3     1  UNL1        0.0741
     20 N           4.2371   -1.5599   19.7743 N.3     1  UNL1       -0.2688
     21 C           3.7369   -0.9443   21.0474 C.3     1  UNL1        0.0741
     22 C           4.0024   -1.6179   22.3611 C.3     1  UNL1        0.0369
     23 C           3.9717   -0.8864   18.4606 C.3     1  UNL1        0.0992
     24 C           3.4062    0.5026   18.4307 C.ar    1  UNL1       -0.0029
     25 C           4.3258    1.6874   18.4514 C.ar    1  UNL1        0.0004
     26 C           3.7603    3.0764   18.4214 C.ar    1  UNL1        0.0399
     27 C           2.2752    3.2806   18.3708 C.ar    1  UNL1        0.1764
     28 C           1.3556    2.0958   18.3501 C.ar    1  UNL1        0.1762
     29 C           1.9211    0.7068   18.3800 C.ar    1  UNL1        0.0373
     30 O          -0.0547    2.6045   18.2995 O.3     1  UNL1       -0.4346
     31 C          -0.0066    4.1037   18.2889 C.3     1  UNL1        0.4294
     32 O           1.4334    4.5215   18.3330 O.3     1  UNL1       -0.4346
@<TRIPOS>BOND
     1     1     2    2
     2     2     3   am
     3     3    17    1
     4    17    18    1
     5    18    19    1
     6    19    20    1
     7    20    23    1
     8    23    24    1
     9    24    25   ar
    10    25    26   ar
    11    26    27   ar
    12    27    28   ar
    13    28    29   ar
    14    28    30    1
    15    30    31    1
    16    31    32    1
    17    20    21    1
    18    21    22    1
    19     2     5    1
    20     5     6   ar
    21     6     7   ar
    22     7     8    2
    23     7     9   ar
    24     9    10   ar
    25    10    11   ar
    26    11    12   ar
    27    12    13    1
    28    12    14   ar
    29    14    15   ar
    30    15    16   ar
    31    22    17    1
    32    16     5   ar
    33    29    24   ar
    34    15     9   ar
    35    32    27    1
    36     3     4    1
@<TRIPOS>MOLECULE
*****
 32 36 0 0 0
SMALL
GASTEIGER

@<TRIPOS>ATOM
      1 O          -0.2840    3.7816   19.7505 O.2     1  UNL1       -0.2668
      2 C          -1.1144    2.8220   20.5501 C.2     1  UNL1        0.2806
      3 N          -0.5893    1.4508   20.8569 N.am    1  UNL1       -0.2999
      4 H          -1.1343    0.8210   21.3818 H       1  UNL1        0.1498
      5 C          -2.4701    3.2335   21.0429 C.ar    1  UNL1        0.2014
      6 C          -3.6454    3.2112   20.1111 C.ar    1  UNL1        0.0843
      7 C          -5.0011    3.6226   20.6039 C.ar    1  UNL1        0.2018
      8 O          -6.1764    3.6003   19.6721 O.2     1  UNL1       -0.2864
      9 C          -5.1815    4.0565   22.0284 C.ar    1  UNL1        0.0736
     10 C          -6.5371    4.4680   22.5212 C.ar    1  UNL1        0.0067
     11 C          -6.7175    4.9018   23.9457 C.ar    1  UNL1        0.0070
     12 C          -5.5422    4.9242   24.8774 C.ar    1  UNL1        0.0376
     13 BR         -5.7226    5.3580   26.3020 Br      1  UNL1       -0.0489
     14 C          -4.1865    4.5127   24.3847 C.ar    1  UNL1        0.0443
     15 C          -4.0062    4.0789   22.9602 C.ar    1  UNL1        0.1490
     16 O          -2.6505    3.6673   22.4674 O.2     1  UNL1       -0.4487
     17 C           0.7664    1.0393   20.3642 C.3     1  UNL1        0.0747
     18 C           0.9504    0.6234   18.9348 C.3     1  UNL1        0.0369
     19 C           2.3060    0.2119   18.4420 C.3     1  UNL1        0.0741
     20 N           3.4777    0.2162   19.3787 N.3     1  UNL1       -0.2688
     21 C           3.2937    0.6321   20.8081 C.3     1  UNL1        0.0741
     22 C           1.9379    1.0436   21.3008 C.3     1  UNL1        0.0369
     23 C           4.8333   -0.1954   18.8859 C.3     1  UNL1        0.0992
     24 C           5.4738   -1.4466   19.4097 C.ar    1  UNL1       -0.0029
     25 C           4.6235   -2.6240   19.7845 C.ar    1  UNL1        0.0004
     26 C           5.2639   -3.8752   20.3082 C.ar    1  UNL1        0.0399
     27 C           6.7546   -3.9490   20.4572 C.ar    1  UNL1        0.1764
     28 C           7.6049   -2.7715   20.0824 C.ar    1  UNL1        0.1762
     29 C           6.9645   -1.5203   19.5587 C.ar    1  UNL1        0.0373
     30 O           9.0380   -3.1351   20.3360 O.3     1  UNL1       -0.4346
     31 C           9.0733   -4.5373   20.8675 C.3     1  UNL1        0.4294
     32 O           7.6621   -5.0403   20.9424 O.3     1  UNL1       -0.4346
@<TRIPOS>BOND
     1     1     2    2
     2     2     3   am
     3     3    17    1
     4    17    18    1
     5    18    19    1
     6    19    20    1
     7    20    23    1
     8    23    24    1
     9    24    25   ar
    10    25    26   ar
    11    26    27   ar
    12    27    28   ar
    13    28    29   ar
    14    28    30    1
    15    30    31    1
    16    31    32    1
    17    20    21    1
    18    21    22    1
    19     2     5    1
    20     5     6   ar
    21     6     7   ar
    22     7     8    2
    23     7     9   ar
    24     9    10   ar
    25    10    11   ar
    26    11    12   ar
    27    12    13    1
    28    12    14   ar
    29    14    15   ar
    30    15    16   ar
    31    22    17    1
    32    16     5   ar
    33    29    24   ar
    34    15     9   ar
    35    32    27    1
    36     3     4    1
@<TRIPOS>MOLECULE
*****
 32 36 0 0 0
SMALL
GASTEIGER

@<TRIPOS>ATOM
      1 O           1.0946    3.0991   20.6691 O.2     1  UNL1       -0.2668
      2 C          -0.1823    2.3159   20.7473 C.2     1  UNL1        0.2806
      3 N          -0.2184    0.8916   20.2783 N.am    1  UNL1       -0.2999
      4 H          -1.0565    0.3775   20.3296 H       1  UNL1        0.1498
      5 C          -1.4231    2.9570   21.2945 C.ar    1  UNL1        0.2014
      6 C          -2.4829    3.4589   20.3592 C.ar    1  UNL1        0.0843
      7 C          -3.7237    4.1000   20.9064 C.ar    1  UNL1        0.2018
      8 O          -4.7836    4.6018   19.9711 O.2     1  UNL1       -0.2864
      9 C          -3.9047    4.2392   22.3890 C.ar    1  UNL1        0.0736
     10 C          -5.1454    4.8803   22.9361 C.ar    1  UNL1        0.0067
     11 C          -5.3263    5.0196   24.4186 C.ar    1  UNL1        0.0070
     12 C          -4.2665    4.5177   25.3540 C.ar    1  UNL1        0.0376
     13 BR         -4.4474    4.6570   26.8365 Br      1  UNL1       -0.0489
     14 C          -3.0257    3.8766   24.8068 C.ar    1  UNL1        0.0443
     15 C          -2.8448    3.7374   23.3243 C.ar    1  UNL1        0.1490
     16 O          -1.6040    3.0963   22.7770 O.2     1  UNL1       -0.4487
     17 C           1.0223    0.2504   19.7311 C.3     1  UNL1        0.0747
     18 C           1.5683    0.6855   18.4034 C.3     1  UNL1        0.0369
     19 C           2.8091    0.0444   17.8562 C.3     1  UNL1        0.0741
     20 N           3.5039   -1.0319   18.6366 N.3     1  UNL1       -0.2688
     21 C           2.9579   -1.4669   19.9642 C.3     1  UNL1        0.0741
     22 C           1.7171   -0.8258   20.5115 C.3     1  UNL1        0.0369
     23 C           4.7446   -1.6730   18.0894 C.3     1  UNL1        0.0992
     24 C           5.8804   -2.0138   19.0080 C.ar    1  UNL1       -0.0029
     25 C           6.9084   -0.9753   19.3468 C.ar    1  UNL1        0.0004
     26 C           8.0442   -1.3161   20.2654 C.ar    1  UNL1        0.0399
     27 C           8.1520   -2.6953   20.8452 C.ar    1  UNL1        0.1764
     28 C           7.1240   -3.7337   20.5064 C.ar    1  UNL1        0.1762
     29 C           5.9882   -3.3929   19.5877 C.ar    1  UNL1        0.0373
     30 O           7.4891   -4.9991   21.2244 O.3     1  UNL1       -0.4346
     31 C           8.7428   -4.7427   22.0070 C.3     1  UNL1        0.4294
     32 O           9.1525   -3.3189   21.7726 O.3     1  UNL1       -0.4346
@<TRIPOS>BOND
     1     1     2    2
     2     2     3   am
     3     3    17    1
     4    17    18    1
     5    18    19    1
     6    19    20    1
     7    20    23    1
     8    23    24    1
     9    24    25   ar
    10    25    26   ar
    11    26    27   ar
    12    27    28   ar
    13    28    29   ar
    14    28    30    1
    15    30    31    1
    16    31    32    1
    17    20    21    1
    18    21    22    1
    19     2     5    1
    20     5     6   ar
    21     6     7   ar
    22     7     8    2
    23     7     9   ar
    24     9    10   ar
    25    10    11   ar
    26    11    12   ar
    27    12    13    1
    28    12    14   ar
    29    14    15   ar
    30    15    16   ar
    31    22    17    1
    32    16     5   ar
    33    29    24   ar
    34    15     9   ar
    35    32    27    1
    36     3     4    1
