@<TRIPOS>MOLECULE
*****
 24 26 0 0 0
SMALL
GASTEIGER

@<TRIPOS>ATOM
      1 C         -10.1244  -17.1860   22.9834 C.3     1  UNL1        0.0952
      2 C          -9.2979  -16.3010   23.8686 C.3     1  UNL1        0.0245
      3 C          -7.8047  -16.2824   23.7268 C.3     1  UNL1        0.0067
      4 C          -7.1380  -17.1488   22.6998 C.3     1  UNL1        0.0263
      5 C          -7.9645  -18.0338   21.8146 C.ar    1  UNL1       -0.0216
      6 C          -7.2978  -18.9003   20.7875 C.ar    1  UNL1        0.0150
      7 C          -8.1243  -19.7853   19.9023 C.ar    1  UNL1        0.0985
      8 N          -9.6175  -19.8039   20.0441 N.ar    1  UNL1       -0.2426
      9 C         -10.2842  -18.9375   21.0711 C.ar    1  UNL1        0.0959
     10 C          -9.4577  -18.0524   21.9564 C.ar    1  UNL1        0.0107
     11 C          -5.8047  -18.8817   20.6457 C.ar    1  UNL1        0.0012
     12 C          -5.1814  -18.5904   19.3128 C.ar    1  UNL1        0.0007
     13 C          -3.6883  -18.5718   19.1710 C.ar    1  UNL1        0.0103
     14 C          -2.8183  -18.8445   20.3621 C.ar    1  UNL1        0.0684
     15 C          -3.4415  -19.1359   21.6951 C.ar    1  UNL1        0.0103
     16 C          -4.9347  -19.1545   21.8369 C.ar    1  UNL1        0.0007
     17 C          -1.3252  -18.8259   20.2203 C.1     1  UNL1        0.1004
     18 N           0.1680  -18.8073   20.0785 N.1     1  UNL1       -0.1908
     19 C         -12.2735  -18.2152   24.0187 C.2     1  UNL1        0.2226
     20 O         -11.4363  -19.2073   24.7704 O.2     1  UNL1       -0.2751
     21 N         -11.6175  -17.2046   23.1252 N.am    1  UNL1       -0.3022
     22 H         -12.1670  -16.5535   22.6319 H       1  UNL1        0.1497
     23 C         -14.3895  -18.4716   25.5043 C.3     1  UNL1        0.0101
     24 C         -13.7667  -18.2338   24.1605 C.3     1  UNL1        0.0851
@<TRIPOS>BOND
     1    23    24    1
     2    24    19    1
     3    19    20    2
     4    19    21   am
     5    21     1    1
     6     1     2    1
     7     2     3    1
     8     3     4    1
     9     4     5    1
    10     5     6   ar
    11     6    11    1
    12    11    12   ar
    13    12    13   ar
    14    13    14   ar
    15    14    17    1
    16    17    18    3
    17    14    15   ar
    18    15    16   ar
    19     6     7   ar
    20     7     8   ar
    21     8     9   ar
    22     9    10   ar
    23    10     1    1
    24    10     5   ar
    25    16    11   ar
    26    21    22    1
@<TRIPOS>MOLECULE
*****
 24 26 0 0 0
SMALL
GASTEIGER

@<TRIPOS>ATOM
      1 C           5.0978   -2.8114   24.0008 C.3     1  UNL1        0.0952
      2 C           4.8153   -1.5752   24.8020 C.3     1  UNL1        0.0245
      3 C           4.0405   -0.4458   24.1903 C.3     1  UNL1        0.0067
      4 C           3.5483   -0.5525   22.7775 C.3     1  UNL1        0.0263
      5 C           3.8308   -1.7887   21.9763 C.ar    1  UNL1       -0.0216
      6 C           3.3385   -1.8956   20.5634 C.ar    1  UNL1        0.0150
      7 C           3.6210   -3.1318   19.7622 C.ar    1  UNL1        0.0985
      8 N           4.3958   -4.2612   20.3738 N.ar    1  UNL1       -0.2426
      9 C           4.8881   -4.1544   21.7867 C.ar    1  UNL1        0.0959
     10 C           4.6056   -2.9182   22.5880 C.ar    1  UNL1        0.0107
     11 C           2.5637   -0.7662   19.9517 C.ar    1  UNL1        0.0012
     12 C           3.2135    0.1253   18.9354 C.ar    1  UNL1        0.0007
     13 C           2.4387    1.2547   18.3237 C.ar    1  UNL1        0.0103
     14 C           1.0141    1.4926   18.7284 C.ar    1  UNL1        0.0684
     15 C           0.3642    0.6011   19.7447 C.ar    1  UNL1        0.0103
     16 C           1.1390   -0.5283   20.3564 C.ar    1  UNL1        0.0007
     17 C           0.2393    2.6221   18.1167 C.1     1  UNL1        0.1004
     18 N          -0.5355    3.7515   17.5050 N.1     1  UNL1       -0.1908
     19 C           7.3513   -4.0463   24.3839 C.2     1  UNL1        0.2226
     20 O           8.0553   -3.0223   23.5436 O.2     1  UNL1       -0.2751
     21 N           5.8726   -3.9408   24.6125 N.am    1  UNL1       -0.3022
     22 H           5.4106   -4.6128   25.1640 H       1  UNL1        0.1497
     23 C           8.0752   -6.5415   24.3774 C.3     1  UNL1        0.0101
     24 C           8.1261   -5.1757   24.9956 C.3     1  UNL1        0.0851
@<TRIPOS>BOND
     1    23    24    1
     2    24    19    1
     3    19    20    2
     4    19    21   am
     5    21     1    1
     6     1     2    1
     7     2     3    1
     8     3     4    1
     9     4     5    1
    10     5     6   ar
    11     6    11    1
    12    11    12   ar
    13    12    13   ar
    14    13    14   ar
    15    14    17    1
    16    17    18    3
    17    14    15   ar
    18    15    16   ar
    19     6     7   ar
    20     7     8   ar
    21     8     9   ar
    22     9    10   ar
    23    10     1    1
    24    10     5   ar
    25    16    11   ar
    26    21    22    1
@<TRIPOS>MOLECULE
*****
 24 26 0 0 0
SMALL
GASTEIGER

@<TRIPOS>ATOM
      1 C           7.4176   -6.3208   27.4317 C.3     1  UNL1        0.0952
      2 C           7.9769   -7.3650   26.5116 C.3     1  UNL1        0.0245
      3 C           8.0243   -7.1144   25.0334 C.3     1  UNL1        0.0067
      4 C           7.5125   -5.8196   24.4754 C.3     1  UNL1        0.0263
      5 C           6.9532   -4.7754   25.3956 C.ar    1  UNL1       -0.0216
      6 C           6.4413   -3.4805   24.8376 C.ar    1  UNL1        0.0150
      7 C           5.8820   -2.4363   25.7577 C.ar    1  UNL1        0.0985
      8 N           5.8346   -2.6869   27.2359 N.ar    1  UNL1       -0.2426
      9 C           6.3464   -3.9817   27.7939 C.ar    1  UNL1        0.0959
     10 C           6.9058   -5.0260   26.8737 C.ar    1  UNL1        0.0107
     11 C           6.4887   -3.2299   23.3594 C.ar    1  UNL1        0.0012
     12 C           7.6516   -2.4963   22.7600 C.ar    1  UNL1        0.0007
     13 C           7.6990   -2.2457   21.2818 C.ar    1  UNL1        0.0103
     14 C           6.5835   -2.7288   20.4031 C.ar    1  UNL1        0.0684
     15 C           5.4205   -3.4625   21.0025 C.ar    1  UNL1        0.0103
     16 C           5.3731   -3.7131   22.4806 C.ar    1  UNL1        0.0007
     17 C           6.6310   -2.4782   18.9249 C.1     1  UNL1        0.1004
     18 N           6.6784   -2.2276   17.4468 N.1     1  UNL1       -0.1908
     19 C           8.4293   -5.9957   29.8025 C.2     1  UNL1        0.2226
     20 O           9.5360   -5.1695   29.2170 O.2     1  UNL1       -0.2751
     21 N           7.3702   -6.5714   28.9099 N.am    1  UNL1       -0.3022
     22 H           6.6439   -7.1137   29.2942 H       1  UNL1        0.1497
     23 C           9.3288   -7.2275   31.9058 C.3     1  UNL1        0.0101
     24 C           8.3819   -6.2463   31.2807 C.3     1  UNL1        0.0851
@<TRIPOS>BOND
     1    23    24    1
     2    24    19    1
     3    19    20    2
     4    19    21   am
     5    21     1    1
     6     1     2    1
     7     2     3    1
     8     3     4    1
     9     4     5    1
    10     5     6   ar
    11     6    11    1
    12    11    12   ar
    13    12    13   ar
    14    13    14   ar
    15    14    17    1
    16    17    18    3
    17    14    15   ar
    18    15    16   ar
    19     6     7   ar
    20     7     8   ar
    21     8     9   ar
    22     9    10   ar
    23    10     1    1
    24    10     5   ar
    25    16    11   ar
    26    21    22    1
@<TRIPOS>MOLECULE
*****
 24 26 0 0 0
SMALL
GASTEIGER

@<TRIPOS>ATOM
      1 C         -11.8489   -3.9163   18.9772 C.3     1  UNL1        0.0952
      2 C         -11.0260   -2.7152   18.6165 C.3     1  UNL1        0.0245
      3 C         -11.6742   -1.3669   18.5083 C.3     1  UNL1        0.0067
      4 C         -13.1454   -1.2196   18.7609 C.3     1  UNL1        0.0263
      5 C         -13.9684   -2.4206   19.1216 C.ar    1  UNL1       -0.0216
      6 C         -15.4396   -2.2734   19.3742 C.ar    1  UNL1        0.0150
      7 C         -16.2626   -3.4744   19.7349 C.ar    1  UNL1        0.0985
      8 N         -15.6143   -4.8228   19.8431 N.ar    1  UNL1       -0.2426
      9 C         -14.1431   -4.9701   19.5905 C.ar    1  UNL1        0.0959
     10 C         -13.3201   -3.7690   19.2298 C.ar    1  UNL1        0.0107
     11 C         -16.0879   -0.9250   19.2660 C.ar    1  UNL1        0.0012
     12 C         -16.5357   -0.4132   17.9291 C.ar    1  UNL1        0.0007
     13 C         -17.1839    0.9352   17.8209 C.ar    1  UNL1        0.0103
     14 C         -17.3844    1.7717   19.0497 C.ar    1  UNL1        0.0684
     15 C         -16.9366    1.2599   20.3867 C.ar    1  UNL1        0.0103
     16 C         -16.2884   -0.0885   20.4949 C.ar    1  UNL1        0.0007
     17 C         -18.0327    3.1201   18.9415 C.1     1  UNL1        0.1004
     18 N         -18.6809    4.4684   18.8333 N.1     1  UNL1       -0.1908
     19 C         -11.0550   -6.1267   17.8666 C.2     1  UNL1        0.2226
     20 O         -11.5576   -5.6405   16.5395 O.2     1  UNL1       -0.2751
     21 N         -11.2007   -5.2646   19.0854 N.am    1  UNL1       -0.3022
     22 H         -10.8708   -5.5838   19.9564 H       1  UNL1        0.1497
     23 C          -9.2936   -7.6955   18.9558 C.3     1  UNL1        0.0101
     24 C         -10.4067   -7.4751   17.9748 C.3     1  UNL1        0.0851
@<TRIPOS>BOND
     1    23    24    1
     2    24    19    1
     3    19    20    2
     4    19    21   am
     5    21     1    1
     6     1     2    1
     7     2     3    1
     8     3     4    1
     9     4     5    1
    10     5     6   ar
    11     6    11    1
    12    11    12   ar
    13    12    13   ar
    14    13    14   ar
    15    14    17    1
    16    17    18    3
    17    14    15   ar
    18    15    16   ar
    19     6     7   ar
    20     7     8   ar
    21     8     9   ar
    22     9    10   ar
    23    10     1    1
    24    10     5   ar
    25    16    11   ar
    26    21    22    1
@<TRIPOS>MOLECULE
*****
 24 26 0 0 0
SMALL
GASTEIGER

@<TRIPOS>ATOM
      1 C           5.6185   -1.6708   20.3974 C.3     1  UNL1        0.0952
      2 C           4.3028   -2.1989   20.8871 C.3     1  UNL1        0.0245
      3 C           4.2686   -3.3042   21.9005 C.3     1  UNL1        0.0067
      4 C           5.5501   -3.8815   22.4242 C.3     1  UNL1        0.0263
      5 C           6.8659   -3.3534   21.9345 C.ar    1  UNL1       -0.0216
      6 C           8.1475   -3.9307   22.4582 C.ar    1  UNL1        0.0150
      7 C           9.4633   -3.4026   21.9685 C.ar    1  UNL1        0.0985
      8 N           9.4975   -2.2973   20.9551 N.ar    1  UNL1       -0.2426
      9 C           8.2159   -1.7200   20.4314 C.ar    1  UNL1        0.0959
     10 C           6.9001   -2.2481   20.9211 C.ar    1  UNL1        0.0107
     11 C           8.1133   -5.0361   23.4716 C.ar    1  UNL1        0.0012
     12 C           7.5861   -4.7729   24.8510 C.ar    1  UNL1        0.0007
     13 C           7.5519   -5.8783   25.8644 C.ar    1  UNL1        0.0103
     14 C           8.0449   -7.2468   25.4984 C.ar    1  UNL1        0.0684
     15 C           8.5722   -7.5101   24.1190 C.ar    1  UNL1        0.0103
     16 C           8.6064   -6.4047   23.1056 C.ar    1  UNL1        0.0007
     17 C           8.0107   -8.3522   26.5118 C.1     1  UNL1        0.1004
     18 N           7.9765   -9.4576   27.5252 N.1     1  UNL1       -0.1908
     19 C           5.6137   -0.8888   17.9198 C.2     1  UNL1        0.2226
     20 O           5.5405   -2.3176   17.4690 O.2     1  UNL1       -0.2751
     21 N           5.6527   -0.5654   19.3840 N.am    1  UNL1       -0.3022
     22 H           5.7008    0.3724   19.6799 H       1  UNL1        0.1497
     23 C           6.9490    0.8796   16.5634 C.3     1  UNL1        0.0101
     24 C           5.6479    0.2166   16.9064 C.3     1  UNL1        0.0851
@<TRIPOS>BOND
     1    23    24    1
     2    24    19    1
     3    19    20    2
     4    19    21   am
     5    21     1    1
     6     1     2    1
     7     2     3    1
     8     3     4    1
     9     4     5    1
    10     5     6   ar
    11     6    11    1
    12    11    12   ar
    13    12    13   ar
    14    13    14   ar
    15    14    17    1
    16    17    18    3
    17    14    15   ar
    18    15    16   ar
    19     6     7   ar
    20     7     8   ar
    21     8     9   ar
    22     9    10   ar
    23    10     1    1
    24    10     5   ar
    25    16    11   ar
    26    21    22    1
@<TRIPOS>MOLECULE
*****
 24 26 0 0 0
SMALL
GASTEIGER

@<TRIPOS>ATOM
      1 C           2.1970   -1.0143   20.4888 C.3     1  UNL1        0.0952
      2 C           1.1157   -0.2777   19.7552 C.3     1  UNL1        0.0245
      3 C           0.3089    0.7701   20.4630 C.3     1  UNL1        0.0067
      4 C           0.5834    1.0814   21.9044 C.3     1  UNL1        0.0263
      5 C           1.6647    0.3449   22.6380 C.ar    1  UNL1       -0.0216
      6 C           1.9392    0.6562   24.0795 C.ar    1  UNL1        0.0150
      7 C           3.0206   -0.0803   24.8131 C.ar    1  UNL1        0.0985
      8 N           3.8274   -1.1282   24.1052 N.ar    1  UNL1       -0.2426
      9 C           3.5529   -1.4395   22.6638 C.ar    1  UNL1        0.0959
     10 C           2.4715   -0.7030   21.9302 C.ar    1  UNL1        0.0107
     11 C           1.1324    1.7041   24.7873 C.ar    1  UNL1        0.0012
     12 C          -0.1190    1.3195   25.5195 C.ar    1  UNL1        0.0007
     13 C          -0.9258    2.3674   26.2273 C.ar    1  UNL1        0.0103
     14 C          -0.4813    3.7998   26.2029 C.ar    1  UNL1        0.0684
     15 C           0.7702    4.1844   25.4707 C.ar    1  UNL1        0.0103
     16 C           1.5770    3.1365   24.7629 C.ar    1  UNL1        0.0007
     17 C          -1.2881    4.8476   26.9108 C.1     1  UNL1        0.1004
     18 N          -2.0949    5.8955   27.6186 N.1     1  UNL1       -0.1908
     19 C           4.2214   -1.6693   18.9978 C.2     1  UNL1        0.2226
     20 O           4.6321   -0.2285   18.9224 O.2     1  UNL1       -0.2751
     21 N           3.0039   -2.0621   19.7809 N.am    1  UNL1       -0.3022
     22 H           2.7344   -3.0077   19.8304 H       1  UNL1        0.1497
     23 C           4.8704   -4.1622   18.6600 C.3     1  UNL1        0.0101
     24 C           5.0282   -2.7171   18.2900 C.3     1  UNL1        0.0851
@<TRIPOS>BOND
     1    23    24    1
     2    24    19    1
     3    19    20    2
     4    19    21   am
     5    21     1    1
     6     1     2    1
     7     2     3    1
     8     3     4    1
     9     4     5    1
    10     5     6   ar
    11     6    11    1
    12    11    12   ar
    13    12    13   ar
    14    13    14   ar
    15    14    17    1
    16    17    18    3
    17    14    15   ar
    18    15    16   ar
    19     6     7   ar
    20     7     8   ar
    21     8     9   ar
    22     9    10   ar
    23    10     1    1
    24    10     5   ar
    25    16    11   ar
    26    21    22    1
@<TRIPOS>MOLECULE
*****
 24 26 0 0 0
SMALL
GASTEIGER

@<TRIPOS>ATOM
      1 C           4.9210   -2.7428   21.0392 C.3     1  UNL1        0.0952
      2 C           4.2251   -2.3062   22.2942 C.3     1  UNL1        0.0245
      3 C           3.3109   -1.1172   22.2701 C.3     1  UNL1        0.0067
      4 C           3.0926   -0.3648   20.9910 C.3     1  UNL1        0.0263
      5 C           3.7886   -0.8013   19.7360 C.ar    1  UNL1       -0.0216
      6 C           3.5703   -0.0489   18.4568 C.ar    1  UNL1        0.0150
      7 C           4.2663   -0.4854   17.2018 C.ar    1  UNL1        0.0985
      8 N           5.1805   -1.6744   17.2259 N.ar    1  UNL1       -0.2426
      9 C           5.3987   -2.4268   18.5050 C.ar    1  UNL1        0.0959
     10 C           4.7028   -1.9903   19.7601 C.ar    1  UNL1        0.0107
     11 C           2.6561    1.1401   18.4327 C.ar    1  UNL1        0.0012
     12 C           3.2244    2.5251   18.5263 C.ar    1  UNL1        0.0007
     13 C           2.3102    3.7141   18.5022 C.ar    1  UNL1        0.0103
     14 C           0.8277    3.5180   18.3845 C.ar    1  UNL1        0.0684
     15 C           0.2594    2.1330   18.2908 C.ar    1  UNL1        0.0103
     16 C           1.1736    0.9440   18.3149 C.ar    1  UNL1        0.0007
     17 C          -0.0865    4.7070   18.3604 C.1     1  UNL1        0.1004
     18 N          -1.0007    5.8960   18.3363 N.1     1  UNL1       -0.1908
     19 C           7.3002   -3.7462   21.3270 C.2     1  UNL1        0.2226
     20 O           7.8509   -2.3717   21.5666 O.2     1  UNL1       -0.2751
     21 N           5.8352   -3.9317   21.0633 N.am    1  UNL1       -0.3022
     22 H           5.4738   -4.8339   20.9060 H       1  UNL1        0.1497
     23 C           8.6726   -5.5024   22.6619 C.3     1  UNL1        0.0101
     24 C           8.2144   -4.9352   21.3511 C.3     1  UNL1        0.0851
@<TRIPOS>BOND
     1    23    24    1
     2    24    19    1
     3    19    20    2
     4    19    21   am
     5    21     1    1
     6     1     2    1
     7     2     3    1
     8     3     4    1
     9     4     5    1
    10     5     6   ar
    11     6    11    1
    12    11    12   ar
    13    12    13   ar
    14    13    14   ar
    15    14    17    1
    16    17    18    3
    17    14    15   ar
    18    15    16   ar
    19     6     7   ar
    20     7     8   ar
    21     8     9   ar
    22     9    10   ar
    23    10     1    1
    24    10     5   ar
    25    16    11   ar
    26    21    22    1
@<TRIPOS>MOLECULE
*****
 24 26 0 0 0
SMALL
GASTEIGER

@<TRIPOS>ATOM
      1 C           1.1349    1.0544   29.3809 C.3     1  UNL1        0.0952
      2 C           0.2554   -0.1507   29.2251 C.3     1  UNL1        0.0245
      3 C          -0.9679   -0.0796   28.3600 C.3     1  UNL1        0.0067
      4 C          -1.3118    1.1966   27.6507 C.3     1  UNL1        0.0263
      5 C          -0.4323    2.4016   27.8065 C.ar    1  UNL1       -0.0216
      6 C          -0.7761    3.6779   27.0972 C.ar    1  UNL1        0.0150
      7 C           0.1034    4.8829   27.2529 C.ar    1  UNL1        0.0985
      8 N           1.3267    4.8118   28.1180 N.ar    1  UNL1       -0.2426
      9 C           1.6706    3.5357   28.8273 C.ar    1  UNL1        0.0959
     10 C           0.7911    2.3305   28.6716 C.ar    1  UNL1        0.0107
     11 C          -1.9995    3.7489   26.2321 C.ar    1  UNL1        0.0012
     12 C          -3.3388    4.0250   26.8483 C.ar    1  UNL1        0.0007
     13 C          -4.5622    4.0961   25.9832 C.ar    1  UNL1        0.0103
     14 C          -4.4461    3.8911   24.5019 C.ar    1  UNL1        0.0684
     15 C          -3.1067    3.6151   23.8855 C.ar    1  UNL1        0.0103
     16 C          -1.8834    3.5440   24.7506 C.ar    1  UNL1        0.0007
     17 C          -5.6695    3.9622   23.6368 C.1     1  UNL1        0.1004
     18 N          -6.8928    4.0333   22.7717 N.1     1  UNL1       -0.1908
     19 C           2.2677    1.3285   31.7029 C.2     1  UNL1        0.2226
     20 O           0.9537    1.7448   32.2947 O.2     1  UNL1       -0.2751
     21 N           2.3583    0.9833   30.2460 N.am    1  UNL1       -0.3022
     22 H           3.2206    0.7100   29.8575 H       1  UNL1        0.1497
     23 C           3.8460   -0.0247   33.2610 C.3     1  UNL1        0.0101
     24 C           3.4910    1.2574   32.5680 C.3     1  UNL1        0.0851
@<TRIPOS>BOND
     1    23    24    1
     2    24    19    1
     3    19    20    2
     4    19    21   am
     5    21     1    1
     6     1     2    1
     7     2     3    1
     8     3     4    1
     9     4     5    1
    10     5     6   ar
    11     6    11    1
    12    11    12   ar
    13    12    13   ar
    14    13    14   ar
    15    14    17    1
    16    17    18    3
    17    14    15   ar
    18    15    16   ar
    19     6     7   ar
    20     7     8   ar
    21     8     9   ar
    22     9    10   ar
    23    10     1    1
    24    10     5   ar
    25    16    11   ar
    26    21    22    1
@<TRIPOS>MOLECULE
*****
 24 26 0 0 0
SMALL
GASTEIGER

@<TRIPOS>ATOM
      1 C         -14.6891   -5.9653   19.5505 C.3     1  UNL1        0.0952
      2 C         -13.2882   -5.5076   19.8296 C.3     1  UNL1        0.0245
      3 C         -12.9831   -4.0421   19.9257 C.3     1  UNL1        0.0067
      4 C         -14.0789   -3.0343   19.7427 C.3     1  UNL1        0.0263
      5 C         -15.4798   -3.4920   19.4636 C.ar    1  UNL1       -0.0216
      6 C         -16.5757   -2.4842   19.2805 C.ar    1  UNL1        0.0150
      7 C         -17.9766   -2.9419   19.0014 C.ar    1  UNL1        0.0985
      8 N         -18.2817   -4.4074   18.9053 N.ar    1  UNL1       -0.2426
      9 C         -17.1859   -5.4152   19.0883 C.ar    1  UNL1        0.0959
     10 C         -15.7849   -4.9575   19.3674 C.ar    1  UNL1        0.0107
     11 C         -16.2706   -1.0187   19.3767 C.ar    1  UNL1        0.0012
     12 C         -16.9785   -0.1702   20.3910 C.ar    1  UNL1        0.0007
     13 C         -16.6734    1.2953   20.4871 C.ar    1  UNL1        0.0103
     14 C         -15.6604    1.9123   19.5689 C.ar    1  UNL1        0.0684
     15 C         -14.9524    1.0638   18.5546 C.ar    1  UNL1        0.0103
     16 C         -15.2575   -0.4017   18.4584 C.ar    1  UNL1        0.0007
     17 C         -15.3552    3.3778   19.6650 C.1     1  UNL1        0.1004
     18 N         -15.0501    4.8433   19.7612 N.1     1  UNL1       -0.1908
     19 C         -14.7986   -8.1540   18.1548 C.2     1  UNL1        0.2226
     20 O         -14.2977   -7.4116   16.9514 O.2     1  UNL1       -0.2751
     21 N         -14.9942   -7.4308   19.4543 N.am    1  UNL1       -0.3022
     22 H         -15.3229   -7.9180   20.2442 H       1  UNL1        0.1497
     23 C         -16.4810  -10.1212   18.3769 C.3     1  UNL1        0.0101
     24 C         -15.1037   -9.6195   18.0587 C.3     1  UNL1        0.0851
@<TRIPOS>BOND
     1    23    24    1
     2    24    19    1
     3    19    20    2
     4    19    21   am
     5    21     1    1
     6     1     2    1
     7     2     3    1
     8     3     4    1
     9     4     5    1
    10     5     6   ar
    11     6    11    1
    12    11    12   ar
    13    12    13   ar
    14    13    14   ar
    15    14    17    1
    16    17    18    3
    17    14    15   ar
    18    15    16   ar
    19     6     7   ar
    20     7     8   ar
    21     8     9   ar
    22     9    10   ar
    23    10     1    1
    24    10     5   ar
    25    16    11   ar
    26    21    22    1
