@<TRIPOS>MOLECULE
*****
 37 40 0 0 0
SMALL
GASTEIGER

@<TRIPOS>ATOM
      1 C         -10.9951  -17.6771   20.1487 C.3     1  UNL1        0.0771
      2 C         -10.7814  -16.5527   19.1792 C.3     1  UNL1        0.0368
      3 C         -11.8092  -15.4678   19.0506 C.3     1  UNL1        0.0703
      4 N         -13.0507  -15.5073   19.8915 N.3     1  UNL1       -0.2973
      5 C         -13.2644  -16.6317   20.8610 C.3     1  UNL1        0.0716
      6 C         -12.2367  -17.7166   20.9896 C.3     1  UNL1        0.0498
      7 H         -13.8419  -15.5190   19.2479 H       1  UNL1        0.1232
      8 N          -7.5639  -19.5213   20.9077 N.am    1  UNL1       -0.2485
      9 C          -8.5917  -18.4364   20.7791 C.2     1  UNL1        0.3058
     10 O          -8.2440  -17.0257   21.1521 O.2     1  UNL1       -0.2524
     11 N          -9.9673  -18.7621   20.2774 N.am    1  UNL1       -0.2901
     12 H          -7.7922  -20.4471   20.6629 H       1  UNL1        0.1583
     13 H         -10.1956  -19.6880   20.0325 H       1  UNL1        0.1509
     14 C          -3.7736  -19.0115   21.5706 C.ar    1  UNL1        0.0803
     15 S          -4.8978  -19.5173   20.7159 S.2     1  UNL1       -0.0488
     16 C          -6.1884  -19.1956   21.4094 C.ar    1  UNL1        0.1664
     17 N          -5.8618  -18.4910   22.6927 N.ar    1  UNL1       -0.2282
     18 C          -4.3694  -18.3772   22.7924 C.ar    1  UNL1        0.0701
     19 C          -3.6068  -17.7409   23.9164 C.3     1  UNL1        0.0528
     20 C          -1.5442  -17.9076   20.8219 C.3     1  UNL1        0.0779
     21 C          -2.3106  -19.1209   21.2583 C.2     1  UNL1        0.1807
     22 O          -1.6140  -20.4434   21.3825 O.2     1  UNL1       -0.2908
     23 C         -12.4504  -18.8411   21.9591 C.3     1  UNL1        0.0751
     24 N         -11.4172  -19.1354   23.0059 N.3     1  UNL1       -0.2726
     25 C         -10.7067  -20.4565   23.0081 C.3     1  UNL1        0.0721
     26 C          -9.6735  -20.7508   24.0549 C.3     1  UNL1        0.0174
     27 C          -9.3507  -19.7239   25.0996 C.3     1  UNL1        0.0031
     28 C         -10.0611  -18.4028   25.0975 C.3     1  UNL1        0.0204
     29 C         -11.0943  -18.1086   24.0506 C.3     1  UNL1        0.0724
     30 C          -9.7383  -17.3759   26.1422 C.3     1  UNL1        0.0277
     31 C          -8.4471  -16.6157   26.0728 C.ar    1  UNL1       -0.0220
     32 C          -7.7301  -16.2385   27.3353 C.ar    1  UNL1       -0.0020
     33 C          -6.4389  -15.4783   27.2660 C.ar    1  UNL1        0.0293
     34 C          -5.8646  -15.0954   25.9342 C.ar    1  UNL1        0.1401
     35 F          -4.5733  -14.3352   25.8648 F       1  UNL1       -0.2042
     36 C          -6.5815  -15.4726   24.6718 C.ar    1  UNL1        0.0293
     37 C          -7.8728  -16.2328   24.7411 C.ar    1  UNL1       -0.0020
@<TRIPOS>BOND
     1    20    21    1
     2    21    22    2
     3    21    14    1
     4    14    15   ar
     5    15    16   ar
     6    16     8    1
     7     8     9   am
     8     9    10    2
     9     9    11   am
    10     1    11    1
    11     1     2    1
    12     2     3    1
    13     3     4    1
    14     4     5    1
    15     5     6    1
    16     6    23    1
    17    23    24    1
    18    24    25    1
    19    25    26    1
    20    26    27    1
    21    27    28    1
    22    28    30    1
    23    30    31    1
    24    31    32   ar
    25    32    33   ar
    26    33    34   ar
    27    34    35    1
    28    34    36   ar
    29    36    37   ar
    30    28    29    1
    31    16    17   ar
    32    17    18   ar
    33    18    19    1
    34    18    14   ar
    35     6     1    1
    36    29    24    1
    37    37    31   ar
    38     8    12    1
    39    11    13    1
    40     4     7    1
@<TRIPOS>MOLECULE
*****
 37 40 0 0 0
SMALL
GASTEIGER

@<TRIPOS>ATOM
      1 C          -1.6117  -16.6760   20.7466 C.3     1  UNL1        0.0771
      2 C          -0.1553  -16.7464   21.0984 C.3     1  UNL1        0.0368
      3 C           0.7075  -17.8225   20.5088 C.3     1  UNL1        0.0703
      4 N           0.1138  -18.8281   19.5675 N.3     1  UNL1       -0.2973
      5 C          -1.3426  -18.7577   19.2157 C.3     1  UNL1        0.0716
      6 C          -2.2054  -17.6816   19.8053 C.3     1  UNL1        0.0498
      7 H           0.2730  -19.7474   19.9799 H       1  UNL1        0.1232
      8 N          -4.3922  -14.8757   22.9324 N.am    1  UNL1       -0.2485
      9 C          -3.5294  -15.9517   22.3429 C.2     1  UNL1        0.3058
     10 O          -3.7215  -17.3798   22.7599 O.2     1  UNL1       -0.2524
     11 N          -2.4745  -15.5998   21.3362 N.am    1  UNL1       -0.2901
     12 H          -4.2662  -13.9385   22.6587 H       1  UNL1        0.1583
     13 H          -2.3484  -14.6626   21.0625 H       1  UNL1        0.1509
     14 C          -7.5164  -16.0117   24.9361 C.ar    1  UNL1        0.0803
     15 S          -6.7887  -15.8269   23.6375 S.2     1  UNL1       -0.0488
     16 C          -5.4471  -15.2276   23.9391 C.ar    1  UNL1        0.1664
     17 N          -5.3457  -15.0420   25.4241 N.ar    1  UNL1       -0.2282
     18 C          -6.6245  -15.5266   26.0403 C.ar    1  UNL1        0.0701
     19 C          -6.9537  -15.5262   27.5037 C.3     1  UNL1        0.0528
     20 C          -9.9632  -16.2615   24.0992 C.3     1  UNL1        0.0779
     21 C          -8.8941  -16.5815   25.1014 C.2     1  UNL1        0.1807
     22 O          -9.2025  -17.4713   26.2689 O.2     1  UNL1       -0.2908
     23 C          -3.6619  -17.6112   19.4535 C.3     1  UNL1        0.0751
     24 N          -4.5549  -18.7872   19.7174 N.3     1  UNL1       -0.2726
     25 C          -3.9576  -20.1311   20.0128 C.3     1  UNL1        0.0721
     26 C          -4.8506  -21.3071   20.2767 C.3     1  UNL1        0.0174
     27 C          -6.3409  -21.1391   20.2452 C.3     1  UNL1        0.0031
     28 C          -6.9381  -19.7952   19.9499 C.3     1  UNL1        0.0204
     29 C          -6.0451  -18.6193   19.6860 C.3     1  UNL1        0.0724
     30 C          -8.4284  -19.6273   19.9184 C.3     1  UNL1        0.0277
     31 C          -9.2095  -19.6197   21.1989 C.ar    1  UNL1       -0.0220
     32 C         -10.6768  -19.3086   21.1806 C.ar    1  UNL1       -0.0020
     33 C         -11.4579  -19.3011   22.4612 C.ar    1  UNL1        0.0293
     34 C         -10.7717  -19.6047   23.7601 C.ar    1  UNL1        0.1401
     35 F         -11.5528  -19.5972   25.0406 F       1  UNL1       -0.2042
     36 C          -9.3044  -19.9158   23.7783 C.ar    1  UNL1        0.0293
     37 C          -8.5234  -19.9233   22.4978 C.ar    1  UNL1       -0.0020
@<TRIPOS>BOND
     1    20    21    1
     2    21    22    2
     3    21    14    1
     4    14    15   ar
     5    15    16   ar
     6    16     8    1
     7     8     9   am
     8     9    10    2
     9     9    11   am
    10     1    11    1
    11     1     2    1
    12     2     3    1
    13     3     4    1
    14     4     5    1
    15     5     6    1
    16     6    23    1
    17    23    24    1
    18    24    25    1
    19    25    26    1
    20    26    27    1
    21    27    28    1
    22    28    30    1
    23    30    31    1
    24    31    32   ar
    25    32    33   ar
    26    33    34   ar
    27    34    35    1
    28    34    36   ar
    29    36    37   ar
    30    28    29    1
    31    16    17   ar
    32    17    18   ar
    33    18    19    1
    34    18    14   ar
    35     6     1    1
    36    29    24    1
    37    37    31   ar
    38     8    12    1
    39    11    13    1
    40     4     7    1
@<TRIPOS>MOLECULE
*****
 37 40 0 0 0
SMALL
GASTEIGER

@<TRIPOS>ATOM
      1 C           8.4715   -5.6557   26.9037 C.3     1  UNL1        0.0771
      2 C           8.5053   -7.0373   27.4867 C.3     1  UNL1        0.0368
      3 C           8.3161   -8.2310   26.5984 C.3     1  UNL1        0.0703
      4 N           8.0932   -8.0430   25.1270 N.3     1  UNL1       -0.2973
      5 C           8.0595   -6.6614   24.5440 C.3     1  UNL1        0.0716
      6 C           8.2486   -5.4677   25.4323 C.3     1  UNL1        0.0498
      7 H           7.1968   -8.4773   24.9071 H       1  UNL1        0.1232
      8 N           7.7110   -2.7701   29.5201 N.am    1  UNL1       -0.2485
      9 C           7.5219   -3.9638   28.6317 C.2     1  UNL1        0.3058
     10 O           6.1938   -4.6596   28.5830 O.2     1  UNL1       -0.2524
     11 N           8.6607   -4.4619   27.7921 N.am    1  UNL1       -0.2901
     12 H           8.5826   -2.3135   29.5521 H       1  UNL1        0.1583
     13 H           9.5324   -4.0053   27.8241 H       1  UNL1        0.1509
     14 C           5.0821   -1.8932   32.2378 C.ar    1  UNL1        0.0803
     15 S           6.3275   -2.6064   31.8014 S.2     1  UNL1       -0.0488
     16 C           6.5721   -2.2721   30.3597 C.ar    1  UNL1        0.1664
     17 N           5.4779   -1.3523   29.9051 N.ar    1  UNL1       -0.2282
     18 C           4.5570   -1.1181   31.0658 C.ar    1  UNL1        0.0701
     19 C           3.3270   -0.2597   31.0561 C.3     1  UNL1        0.0528
     20 C           4.7409   -0.8486   34.5919 C.3     1  UNL1        0.0779
     21 C           4.4695   -1.9459   33.6059 C.2     1  UNL1        0.1807
     22 O           3.5854   -3.0958   33.9880 O.2     1  UNL1       -0.2908
     23 C           8.2149   -4.0860   24.8493 C.3     1  UNL1        0.0751
     24 N           6.9117   -3.4915   24.4041 N.3     1  UNL1       -0.2726
     25 C           6.2733   -2.3972   25.2072 C.3     1  UNL1        0.0721
     26 C           4.9701   -1.8026   24.7619 C.3     1  UNL1        0.0174
     27 C           4.3054   -2.3024   23.5135 C.3     1  UNL1        0.0031
     28 C           4.9438   -3.3967   22.7105 C.3     1  UNL1        0.0204
     29 C           6.2470   -3.9912   23.1557 C.3     1  UNL1        0.0724
     30 C           4.2791   -3.8964   21.4621 C.3     1  UNL1        0.0277
     31 C           4.2884   -3.0561   20.2196 C.ar    1  UNL1       -0.0220
     32 C           3.2762   -1.9627   20.0461 C.ar    1  UNL1       -0.0020
     33 C           3.2855   -1.1224   18.8036 C.ar    1  UNL1        0.0293
     34 C           4.3069   -1.3755   17.7346 C.ar    1  UNL1        0.1401
     35 F           4.3162   -0.5352   16.4921 F       1  UNL1       -0.2042
     36 C           5.3190   -2.4689   17.9081 C.ar    1  UNL1        0.0293
     37 C           5.3097   -3.3092   19.1506 C.ar    1  UNL1       -0.0020
@<TRIPOS>BOND
     1    20    21    1
     2    21    22    2
     3    21    14    1
     4    14    15   ar
     5    15    16   ar
     6    16     8    1
     7     8     9   am
     8     9    10    2
     9     9    11   am
    10     1    11    1
    11     1     2    1
    12     2     3    1
    13     3     4    1
    14     4     5    1
    15     5     6    1
    16     6    23    1
    17    23    24    1
    18    24    25    1
    19    25    26    1
    20    26    27    1
    21    27    28    1
    22    28    30    1
    23    30    31    1
    24    31    32   ar
    25    32    33   ar
    26    33    34   ar
    27    34    35    1
    28    34    36   ar
    29    36    37   ar
    30    28    29    1
    31    16    17   ar
    32    17    18   ar
    33    18    19    1
    34    18    14   ar
    35     6     1    1
    36    29    24    1
    37    37    31   ar
    38     8    12    1
    39    11    13    1
    40     4     7    1
@<TRIPOS>MOLECULE
*****
 37 40 0 0 0
SMALL
GASTEIGER

@<TRIPOS>ATOM
      1 C           8.5817   -5.9699   25.5261 C.3     1  UNL1        0.0771
      2 C           8.2052   -7.4190   25.4355 C.3     1  UNL1        0.0368
      3 C           7.6829   -8.1352   26.6455 C.3     1  UNL1        0.0703
      4 N           7.5371   -7.4024   27.9461 N.3     1  UNL1       -0.2973
      5 C           7.9135   -5.9532   28.0367 C.3     1  UNL1        0.0716
      6 C           8.4358   -5.2370   26.8267 C.3     1  UNL1        0.0498
      7 H           8.1092   -7.8985   28.6294 H       1  UNL1        0.1232
      8 N           8.6744   -4.0474   22.0554 N.am    1  UNL1       -0.2485
      9 C           8.1521   -4.7637   23.2654 C.2     1  UNL1        0.3058
     10 O           6.6779   -4.9902   23.4248 O.2     1  UNL1       -0.2524
     11 N           9.1040   -5.2535   24.3161 N.am    1  UNL1       -0.2901
     12 H           9.6420   -3.8987   21.9508 H       1  UNL1        0.1583
     13 H          10.0716   -5.1049   24.2115 H       1  UNL1        0.1509
     14 C           6.6103   -2.1419   19.3769 C.ar    1  UNL1        0.0803
     15 S           7.7336   -2.1988   20.3694 S.2     1  UNL1       -0.0488
     16 C           7.7225   -3.5575   21.0048 C.ar    1  UNL1        0.1664
     17 N           6.5923   -4.3404   20.4050 N.ar    1  UNL1       -0.2282
     18 C           5.9049   -3.4656   19.3989 C.ar    1  UNL1        0.0701
     19 C           4.7202   -3.8473   18.5618 C.3     1  UNL1        0.0528
     20 C           5.4658    0.1723   19.0867 C.3     1  UNL1        0.0779
     21 C           6.2548   -0.9676   18.5140 C.2     1  UNL1        0.1807
     22 O           6.6884   -0.9333   17.0785 O.2     1  UNL1       -0.2908
     23 C           8.8123   -3.7878   26.9173 C.3     1  UNL1        0.0751
     24 N           8.1189   -2.7773   26.0524 N.3     1  UNL1       -0.2726
     25 C           8.9236   -1.7893   25.2608 C.3     1  UNL1        0.0721
     26 C           8.2302   -0.7788   24.3959 C.3     1  UNL1        0.0174
     27 C           6.7321   -0.7563   24.3226 C.3     1  UNL1        0.0031
     28 C           5.9275   -1.7442   25.1141 C.3     1  UNL1        0.0204
     29 C           6.6209   -2.7547   25.9790 C.3     1  UNL1        0.0724
     30 C           4.4294   -1.7216   25.0408 C.3     1  UNL1        0.0277
     31 C           3.7469   -1.3373   23.7616 C.ar    1  UNL1       -0.0220
     32 C           3.9962   -2.1282   22.5115 C.ar    1  UNL1       -0.0020
     33 C           3.3136   -1.7439   21.2323 C.ar    1  UNL1        0.0293
     34 C           2.3818   -0.5687   21.2031 C.ar    1  UNL1        0.1401
     35 F           1.6992   -0.1844   19.9239 F       1  UNL1       -0.2042
     36 C           2.1325    0.2220   22.4531 C.ar    1  UNL1        0.0293
     37 C           2.8151   -0.1623   23.7323 C.ar    1  UNL1       -0.0020
@<TRIPOS>BOND
     1    20    21    1
     2    21    22    2
     3    21    14    1
     4    14    15   ar
     5    15    16   ar
     6    16     8    1
     7     8     9   am
     8     9    10    2
     9     9    11   am
    10     1    11    1
    11     1     2    1
    12     2     3    1
    13     3     4    1
    14     4     5    1
    15     5     6    1
    16     6    23    1
    17    23    24    1
    18    24    25    1
    19    25    26    1
    20    26    27    1
    21    27    28    1
    22    28    30    1
    23    30    31    1
    24    31    32   ar
    25    32    33   ar
    26    33    34   ar
    27    34    35    1
    28    34    36   ar
    29    36    37   ar
    30    28    29    1
    31    16    17   ar
    32    17    18   ar
    33    18    19    1
    34    18    14   ar
    35     6     1    1
    36    29    24    1
    37    37    31   ar
    38     8    12    1
    39    11    13    1
    40     4     7    1
@<TRIPOS>MOLECULE
*****
 37 40 0 0 0
SMALL
GASTEIGER

@<TRIPOS>ATOM
      1 C           8.4178   -5.6760   27.1735 C.3     1  UNL1        0.0771
      2 C           8.3893   -7.0078   27.8630 C.3     1  UNL1        0.0368
      3 C           8.2536   -8.2662   27.0581 C.3     1  UNL1        0.0703
      4 N           8.1463   -8.1929   25.5638 N.3     1  UNL1       -0.2973
      5 C           8.1748   -6.8611   24.8743 C.3     1  UNL1        0.0716
      6 C           8.3106   -5.6026   25.6791 C.3     1  UNL1        0.0498
      7 H           7.2640   -8.6371   25.3097 H       1  UNL1        0.1232
      8 N           7.5557   -2.6973   29.6502 N.am    1  UNL1       -0.2485
      9 C           7.4200   -3.9558   28.8454 C.2     1  UNL1        0.3058
     10 O           6.1507   -4.7527   28.9076 O.2     1  UNL1       -0.2524
     11 N           8.5536   -4.4175   27.9783 N.am    1  UNL1       -0.2901
     12 H           8.3888   -2.1743   29.6094 H       1  UNL1        0.1583
     13 H           9.3867   -3.8945   27.9375 H       1  UNL1        0.1509
     14 C           4.4211   -1.0999   31.2897 C.ar    1  UNL1        0.0803
     15 S           5.3406   -1.2762   30.1178 S.2     1  UNL1       -0.0488
     16 C           6.4221   -2.2356   30.5173 C.ar    1  UNL1        0.1664
     17 N           6.1711   -2.6524   31.9362 N.ar    1  UNL1       -0.2282
     18 C           4.9343   -1.9505   32.4136 C.ar    1  UNL1        0.0701
     19 C           4.3190   -2.0769   33.7757 C.3     1  UNL1        0.0528
     20 C           3.2163    1.0436   32.1284 C.3     1  UNL1        0.0779
     21 C           3.2023   -0.2265   31.3305 C.2     1  UNL1        0.1807
     22 O           1.9696   -0.6232   30.5736 O.2     1  UNL1       -0.2908
     23 C           8.3391   -4.2708   24.9896 C.3     1  UNL1        0.0751
     24 N           7.0565   -3.6160   24.5697 N.3     1  UNL1       -0.2726
     25 C           6.5048   -2.4692   25.3638 C.3     1  UNL1        0.0721
     26 C           5.2222   -1.8145   24.9439 C.3     1  UNL1        0.0174
     27 C           4.4914   -2.3065   23.7299 C.3     1  UNL1        0.0031
     28 C           5.0431   -3.4532   22.9358 C.3     1  UNL1        0.0204
     29 C           6.3257   -4.1080   23.3557 C.3     1  UNL1        0.0724
     30 C           4.3122   -3.9453   21.7218 C.3     1  UNL1        0.0277
     31 C           4.3315   -3.1393   20.4569 C.ar    1  UNL1       -0.0220
     32 C           3.3470   -2.0242   20.2630 C.ar    1  UNL1       -0.0020
     33 C           3.3662   -1.2182   18.9981 C.ar    1  UNL1        0.0293
     34 C           4.3700   -1.5273   17.9271 C.ar    1  UNL1        0.1401
     35 F           4.3892   -0.7213   16.6622 F       1  UNL1       -0.2042
     36 C           5.3544   -2.6423   18.1210 C.ar    1  UNL1        0.0293
     37 C           5.3352   -3.4483   19.3859 C.ar    1  UNL1       -0.0020
@<TRIPOS>BOND
     1    20    21    1
     2    21    22    2
     3    21    14    1
     4    14    15   ar
     5    15    16   ar
     6    16     8    1
     7     8     9   am
     8     9    10    2
     9     9    11   am
    10     1    11    1
    11     1     2    1
    12     2     3    1
    13     3     4    1
    14     4     5    1
    15     5     6    1
    16     6    23    1
    17    23    24    1
    18    24    25    1
    19    25    26    1
    20    26    27    1
    21    27    28    1
    22    28    30    1
    23    30    31    1
    24    31    32   ar
    25    32    33   ar
    26    33    34   ar
    27    34    35    1
    28    34    36   ar
    29    36    37   ar
    30    28    29    1
    31    16    17   ar
    32    17    18   ar
    33    18    19    1
    34    18    14   ar
    35     6     1    1
    36    29    24    1
    37    37    31   ar
    38     8    12    1
    39    11    13    1
    40     4     7    1
@<TRIPOS>MOLECULE
*****
 37 40 0 0 0
SMALL
GASTEIGER

@<TRIPOS>ATOM
      1 C          -2.6836  -18.6234   20.9334 C.3     1  UNL1        0.0771
      2 C          -1.6786  -18.3165   19.8630 C.3     1  UNL1        0.0368
      3 C          -0.7511  -17.1479   20.0180 C.3     1  UNL1        0.0703
      4 N          -0.8286  -16.2862   21.2433 N.3     1  UNL1       -0.2973
      5 C          -1.8337  -16.5930   22.3136 C.3     1  UNL1        0.0716
      6 C          -2.7612  -17.7616   22.1587 C.3     1  UNL1        0.0498
      7 H          -1.0194  -15.3365   20.9237 H       1  UNL1        0.1232
      8 N          -5.9465  -20.7435   20.1530 N.am    1  UNL1       -0.2485
      9 C          -5.0189  -19.5750   20.3079 C.2     1  UNL1        0.3058
     10 O          -5.4990  -18.1893   19.9924 O.2     1  UNL1       -0.2524
     11 N          -3.6112  -19.7920   20.7784 N.am    1  UNL1       -0.2901
     12 H          -5.6314  -21.6530   20.3601 H       1  UNL1        0.1583
     13 H          -3.2961  -20.7014   20.9856 H       1  UNL1        0.1509
     14 C          -9.6699  -19.8067   19.5840 C.ar    1  UNL1        0.0803
     15 S          -8.4236  -19.7746   20.4180 S.2     1  UNL1       -0.0488
     16 C          -7.3541  -20.5265   19.6825 C.ar    1  UNL1        0.1664
     17 N          -7.9396  -21.0233   18.3939 N.ar    1  UNL1       -0.2282
     18 C          -9.3708  -20.5784   18.3330 C.ar    1  UNL1        0.0701
     19 C         -10.3337  -20.8565   17.2170 C.3     1  UNL1        0.0528
     20 C         -11.8413  -19.7837   21.0102 C.3     1  UNL1        0.0779
     21 C         -10.9846  -19.1775   19.9386 C.2     1  UNL1        0.1807
     22 O         -11.4424  -17.9420   19.2218 O.2     1  UNL1       -0.2908
     23 C          -3.7663  -18.0685   23.2290 C.3     1  UNL1        0.0751
     24 N          -4.8978  -17.1190   23.4898 N.3     1  UNL1       -0.2726
     25 C          -4.7633  -16.0644   24.5481 C.3     1  UNL1        0.0721
     26 C          -5.8949  -15.1149   24.8088 C.3     1  UNL1        0.0174
     27 C          -7.1610  -15.2199   24.0112 C.3     1  UNL1        0.0031
     28 C          -7.2954  -16.2744   22.9530 C.3     1  UNL1        0.0204
     29 C          -6.1639  -17.2239   22.6923 C.3     1  UNL1        0.0724
     30 C          -8.5615  -16.3794   22.1554 C.3     1  UNL1        0.0277
     31 C          -9.8049  -16.9275   22.7908 C.ar    1  UNL1       -0.0220
     32 C         -11.1479  -16.3844   22.4017 C.ar    1  UNL1       -0.0020
     33 C         -12.3913  -16.9324   23.0371 C.ar    1  UNL1        0.0293
     34 C         -12.2916  -18.0236   24.0616 C.ar    1  UNL1        0.1401
     35 F         -13.5350  -18.5716   24.6970 F       1  UNL1       -0.2042
     36 C         -10.9486  -18.5666   24.4506 C.ar    1  UNL1        0.0293
     37 C          -9.7053  -18.0186   23.8153 C.ar    1  UNL1       -0.0020
@<TRIPOS>BOND
     1    20    21    1
     2    21    22    2
     3    21    14    1
     4    14    15   ar
     5    15    16   ar
     6    16     8    1
     7     8     9   am
     8     9    10    2
     9     9    11   am
    10     1    11    1
    11     1     2    1
    12     2     3    1
    13     3     4    1
    14     4     5    1
    15     5     6    1
    16     6    23    1
    17    23    24    1
    18    24    25    1
    19    25    26    1
    20    26    27    1
    21    27    28    1
    22    28    30    1
    23    30    31    1
    24    31    32   ar
    25    32    33   ar
    26    33    34   ar
    27    34    35    1
    28    34    36   ar
    29    36    37   ar
    30    28    29    1
    31    16    17   ar
    32    17    18   ar
    33    18    19    1
    34    18    14   ar
    35     6     1    1
    36    29    24    1
    37    37    31   ar
    38     8    12    1
    39    11    13    1
    40     4     7    1
@<TRIPOS>MOLECULE
*****
 37 40 0 0 0
SMALL
GASTEIGER

@<TRIPOS>ATOM
      1 C          -4.9829  -16.1073   24.4526 C.3     1  UNL1        0.0771
      2 C          -5.3010  -16.0607   25.9177 C.3     1  UNL1        0.0368
      3 C          -4.5073  -16.8888   26.8842 C.3     1  UNL1        0.0703
      4 N          -3.3955  -17.7636   26.3855 N.3     1  UNL1       -0.2973
      5 C          -3.0773  -17.8102   24.9204 C.3     1  UNL1        0.0716
      6 C          -3.8711  -16.9821   23.9540 C.3     1  UNL1        0.0498
      7 H          -3.6217  -18.7172   26.6682 H       1  UNL1        0.1232
      8 N          -7.9307  -14.9071   22.0819 N.am    1  UNL1       -0.2485
      9 C          -7.1370  -15.7352   23.0484 C.2     1  UNL1        0.3058
     10 O          -7.7036  -17.0194   23.5775 O.2     1  UNL1       -0.2524
     11 N          -5.7766  -15.2792   23.4860 N.am    1  UNL1       -0.2901
     12 H          -7.5588  -14.0643   21.7347 H       1  UNL1        0.1583
     13 H          -5.4047  -14.4363   23.1388 H       1  UNL1        0.1509
     14 C         -11.4870  -16.3968   21.6358 C.ar    1  UNL1        0.0803
     15 S         -10.2566  -16.1682   22.4627 S.2     1  UNL1       -0.0488
     16 C          -9.2911  -15.3632   21.6444 C.ar    1  UNL1        0.1664
     17 N          -9.9247  -15.0943   20.3116 N.ar    1  UNL1       -0.2282
     18 C         -11.2819  -15.7332   20.3063 C.ar    1  UNL1        0.0701
     19 C         -12.2619  -15.7120   19.1709 C.3     1  UNL1        0.0528
     20 C         -13.0285  -17.3013   23.5214 C.3     1  UNL1        0.0779
     21 C         -12.7081  -17.1559   22.0632 C.2     1  UNL1        0.1807
     22 O         -13.6087  -17.7695   21.0326 O.2     1  UNL1       -0.2908
     23 C          -3.5530  -17.0287   22.4888 C.3     1  UNL1        0.0751
     24 N          -3.9672  -18.2144   21.6687 N.3     1  UNL1       -0.2726
     25 C          -2.9509  -19.2439   21.2720 C.3     1  UNL1        0.0721
     26 C          -3.3652  -20.4296   20.4520 C.3     1  UNL1        0.0174
     27 C          -4.7957  -20.5859   20.0286 C.3     1  UNL1        0.0031
     28 C          -5.8120  -19.5564   20.4253 C.3     1  UNL1        0.0204
     29 C          -5.3977  -18.3707   21.2454 C.3     1  UNL1        0.0724
     30 C          -7.2425  -19.7126   20.0020 C.3     1  UNL1        0.0277
     31 C          -8.3218  -19.8347   21.0366 C.ar    1  UNL1       -0.0220
     32 C          -9.7626  -19.7241   20.6341 C.ar    1  UNL1       -0.0020
     33 C         -10.8418  -19.8461   21.6687 C.ar    1  UNL1        0.0293
     34 C         -10.4802  -20.0788   23.1058 C.ar    1  UNL1        0.1401
     35 F         -11.5594  -20.2008   24.1404 F       1  UNL1       -0.2042
     36 C          -9.0395  -20.1893   23.5082 C.ar    1  UNL1        0.0293
     37 C          -7.9602  -20.0673   22.4736 C.ar    1  UNL1       -0.0020
@<TRIPOS>BOND
     1    20    21    1
     2    21    22    2
     3    21    14    1
     4    14    15   ar
     5    15    16   ar
     6    16     8    1
     7     8     9   am
     8     9    10    2
     9     9    11   am
    10     1    11    1
    11     1     2    1
    12     2     3    1
    13     3     4    1
    14     4     5    1
    15     5     6    1
    16     6    23    1
    17    23    24    1
    18    24    25    1
    19    25    26    1
    20    26    27    1
    21    27    28    1
    22    28    30    1
    23    30    31    1
    24    31    32   ar
    25    32    33   ar
    26    33    34   ar
    27    34    35    1
    28    34    36   ar
    29    36    37   ar
    30    28    29    1
    31    16    17   ar
    32    17    18   ar
    33    18    19    1
    34    18    14   ar
    35     6     1    1
    36    29    24    1
    37    37    31   ar
    38     8    12    1
    39    11    13    1
    40     4     7    1
@<TRIPOS>MOLECULE
*****
 37 40 0 0 0
SMALL
GASTEIGER

@<TRIPOS>ATOM
      1 C           3.4539    0.2984   19.0301 C.3     1  UNL1        0.0771
      2 C           4.2715    0.5933   17.8076 C.3     1  UNL1        0.0368
      3 C           4.9263   -0.5269   17.0552 C.3     1  UNL1        0.0703
      4 N           4.7635   -1.9420   17.5252 N.3     1  UNL1       -0.2973
      5 C           3.9459   -2.2369   18.7477 C.3     1  UNL1        0.0716
      6 C           3.2911   -1.1167   19.5001 C.3     1  UNL1        0.0498
      7 H           5.7008   -2.3027   17.7038 H       1  UNL1        0.1232
      8 N           0.6949    2.8502   20.3054 N.am    1  UNL1       -0.2485
      9 C           1.3497    1.7300   19.5530 C.2     1  UNL1        0.3058
     10 O           0.5553    0.9210   18.5708 O.2     1  UNL1       -0.2524
     11 N           2.7990    1.4187   19.7826 N.am    1  UNL1       -0.2901
     12 H           1.2162    3.3811   20.9500 H       1  UNL1        0.1583
     13 H           3.3204    1.9496   20.4272 H       1  UNL1        0.1509
     14 C          -2.8061    4.0077   19.0934 C.ar    1  UNL1        0.0803
     15 S          -1.3174    3.9386   18.9230 S.2     1  UNL1       -0.0488
     16 C          -0.7544    3.1614   20.0758 C.ar    1  UNL1        0.1664
     17 N          -1.8952    2.7502   20.9587 N.ar    1  UNL1       -0.2282
     18 C          -3.1632    3.2732   20.3515 C.ar    1  UNL1        0.0701
     19 C          -4.5456    3.0933   20.9053 C.3     1  UNL1        0.0528
     20 C          -4.5169    3.8936   17.1415 C.3     1  UNL1        0.0779
     21 C          -3.7686    4.6912   18.1680 C.2     1  UNL1        0.1807
     22 O          -3.9829    6.1723   18.2693 O.2     1  UNL1       -0.2908
     23 C           2.4734   -1.4115   20.7226 C.3     1  UNL1        0.0751
     24 N           3.0713   -1.2307   22.0864 N.3     1  UNL1       -0.2726
     25 C           4.0878   -2.2093   22.5954 C.3     1  UNL1        0.0721
     26 C           4.6857   -2.0285   23.9592 C.3     1  UNL1        0.0174
     27 C           4.2671   -0.8690   24.8139 C.3     1  UNL1        0.0031
     28 C           3.2507    0.1096   24.3048 C.3     1  UNL1        0.0204
     29 C           2.6528   -0.0713   22.9411 C.3     1  UNL1        0.0724
     30 C           2.8321    1.2691   25.1595 C.3     1  UNL1        0.0277
     31 C           1.7536    1.0926   26.1870 C.ar    1  UNL1       -0.0220
     32 C           2.0812    0.4941   27.5229 C.ar    1  UNL1       -0.0020
     33 C           1.0028    0.3176   28.5504 C.ar    1  UNL1        0.0293
     34 C          -0.4033    0.7396   28.2420 C.ar    1  UNL1        0.1401
     35 F          -1.4817    0.5631   29.2695 F       1  UNL1       -0.2042
     36 C          -0.7308    1.3380   26.9062 C.ar    1  UNL1        0.0293
     37 C           0.3477    1.5145   25.8787 C.ar    1  UNL1       -0.0020
@<TRIPOS>BOND
     1    20    21    1
     2    21    22    2
     3    21    14    1
     4    14    15   ar
     5    15    16   ar
     6    16     8    1
     7     8     9   am
     8     9    10    2
     9     9    11   am
    10     1    11    1
    11     1     2    1
    12     2     3    1
    13     3     4    1
    14     4     5    1
    15     5     6    1
    16     6    23    1
    17    23    24    1
    18    24    25    1
    19    25    26    1
    20    26    27    1
    21    27    28    1
    22    28    30    1
    23    30    31    1
    24    31    32   ar
    25    32    33   ar
    26    33    34   ar
    27    34    35    1
    28    34    36   ar
    29    36    37   ar
    30    28    29    1
    31    16    17   ar
    32    17    18   ar
    33    18    19    1
    34    18    14   ar
    35     6     1    1
    36    29    24    1
    37    37    31   ar
    38     8    12    1
    39    11    13    1
    40     4     7    1
@<TRIPOS>MOLECULE
*****
 37 40 0 0 0
SMALL
GASTEIGER

@<TRIPOS>ATOM
      1 C           7.7747   -3.4781   29.7866 C.3     1  UNL1        0.0771
      2 C           8.7465   -3.0093   30.8286 C.3     1  UNL1        0.0368
      3 C           9.4652   -4.0076   31.6870 C.3     1  UNL1        0.0703
      4 N           9.2121   -5.4746   31.5034 N.3     1  UNL1       -0.2973
      5 C           8.2403   -5.9434   30.4614 C.3     1  UNL1        0.0716
      6 C           7.5216   -4.9452   29.6030 C.3     1  UNL1        0.0498
      7 H           8.8777   -5.8301   32.3991 H       1  UNL1        0.1232
      8 N           5.0379   -0.8921   28.5326 N.am    1  UNL1       -0.2485
      9 C           5.7567   -1.8903   29.3910 C.2     1  UNL1        0.3058
     10 O           5.1762   -2.2990   30.7124 O.2     1  UNL1       -0.2524
     11 N           7.0560   -2.4798   28.9281 N.am    1  UNL1       -0.2901
     12 H           5.4190   -0.6238   27.6654 H       1  UNL1        0.1583
     13 H           7.4370   -2.2116   28.0609 H       1  UNL1        0.1509
     14 C           1.3822    0.2590   29.1462 C.ar    1  UNL1        0.0803
     15 S           2.3973   -0.5154   28.3588 S.2     1  UNL1       -0.0488
     16 C           3.7387   -0.3025   28.9955 C.ar    1  UNL1        0.1664
     17 N           3.5526    0.6035   30.1764 N.ar    1  UNL1       -0.2282
     18 C           2.0962    0.9505   30.2696 C.ar    1  UNL1        0.0701
     19 C           1.4648    1.8339   31.3044 C.3     1  UNL1        0.0528
     20 C          -0.6155    1.3400   27.8852 C.3     1  UNL1        0.0779
     21 C          -0.0886    0.3294   28.8604 C.2     1  UNL1        0.1807
     22 O          -1.0324   -0.6106   29.5498 O.2     1  UNL1       -0.2908
     23 C           6.5498   -5.4139   28.5609 C.3     1  UNL1        0.0751
     24 N           7.0416   -5.8064   27.1992 N.3     1  UNL1       -0.2726
     25 C           7.3784   -7.2388   26.9076 C.3     1  UNL1        0.0721
     26 C           7.8702   -7.6313   25.5459 C.3     1  UNL1        0.0174
     27 C           8.0252   -6.5914   24.4760 C.3     1  UNL1        0.0031
     28 C           7.6884   -5.1592   24.7677 C.3     1  UNL1        0.0204
     29 C           7.1966   -4.7667   26.1293 C.3     1  UNL1        0.0724
     30 C           7.8434   -4.1193   23.6977 C.3     1  UNL1        0.0277
     31 C           6.7748   -3.9467   22.6593 C.ar    1  UNL1       -0.0220
     32 C           7.1310   -3.9867   21.2027 C.ar    1  UNL1       -0.0020
     33 C           6.0624   -3.8141   20.1642 C.ar    1  UNL1        0.0293
     34 C           4.6376   -3.6014   20.5824 C.ar    1  UNL1        0.1401
     35 F           3.5690   -3.4288   19.5440 F       1  UNL1       -0.2042
     36 C           4.2814   -3.5614   22.0390 C.ar    1  UNL1        0.0293
     37 C           5.3500   -3.7341   23.0774 C.ar    1  UNL1       -0.0020
@<TRIPOS>BOND
     1    20    21    1
     2    21    22    2
     3    21    14    1
     4    14    15   ar
     5    15    16   ar
     6    16     8    1
     7     8     9   am
     8     9    10    2
     9     9    11   am
    10     1    11    1
    11     1     2    1
    12     2     3    1
    13     3     4    1
    14     4     5    1
    15     5     6    1
    16     6    23    1
    17    23    24    1
    18    24    25    1
    19    25    26    1
    20    26    27    1
    21    27    28    1
    22    28    30    1
    23    30    31    1
    24    31    32   ar
    25    32    33   ar
    26    33    34   ar
    27    34    35    1
    28    34    36   ar
    29    36    37   ar
    30    28    29    1
    31    16    17   ar
    32    17    18   ar
    33    18    19    1
    34    18    14   ar
    35     6     1    1
    36    29    24    1
    37    37    31   ar
    38     8    12    1
    39    11    13    1
    40     4     7    1
