@<TRIPOS>MOLECULE
*****
 22 23 0 0 0
SMALL
GASTEIGER

@<TRIPOS>ATOM
      1 C          -7.5637  -16.2711   23.9329 C.3     1  UNL1        0.1529
      2 C          -8.2495  -17.4055   23.2310 C.2     1  UNL1        0.1458
      3 N          -7.4465  -18.3866   22.4294 N.2     1  UNL1       -0.0768
      4 C          -5.9577  -18.2333   22.3296 C.2     1  UNL1        0.4093
      5 N          -5.1548  -19.2144   21.5279 N.pl3   1  UNL1       -0.2485
      6 N          -5.2719  -17.0989   23.0314 N.am    1  UNL1       -0.0026
      7 C          -6.0749  -16.1177   23.8331 C.2     1  UNL1        0.3250
      8 O          -5.3890  -14.9833   24.5350 O.2     1  UNL1       -0.2530
      9 H          -5.6049  -19.9590   21.0672 H       1  UNL1        0.2413
     10 H          -4.1776  -19.1138   21.4624 H       1  UNL1        0.2413
     11 C          -9.7383  -17.5589   23.3308 C.ar    1  UNL1        0.0306
     12 C         -10.3288  -18.5172   24.3222 C.ar    1  UNL1        0.0026
     13 C         -11.8176  -18.6706   24.4220 C.ar    1  UNL1        0.0001
     14 C         -12.7159  -17.8656   23.5303 C.ar    1  UNL1        0.0000
     15 C         -12.1254  -16.9072   22.5389 C.ar    1  UNL1        0.0001
     16 C         -10.6366  -16.7539   22.4392 C.ar    1  UNL1        0.0026
     17 C          -8.3666  -15.2900   24.7346 C.3     1  UNL1        0.0197
     18 C          -8.7398  -15.6071   26.1523 C.3     1  UNL1        0.0178
     19 N          -6.5565  -14.7438   27.2651 N.3     1  UNL1       -0.3211
     20 C          -7.6714  -15.7450   27.1962 C.3     1  UNL1        0.0652
     21 H          -5.9256  -14.9895   28.0280 H       1  UNL1        0.1189
     22 H          -6.9437  -13.8146   27.4300 H       1  UNL1        0.1189
@<TRIPOS>BOND
     1    19    20    1
     2    20    18    1
     3    18    17    1
     4    17     1    1
     5     1     2    1
     6     2    11    1
     7    11    12   ar
     8    12    13   ar
     9    13    14   ar
    10    14    15   ar
    11    15    16   ar
    12     2     3    2
    13     3     4    1
    14     4     5    1
    15     4     6    2
    16     6     7    1
    17     7     8    2
    18     7     1    1
    19    16    11   ar
    20    19    21    1
    21    19    22    1
    22     5     9    1
    23     5    10    1
@<TRIPOS>MOLECULE
*****
 22 23 0 0 0
SMALL
GASTEIGER

@<TRIPOS>ATOM
      1 C          -9.5295  -18.2405   21.3926 C.3     1  UNL1        0.1529
      2 C          -9.7380  -16.8310   21.8616 C.2     1  UNL1        0.1458
      3 N         -10.7516  -15.9573   21.1839 N.2     1  UNL1       -0.0768
      4 C         -11.5567  -16.4930   20.0373 C.2     1  UNL1        0.4093
      5 N         -12.5703  -15.6193   19.3597 N.pl3   1  UNL1       -0.2485
      6 N         -11.3482  -17.9024   19.5683 N.am    1  UNL1       -0.0026
      7 C         -10.3346  -18.7762   20.2460 C.2     1  UNL1        0.3250
      8 O         -10.1261  -20.1857   19.7769 O.2     1  UNL1       -0.2530
      9 H         -12.7072  -14.6942   19.6675 H       1  UNL1        0.2413
     10 H         -13.0987  -15.9709   18.6071 H       1  UNL1        0.2413
     11 C          -8.9329  -16.2953   23.0083 C.ar    1  UNL1        0.0306
     12 C          -9.4692  -16.3817   24.4064 C.ar    1  UNL1        0.0026
     13 C          -8.6641  -15.8460   25.5531 C.ar    1  UNL1        0.0001
     14 C          -7.3226  -15.2237   25.3015 C.ar    1  UNL1        0.0000
     15 C          -6.7863  -15.1373   23.9033 C.ar    1  UNL1        0.0001
     16 C          -7.5914  -15.6730   22.7567 C.ar    1  UNL1        0.0026
     17 C          -8.5159  -19.1142   22.0702 C.3     1  UNL1        0.0197
     18 C          -8.9546  -20.1105   23.1021 C.3     1  UNL1        0.0178
     19 N         -10.2598  -20.0995   25.3486 N.3     1  UNL1       -0.3211
     20 C         -10.2281  -19.8902   23.8635 C.3     1  UNL1        0.0652
     21 H         -11.1979  -19.9064   25.6992 H       1  UNL1        0.1189
     22 H          -9.5935  -19.4692   25.7950 H       1  UNL1        0.1189
@<TRIPOS>BOND
     1    19    20    1
     2    20    18    1
     3    18    17    1
     4    17     1    1
     5     1     2    1
     6     2    11    1
     7    11    12   ar
     8    12    13   ar
     9    13    14   ar
    10    14    15   ar
    11    15    16   ar
    12     2     3    2
    13     3     4    1
    14     4     5    1
    15     4     6    2
    16     6     7    1
    17     7     8    2
    18     7     1    1
    19    16    11   ar
    20    19    21    1
    21    19    22    1
    22     5     9    1
    23     5    10    1
@<TRIPOS>MOLECULE
*****
 22 23 0 0 0
SMALL
GASTEIGER

@<TRIPOS>ATOM
      1 C          -7.6590  -16.9775   23.3030 C.3     1  UNL1        0.1529
      2 C          -8.8093  -16.5959   24.1868 C.2     1  UNL1        0.1458
      3 N          -8.5585  -15.8509   25.4644 N.2     1  UNL1       -0.0768
      4 C          -7.1575  -15.4875   25.8581 C.2     1  UNL1        0.4093
      5 N          -6.9068  -14.7425   27.1356 N.pl3   1  UNL1       -0.2485
      6 N          -6.0073  -15.8691   24.9742 N.am    1  UNL1       -0.0026
      7 C          -6.2580  -16.6141   23.6967 C.2     1  UNL1        0.3250
      8 O          -5.1077  -16.9957   22.8128 O.2     1  UNL1       -0.2530
      9 H          -7.6617  -14.4921   27.7157 H       1  UNL1        0.2413
     10 H          -5.9872  -14.5040   27.3940 H       1  UNL1        0.2413
     11 C         -10.2104  -16.9593   23.7932 C.ar    1  UNL1        0.0306
     12 C         -10.9866  -16.0651   22.8724 C.ar    1  UNL1        0.0026
     13 C         -12.3877  -16.4285   22.4787 C.ar    1  UNL1        0.0001
     14 C         -13.0126  -17.6861   23.0059 C.ar    1  UNL1        0.0000
     15 C         -12.2363  -18.5804   23.9267 C.ar    1  UNL1        0.0001
     16 C         -10.8353  -18.2169   24.3203 C.ar    1  UNL1        0.0026
     17 C          -7.9098  -17.7225   22.0255 C.3     1  UNL1        0.0197
     18 C          -7.4796  -19.1535   21.8949 C.3     1  UNL1        0.0178
     19 N          -5.9131  -18.5058   19.9261 N.3     1  UNL1       -0.3211
     20 C          -6.5152  -19.5515   20.8171 C.3     1  UNL1        0.0652
     21 H          -5.2855  -18.9504   19.2560 H       1  UNL1        0.1189
     22 H          -5.3889  -17.8380   20.4915 H       1  UNL1        0.1189
@<TRIPOS>BOND
     1    19    20    1
     2    20    18    1
     3    18    17    1
     4    17     1    1
     5     1     2    1
     6     2    11    1
     7    11    12   ar
     8    12    13   ar
     9    13    14   ar
    10    14    15   ar
    11    15    16   ar
    12     2     3    2
    13     3     4    1
    14     4     5    1
    15     4     6    2
    16     6     7    1
    17     7     8    2
    18     7     1    1
    19    16    11   ar
    20    19    21    1
    21    19    22    1
    22     5     9    1
    23     5    10    1
@<TRIPOS>MOLECULE
*****
 22 23 0 0 0
SMALL
GASTEIGER

@<TRIPOS>ATOM
      1 C          -9.8047  -18.2783   21.6497 C.3     1  UNL1        0.1529
      2 C          -9.7396  -16.7986   21.8869 C.2     1  UNL1        0.1458
      3 N         -10.5336  -15.8648   21.0223 N.2     1  UNL1       -0.0768
      4 C         -11.3927  -16.4106   19.9205 C.2     1  UNL1        0.4093
      5 N         -12.1867  -15.4768   19.0559 N.pl3   1  UNL1       -0.2485
      6 N         -11.4578  -17.8903   19.6834 N.am    1  UNL1       -0.0026
      7 C         -10.6638  -18.8241   20.5480 C.2     1  UNL1        0.3250
      8 O         -10.7290  -20.3039   20.3107 O.2     1  UNL1       -0.2530
      9 H         -12.1439  -14.5056   19.2116 H       1  UNL1        0.2413
     10 H         -12.7505  -15.8350   18.3328 H       1  UNL1        0.2413
     11 C          -8.8805  -16.2527   22.9887 C.ar    1  UNL1        0.0306
     12 C          -7.4716  -15.8264   22.7000 C.ar    1  UNL1        0.0026
     13 C          -6.6125  -15.2804   23.8019 C.ar    1  UNL1        0.0001
     14 C          -7.1623  -15.1609   25.1924 C.ar    1  UNL1        0.0000
     15 C          -8.5712  -15.5873   25.4810 C.ar    1  UNL1        0.0001
     16 C          -9.4302  -16.1332   24.3792 C.ar    1  UNL1        0.0026
     17 C          -9.0107  -19.2121   22.5143 C.3     1  UNL1        0.0197
     18 C          -7.5675  -19.4775   22.2035 C.3     1  UNL1        0.0178
     19 N          -6.5329  -18.5213   20.0206 N.3     1  UNL1       -0.3211
     20 C          -7.1293  -19.6681   20.7817 C.3     1  UNL1        0.0652
     21 H          -6.2940  -18.8268   19.0772 H       1  UNL1        0.1189
     22 H          -5.6907  -18.1984   20.4969 H       1  UNL1        0.1189
@<TRIPOS>BOND
     1    19    20    1
     2    20    18    1
     3    18    17    1
     4    17     1    1
     5     1     2    1
     6     2    11    1
     7    11    12   ar
     8    12    13   ar
     9    13    14   ar
    10    14    15   ar
    11    15    16   ar
    12     2     3    2
    13     3     4    1
    14     4     5    1
    15     4     6    2
    16     6     7    1
    17     7     8    2
    18     7     1    1
    19    16    11   ar
    20    19    21    1
    21    19    22    1
    22     5     9    1
    23     5    10    1
@<TRIPOS>MOLECULE
*****
 22 23 0 0 0
SMALL
GASTEIGER

@<TRIPOS>ATOM
      1 C          -6.1466  -18.5073   22.4358 C.3     1  UNL1        0.1529
      2 C          -7.5221  -17.9260   22.5772 C.2     1  UNL1        0.1458
      3 N          -7.7099  -16.5990   23.2509 N.2     1  UNL1       -0.0768
      4 C          -6.5222  -15.8534   23.7832 C.2     1  UNL1        0.4093
      5 N          -6.7100  -14.5265   24.4569 N.pl3   1  UNL1       -0.2485
      6 N          -5.1467  -16.4348   23.6418 N.am    1  UNL1       -0.0026
      7 C          -4.9589  -17.7617   22.9681 C.2     1  UNL1        0.3250
      8 O          -3.5833  -18.3430   22.8266 O.2     1  UNL1       -0.2530
      9 H          -7.6128  -14.1449   24.5498 H       1  UNL1        0.2413
     10 H          -5.9304  -14.0371   24.8063 H       1  UNL1        0.2413
     11 C          -8.7099  -18.6716   22.0449 C.ar    1  UNL1        0.0306
     12 C          -9.0149  -18.6463   20.5765 C.ar    1  UNL1        0.0026
     13 C         -10.2027  -19.3919   20.0442 C.ar    1  UNL1        0.0001
     14 C         -11.0854  -20.1629   20.9804 C.ar    1  UNL1        0.0000
     15 C         -10.7803  -20.1882   22.4488 C.ar    1  UNL1        0.0001
     16 C          -9.5926  -19.4426   22.9811 C.ar    1  UNL1        0.0026
     17 C          -5.9588  -19.8343   21.7620 C.3     1  UNL1        0.0197
     18 C          -5.5353  -19.8922   20.3243 C.3     1  UNL1        0.0178
     19 N          -3.0427  -20.3223   20.9178 N.3     1  UNL1       -0.3211
     20 C          -4.1906  -20.4483   19.9603 C.3     1  UNL1        0.0652
     21 H          -2.2119  -20.7521   20.5110 H       1  UNL1        0.1189
     22 H          -3.2758  -20.7934   21.7919 H       1  UNL1        0.1189
@<TRIPOS>BOND
     1    19    20    1
     2    20    18    1
     3    18    17    1
     4    17     1    1
     5     1     2    1
     6     2    11    1
     7    11    12   ar
     8    12    13   ar
     9    13    14   ar
    10    14    15   ar
    11    15    16   ar
    12     2     3    2
    13     3     4    1
    14     4     5    1
    15     4     6    2
    16     6     7    1
    17     7     8    2
    18     7     1    1
    19    16    11   ar
    20    19    21    1
    21    19    22    1
    22     5     9    1
    23     5    10    1
@<TRIPOS>MOLECULE
*****
 22 23 0 0 0
SMALL
GASTEIGER

@<TRIPOS>ATOM
      1 C          -8.1657  -18.0370   22.6877 C.3     1  UNL1        0.1529
      2 C          -9.0696  -17.1295   23.4682 C.2     1  UNL1        0.1458
      3 N          -8.5005  -15.9445   24.1907 N.2     1  UNL1       -0.0768
      4 C          -7.0276  -15.6670   24.1327 C.2     1  UNL1        0.4093
      5 N          -6.4586  -14.4820   24.8552 N.pl3   1  UNL1       -0.2485
      6 N          -6.1237  -16.5745   23.3521 N.am    1  UNL1       -0.0026
      7 C          -6.6927  -17.7595   22.6296 C.2     1  UNL1        0.3250
      8 O          -5.7887  -18.6670   21.8490 O.2     1  UNL1       -0.2530
      9 H          -7.0518  -13.8864   25.3675 H       1  UNL1        0.2413
     10 H          -5.4918  -14.2999   24.8170 H       1  UNL1        0.2413
     11 C         -10.5426  -17.4069   23.5263 C.ar    1  UNL1        0.0306
     12 C         -11.0739  -18.4428   24.4721 C.ar    1  UNL1        0.0026
     13 C         -12.5469  -18.7203   24.5302 C.ar    1  UNL1        0.0001
     14 C         -13.4885  -17.9618   23.6425 C.ar    1  UNL1        0.0000
     15 C         -12.9571  -16.9258   22.6967 C.ar    1  UNL1        0.0001
     16 C         -11.4842  -16.6484   22.6386 C.ar    1  UNL1        0.0026
     17 C          -8.7347  -19.2220   21.9652 C.3     1  UNL1        0.0197
     18 C          -9.1784  -19.0885   20.5385 C.3     1  UNL1        0.0178
     19 N          -6.8959  -19.0306   19.2987 N.3     1  UNL1       -0.3211
     20 C          -8.2903  -19.5681   19.4289 C.3     1  UNL1        0.0652
     21 H          -6.4385  -19.4628   18.4959 H       1  UNL1        0.1189
     22 H          -6.3689  -19.2437   20.1456 H       1  UNL1        0.1189
@<TRIPOS>BOND
     1    19    20    1
     2    20    18    1
     3    18    17    1
     4    17     1    1
     5     1     2    1
     6     2    11    1
     7    11    12   ar
     8    12    13   ar
     9    13    14   ar
    10    14    15   ar
    11    15    16   ar
    12     2     3    2
    13     3     4    1
    14     4     5    1
    15     4     6    2
    16     6     7    1
    17     7     8    2
    18     7     1    1
    19    16    11   ar
    20    19    21    1
    21    19    22    1
    22     5     9    1
    23     5    10    1
@<TRIPOS>MOLECULE
*****
 22 23 0 0 0
SMALL
GASTEIGER

@<TRIPOS>ATOM
      1 C         -11.0473  -18.4517   22.1008 C.3     1  UNL1        0.1529
      2 C         -10.0505  -18.0446   21.0565 C.2     1  UNL1        0.1458
      3 N         -10.4349  -17.0523   19.9993 N.2     1  UNL1       -0.0768
      4 C         -11.8159  -16.4672   19.9864 C.2     1  UNL1        0.4093
      5 N         -12.2003  -15.4749   18.9292 N.pl3   1  UNL1       -0.2485
      6 N         -12.8127  -16.8743   21.0308 N.am    1  UNL1       -0.0026
      7 C         -12.4283  -17.8666   22.0880 C.2     1  UNL1        0.3250
      8 O         -13.4252  -18.2737   23.1324 O.2     1  UNL1       -0.2530
      9 H         -11.5461  -15.2077   18.2438 H       1  UNL1        0.2413
     10 H         -13.1068  -15.0908   18.9208 H       1  UNL1        0.2413
     11 C          -8.6694  -18.6297   21.0693 C.ar    1  UNL1        0.0306
     12 C          -7.6715  -18.1747   22.0926 C.ar    1  UNL1        0.0026
     13 C          -6.2904  -18.7598   22.1054 C.ar    1  UNL1        0.0001
     14 C          -5.9071  -19.8000   21.0949 C.ar    1  UNL1        0.0000
     15 C          -6.9051  -20.2551   20.0715 C.ar    1  UNL1        0.0001
     16 C          -8.2862  -19.6699   20.0588 C.ar    1  UNL1        0.0026
     17 C         -10.6629  -19.4440   23.1580 C.3     1  UNL1        0.0197
     18 C         -10.6745  -19.0425   24.6032 C.3     1  UNL1        0.0178
     19 N          -9.3446  -18.0013   26.5774 N.3     1  UNL1       -0.3211
     20 C          -9.6717  -18.0510   25.1142 C.3     1  UNL1        0.0652
     21 H          -8.6491  -17.2744   26.7458 H       1  UNL1        0.1189
     22 H          -8.9721  -18.9035   26.8734 H       1  UNL1        0.1189
@<TRIPOS>BOND
     1    19    20    1
     2    20    18    1
     3    18    17    1
     4    17     1    1
     5     1     2    1
     6     2    11    1
     7    11    12   ar
     8    12    13   ar
     9    13    14   ar
    10    14    15   ar
    11    15    16   ar
    12     2     3    2
    13     3     4    1
    14     4     5    1
    15     4     6    2
    16     6     7    1
    17     7     8    2
    18     7     1    1
    19    16    11   ar
    20    19    21    1
    21    19    22    1
    22     5     9    1
    23     5    10    1
@<TRIPOS>MOLECULE
*****
 22 23 0 0 0
SMALL
GASTEIGER

@<TRIPOS>ATOM
      1 C          -8.3611  -18.5254   21.5346 C.3     1  UNL1        0.1529
      2 C          -9.7499  -18.9847   21.2026 C.2     1  UNL1        0.1458
      3 N          -9.9977  -19.7861   19.9591 N.2     1  UNL1       -0.0768
      4 C          -8.8567  -20.1281   19.0474 C.2     1  UNL1        0.4093
      5 N          -9.1045  -20.9295   17.8039 N.pl3   1  UNL1       -0.2485
      6 N          -7.4679  -19.6688   19.3794 N.am    1  UNL1       -0.0026
      7 C          -7.2201  -18.8675   20.6229 C.2     1  UNL1        0.3250
      8 O          -5.8312  -18.4081   20.9549 O.2     1  UNL1       -0.2530
      9 H         -10.0160  -21.2309   17.5860 H       1  UNL1        0.2413
     10 H          -8.3556  -21.1539   17.2055 H       1  UNL1        0.2413
     11 C         -10.8910  -18.6427   22.1143 C.ar    1  UNL1        0.0306
     12 C         -11.9538  -17.6870   21.6594 C.ar    1  UNL1        0.0026
     13 C         -13.0949  -17.3450   22.5710 C.ar    1  UNL1        0.0001
     14 C         -13.1731  -17.9587   23.9375 C.ar    1  UNL1        0.0000
     15 C         -12.1101  -18.9144   24.3923 C.ar    1  UNL1        0.0001
     16 C         -10.9691  -19.2564   23.4807 C.ar    1  UNL1        0.0026
     17 C          -8.1133  -17.7241   22.7781 C.3     1  UNL1        0.0197
     18 C          -8.1406  -16.2254   22.7225 C.3     1  UNL1        0.0178
     19 N          -7.5722  -14.1758   24.2145 N.3     1  UNL1       -0.3211
     20 C          -7.1426  -15.4274   23.5080 C.3     1  UNL1        0.0652
     21 H          -6.7717  -13.7646   24.6947 H       1  UNL1        0.1189
     22 H          -8.2977  -14.4015   24.8950 H       1  UNL1        0.1189
@<TRIPOS>BOND
     1    19    20    1
     2    20    18    1
     3    18    17    1
     4    17     1    1
     5     1     2    1
     6     2    11    1
     7    11    12   ar
     8    12    13   ar
     9    13    14   ar
    10    14    15   ar
    11    15    16   ar
    12     2     3    2
    13     3     4    1
    14     4     5    1
    15     4     6    2
    16     6     7    1
    17     7     8    2
    18     7     1    1
    19    16    11   ar
    20    19    21    1
    21    19    22    1
    22     5     9    1
    23     5    10    1
@<TRIPOS>MOLECULE
*****
 22 23 0 0 0
SMALL
GASTEIGER

@<TRIPOS>ATOM
      1 C          -7.1871  -16.8263   23.1471 C.3     1  UNL1        0.1529
      2 C          -7.2322  -18.1840   22.5111 C.2     1  UNL1        0.1458
      3 N          -5.9594  -18.9363   22.2580 N.2     1  UNL1       -0.0768
      4 C          -4.6415  -18.3309   22.6409 C.2     1  UNL1        0.4093
      5 N          -3.3687  -19.0832   22.3878 N.pl3   1  UNL1       -0.2485
      6 N          -4.5964  -16.9731   23.2768 N.am    1  UNL1       -0.0026
      7 C          -5.8692  -16.2208   23.5299 C.2     1  UNL1        0.3250
      8 O          -5.8241  -14.8630   24.1659 O.2     1  UNL1       -0.2530
      9 H          -3.3983  -19.9743   21.9704 H       1  UNL1        0.2413
     10 H          -2.5038  -18.6858   22.6391 H       1  UNL1        0.2413
     11 C          -8.5501  -18.7895   22.1282 C.ar    1  UNL1        0.0306
     12 C          -9.0366  -18.6933   20.7126 C.ar    1  UNL1        0.0026
     13 C         -10.3546  -19.2989   20.3298 C.ar    1  UNL1        0.0001
     14 C         -11.1859  -20.0005   21.3625 C.ar    1  UNL1        0.0000
     15 C         -10.6992  -20.0967   22.7782 C.ar    1  UNL1        0.0001
     16 C          -9.3814  -19.4912   23.1610 C.ar    1  UNL1        0.0026
     17 C          -8.4599  -16.0740   23.4002 C.3     1  UNL1        0.0197
     18 C          -8.8995  -15.7957   24.8070 C.3     1  UNL1        0.0178
     19 N          -8.3070  -16.3979   27.2639 N.3     1  UNL1       -0.3211
     20 C          -8.6864  -16.8251   25.8769 C.3     1  UNL1        0.0652
     21 H          -8.2036  -17.2213   27.8570 H       1  UNL1        0.1189
     22 H          -9.0353  -15.7938   27.6448 H       1  UNL1        0.1189
@<TRIPOS>BOND
     1    19    20    1
     2    20    18    1
     3    18    17    1
     4    17     1    1
     5     1     2    1
     6     2    11    1
     7    11    12   ar
     8    12    13   ar
     9    13    14   ar
    10    14    15   ar
    11    15    16   ar
    12     2     3    2
    13     3     4    1
    14     4     5    1
    15     4     6    2
    16     6     7    1
    17     7     8    2
    18     7     1    1
    19    16    11   ar
    20    19    21    1
    21    19    22    1
    22     5     9    1
    23     5    10    1
