@<TRIPOS>MOLECULE
*****
 38 43 0 0 0
SMALL
GASTEIGER

@<TRIPOS>ATOM
      1 C          -7.5467  -19.8285   20.4756 C.3     1  UNL1        0.0745
      2 C          -8.6992  -19.3974   19.6179 C.3     1  UNL1        0.0356
      3 C          -9.1031  -20.2243   18.4334 C.3     1  UNL1        0.0594
      4 C          -9.1481  -21.3121   17.4016 C.3     1  UNL1        0.0174
      5 C          -8.0504  -22.2874   17.7082 C.3     1  UNL1        0.0174
      6 C          -7.3271  -21.8023   18.9295 C.3     1  UNL1        0.0594
      7 C          -6.7980  -21.0866   20.1489 C.3     1  UNL1        0.0356
      8 N          -7.9777  -20.5272   19.3777 N.3     1  UNL1       -0.2715
      9 O          -9.1246  -17.3839   21.2065 O.2     1  UNL1       -0.2701
     10 C          -7.9317  -17.7792   22.0256 C.2     1  UNL1        0.2459
     11 N          -7.1428  -19.0015   21.6602 N.am    1  UNL1       -0.3024
     12 H          -6.3599  -19.2610   22.1977 H       1  UNL1        0.1497
     13 C          -7.5279  -16.9523   23.2100 C.ar    1  UNL1        0.0577
     14 C          -6.3195  -16.0672   23.1299 C.ar    1  UNL1        0.0047
     15 C          -5.9157  -15.2402   24.3143 C.ar    1  UNL1        0.0001
     16 C          -6.7202  -15.2983   25.5790 C.ar    1  UNL1        0.0001
     17 C          -7.9286  -16.1834   25.6592 C.ar    1  UNL1        0.0047
     18 C          -8.3324  -17.0104   24.4746 C.ar    1  UNL1        0.0579
     19 C          -9.5408  -17.8955   24.5548 C.2     1  UNL1        0.2492
     20 O          -9.1222  -19.0954   25.3516 O.2     1  UNL1       -0.2699
     21 N         -10.8222  -17.4767   23.8969 N.am    1  UNL1       -0.2761
     22 C         -10.8952  -16.1729   23.1589 C.3     1  UNL1        0.0937
     23 C         -12.1765  -15.7542   22.5010 C.3     1  UNL1        0.0216
     24 C         -13.3849  -16.6393   22.5811 C.3     1  UNL1        0.0035
     25 C         -13.3119  -17.9431   23.3192 C.3     1  UNL1        0.0216
     26 C         -12.0306  -18.3618   23.9771 C.3     1  UNL1        0.0937
     27 C          -7.5738  -19.7003   20.5621 C.3     1  UNL1        0.0991
     28 C          -6.1243  -19.4060   20.8122 C.ar    1  UNL1       -0.0061
     29 C          -5.5274  -19.6706   22.1626 C.ar    1  UNL1       -0.0029
     30 C          -4.0780  -19.3763   22.4127 C.ar    1  UNL1       -0.0002
     31 C          -3.2255  -18.8174   21.3122 C.ar    1  UNL1        0.0022
     32 C          -1.7760  -18.5231   21.5623 C.ar    1  UNL1        0.0296
     33 C          -0.9235  -17.9643   20.4619 C.ar    1  UNL1        0.1401
     34 F           0.5259  -17.6700   20.7119 F       1  UNL1       -0.2042
     35 C          -1.5204  -17.6998   19.1114 C.ar    1  UNL1        0.0296
     36 C          -2.9698  -17.9941   18.8614 C.ar    1  UNL1        0.0023
     37 C          -3.8224  -18.5529   19.9618 C.ar    1  UNL1       -0.0001
     38 C          -5.2718  -18.8472   19.7118 C.ar    1  UNL1       -0.0029
@<TRIPOS>BOND
     1     9    10    2
     2    10    11   am
     3     1    11    1
     4     1     2    1
     5     3     2    1
     6     3     4    1
     7     4     5    1
     8     6     5    1
     9     6     7    1
    10     6     8    1
    11     8    27    1
    12    27    28    1
    13    28    29   ar
    14    29    30   ar
    15    30    31   ar
    16    31    32   ar
    17    32    33   ar
    18    33    34    1
    19    33    35   ar
    20    35    36   ar
    21    36    37   ar
    22    37    38   ar
    23    10    13    1
    24    13    14   ar
    25    14    15   ar
    26    15    16   ar
    27    16    17   ar
    28    17    18   ar
    29    18    19    1
    30    19    20    2
    31    19    21   am
    32    21    22    1
    33    22    23    1
    34    23    24    1
    35    24    25    1
    36    25    26    1
    37     7     1    1
    38    38    28   ar
    39    18    13   ar
    40    26    21    1
    41     8     3    1
    42    37    31   ar
    43    11    12    1
@<TRIPOS>MOLECULE
*****
 38 43 0 0 0
SMALL
GASTEIGER

@<TRIPOS>ATOM
      1 C          -7.0958  -16.5289   23.4634 C.3     1  UNL1        0.0745
      2 C          -5.6345  -16.1932   23.5085 C.3     1  UNL1        0.0356
      3 C          -5.0573  -15.5168   24.7164 C.3     1  UNL1        0.0594
      4 C          -4.9268  -14.8725   26.0647 C.3     1  UNL1        0.0174
      5 C          -6.2809  -14.8695   26.7100 C.3     1  UNL1        0.0174
      6 C          -7.2483  -15.5120   25.7606 C.3     1  UNL1        0.0594
      7 C          -7.9798  -16.1881   24.6262 C.3     1  UNL1        0.0356
      8 N          -6.4921  -15.9120   24.5285 N.3     1  UNL1       -0.2715
      9 O          -6.2427  -19.3162   22.7541 O.2     1  UNL1       -0.2701
     10 C          -7.2464  -18.5990   21.9007 C.2     1  UNL1        0.2459
     11 N          -7.6730  -17.2054   22.2553 N.am    1  UNL1       -0.3024
     12 H          -8.3317  -16.7346   21.6952 H       1  UNL1        0.1497
     13 C          -7.8235  -19.2755   20.6927 C.ar    1  UNL1        0.0577
     14 C          -9.1922  -18.9017   20.2059 C.ar    1  UNL1        0.0047
     15 C          -9.7693  -19.5781   18.9980 C.ar    1  UNL1        0.0001
     16 C          -8.9778  -20.6286   18.2767 C.ar    1  UNL1        0.0001
     17 C          -7.6091  -21.0024   18.7635 C.ar    1  UNL1        0.0047
     18 C          -7.0320  -20.3259   19.9715 C.ar    1  UNL1        0.0579
     19 C          -5.6633  -20.6997   20.4583 C.2     1  UNL1        0.2492
     20 O          -5.8322  -21.9775   21.2256 O.2     1  UNL1       -0.2699
     21 N          -4.4870  -19.8282   20.1313 N.am    1  UNL1       -0.2761
     22 C          -4.6794  -18.5829   19.3176 C.3     1  UNL1        0.0937
     23 C          -3.5031  -17.7115   18.9905 C.3     1  UNL1        0.0216
     24 C          -2.1344  -18.0853   19.4773 C.3     1  UNL1        0.0035
     25 C          -1.9420  -19.3307   20.2911 C.3     1  UNL1        0.0216
     26 C          -3.1183  -20.2021   20.6181 C.3     1  UNL1        0.0937
     27 C          -7.0693  -16.5884   23.3205 C.3     1  UNL1        0.0991
     28 C          -8.5550  -16.7470   23.1879 C.ar    1  UNL1       -0.0061
     29 C          -9.3062  -15.9477   22.1648 C.ar    1  UNL1       -0.0029
     30 C         -10.7919  -16.1063   22.0322 C.ar    1  UNL1       -0.0002
     31 C         -11.5263  -17.0642   22.9227 C.ar    1  UNL1        0.0022
     32 C         -13.0121  -17.2227   22.7901 C.ar    1  UNL1        0.0296
     33 C         -13.7465  -18.1807   23.6806 C.ar    1  UNL1        0.1401
     34 F         -15.2322  -18.3392   23.5480 F       1  UNL1       -0.2042
     35 C         -12.9952  -18.9800   24.7037 C.ar    1  UNL1        0.0296
     36 C         -11.5096  -18.8214   24.8363 C.ar    1  UNL1        0.0023
     37 C         -10.7751  -17.8635   23.9458 C.ar    1  UNL1       -0.0001
     38 C          -9.2895  -17.7049   24.0784 C.ar    1  UNL1       -0.0029
@<TRIPOS>BOND
     1     9    10    2
     2    10    11   am
     3     1    11    1
     4     1     2    1
     5     3     2    1
     6     3     4    1
     7     4     5    1
     8     6     5    1
     9     6     7    1
    10     6     8    1
    11     8    27    1
    12    27    28    1
    13    28    29   ar
    14    29    30   ar
    15    30    31   ar
    16    31    32   ar
    17    32    33   ar
    18    33    34    1
    19    33    35   ar
    20    35    36   ar
    21    36    37   ar
    22    37    38   ar
    23    10    13    1
    24    13    14   ar
    25    14    15   ar
    26    15    16   ar
    27    16    17   ar
    28    17    18   ar
    29    18    19    1
    30    19    20    2
    31    19    21   am
    32    21    22    1
    33    22    23    1
    34    23    24    1
    35    24    25    1
    36    25    26    1
    37     7     1    1
    38    38    28   ar
    39    18    13   ar
    40    26    21    1
    41     8     3    1
    42    37    31   ar
    43    11    12    1
@<TRIPOS>MOLECULE
*****
 38 43 0 0 0
SMALL
GASTEIGER

@<TRIPOS>ATOM
      1 C          -8.0579  -19.2919   21.1477 C.3     1  UNL1        0.0745
      2 C          -7.0715  -20.2970   20.6309 C.3     1  UNL1        0.0356
      3 C          -7.2915  -20.9463   19.2968 C.3     1  UNL1        0.0594
      4 C          -7.8919  -21.3211   17.9743 C.3     1  UNL1        0.0174
      5 C          -9.1579  -20.5354   17.8007 C.3     1  UNL1        0.0174
      6 C          -9.3398  -19.6751   19.0159 C.3     1  UNL1        0.0594
      7 C          -9.2642  -18.9362   20.3303 C.3     1  UNL1        0.0356
      8 N          -8.1864  -19.9290   19.9406 N.3     1  UNL1       -0.2715
      9 O          -7.3056  -16.3917   21.2986 O.2     1  UNL1       -0.2701
     10 C          -7.4617  -17.1925   22.5573 C.2     1  UNL1        0.2459
     11 N          -7.8379  -18.6426   22.4819 N.am    1  UNL1       -0.3024
     12 H          -7.9403  -19.1682   23.3080 H       1  UNL1        0.1497
     13 C          -7.2417  -16.5432   23.8914 C.ar    1  UNL1        0.0577
     14 C          -8.3172  -16.5922   24.9359 C.ar    1  UNL1        0.0047
     15 C          -8.0971  -15.9429   26.2700 C.ar    1  UNL1        0.0001
     16 C          -6.8016  -15.2445   26.5597 C.ar    1  UNL1        0.0001
     17 C          -5.7261  -15.1955   25.5153 C.ar    1  UNL1        0.0047
     18 C          -5.9462  -15.8449   24.1811 C.ar    1  UNL1        0.0579
     19 C          -4.8707  -15.7959   23.1366 C.2     1  UNL1        0.2492
     20 O          -4.7490  -14.3556   22.7357 O.2     1  UNL1       -0.2699
     21 N          -4.1755  -17.0569   22.7162 N.am    1  UNL1       -0.2761
     22 C          -4.5558  -18.3668   23.3403 C.3     1  UNL1        0.0937
     23 C          -3.8606  -19.6278   22.9199 C.3     1  UNL1        0.0216
     24 C          -2.7851  -19.5788   21.8754 C.3     1  UNL1        0.0035
     25 C          -2.4048  -18.2688   21.2513 C.3     1  UNL1        0.0216
     26 C          -3.1000  -17.0079   21.6717 C.3     1  UNL1        0.0937
     27 C          -7.9664  -19.2797   21.2747 C.3     1  UNL1        0.0991
     28 C          -9.0711  -19.2574   22.2892 C.ar    1  UNL1       -0.0061
     29 C          -8.9247  -20.0170   23.5743 C.ar    1  UNL1       -0.0029
     30 C         -10.0294  -19.9947   24.5887 C.ar    1  UNL1       -0.0002
     31 C         -11.2804  -19.2126   24.3181 C.ar    1  UNL1        0.0022
     32 C         -12.3852  -19.1903   25.3327 C.ar    1  UNL1        0.0296
     33 C         -13.6362  -18.4083   25.0621 C.ar    1  UNL1        0.1401
     34 F         -14.7409  -18.3859   26.0765 F       1  UNL1       -0.2042
     35 C         -13.7826  -17.6486   23.7769 C.ar    1  UNL1        0.0296
     36 C         -12.6779  -17.6710   22.7625 C.ar    1  UNL1        0.0023
     37 C         -11.4269  -18.4530   23.0331 C.ar    1  UNL1       -0.0001
     38 C         -10.3222  -18.4754   22.0186 C.ar    1  UNL1       -0.0029
@<TRIPOS>BOND
     1     9    10    2
     2    10    11   am
     3     1    11    1
     4     1     2    1
     5     3     2    1
     6     3     4    1
     7     4     5    1
     8     6     5    1
     9     6     7    1
    10     6     8    1
    11     8    27    1
    12    27    28    1
    13    28    29   ar
    14    29    30   ar
    15    30    31   ar
    16    31    32   ar
    17    32    33   ar
    18    33    34    1
    19    33    35   ar
    20    35    36   ar
    21    36    37   ar
    22    37    38   ar
    23    10    13    1
    24    13    14   ar
    25    14    15   ar
    26    15    16   ar
    27    16    17   ar
    28    17    18   ar
    29    18    19    1
    30    19    20    2
    31    19    21   am
    32    21    22    1
    33    22    23    1
    34    23    24    1
    35    24    25    1
    36    25    26    1
    37     7     1    1
    38    38    28   ar
    39    18    13   ar
    40    26    21    1
    41     8     3    1
    42    37    31   ar
    43    11    12    1
@<TRIPOS>MOLECULE
*****
 38 43 0 0 0
SMALL
GASTEIGER

@<TRIPOS>ATOM
      1 C           6.9539    0.5576   17.9390 C.3     1  UNL1        0.0745
      2 C           7.8953    1.2833   18.8539 C.3     1  UNL1        0.0356
      3 C           8.8117    2.3365   18.3052 C.3     1  UNL1        0.0594
      4 C           9.5108    3.2670   17.3590 C.3     1  UNL1        0.0174
      5 C           8.9528    3.0370   15.9857 C.3     1  UNL1        0.0174
      6 C           7.9088    1.9643   16.0833 C.3     1  UNL1        0.0594
      7 C           6.9288    0.8850   16.4754 C.3     1  UNL1        0.0356
      8 N           7.8216    1.5314   17.5168 N.3     1  UNL1       -0.2715
      9 O           7.9794   -2.2202   18.4208 O.2     1  UNL1       -0.2701
     10 C           6.5502   -1.8845   18.7287 C.2     1  UNL1        0.2459
     11 N           6.0374   -0.4956   18.4878 N.am    1  UNL1       -0.3024
     12 H           5.0994   -0.2752   18.6899 H       1  UNL1        0.1497
     13 C           5.6339   -2.9376   19.2774 C.ar    1  UNL1        0.0577
     14 C           5.0937   -4.0064   18.3742 C.ar    1  UNL1        0.0047
     15 C           4.1773   -5.0596   18.9229 C.ar    1  UNL1        0.0001
     16 C           3.8012   -5.0440   20.3750 C.ar    1  UNL1        0.0001
     17 C           4.3414   -3.9752   21.2782 C.ar    1  UNL1        0.0047
     18 C           5.2578   -2.9220   20.7294 C.ar    1  UNL1        0.0579
     19 C           5.7980   -1.8532   21.6326 C.2     1  UNL1        0.2492
     20 O           7.2167   -2.2402   21.9285 O.2     1  UNL1       -0.2699
     21 N           4.9241   -0.7047   22.0419 N.am    1  UNL1       -0.2761
     22 C           3.5101   -0.6251   21.5479 C.3     1  UNL1        0.0937
     23 C           2.6362    0.5233   21.9572 C.3     1  UNL1        0.0216
     24 C           3.1764    1.5921   22.8604 C.3     1  UNL1        0.0035
     25 C           4.5905    1.5125   23.3544 C.3     1  UNL1        0.0216
     26 C           5.4644    0.3641   22.9451 C.3     1  UNL1        0.0937
     27 C           6.9052    0.4782   18.0655 C.3     1  UNL1        0.0991
     28 C           5.4321    0.7435   18.1647 C.ar    1  UNL1       -0.0061
     29 C           4.4544   -0.2177   17.5565 C.ar    1  UNL1       -0.0029
     30 C           2.9814    0.0475   17.6557 C.ar    1  UNL1       -0.0002
     31 C           2.4862    1.2740   18.3632 C.ar    1  UNL1        0.0022
     32 C           1.0131    1.5392   18.4625 C.ar    1  UNL1        0.0296
     33 C           0.5179    2.7657   19.1700 C.ar    1  UNL1        0.1401
     34 F          -0.9551    3.0310   19.2692 F       1  UNL1       -0.2042
     35 C           1.4957    3.7269   19.7782 C.ar    1  UNL1        0.0296
     36 C           2.9687    3.4617   19.6790 C.ar    1  UNL1        0.0023
     37 C           3.4639    2.2352   18.9715 C.ar    1  UNL1       -0.0001
     38 C           4.9369    1.9699   18.8722 C.ar    1  UNL1       -0.0029
@<TRIPOS>BOND
     1     9    10    2
     2    10    11   am
     3     1    11    1
     4     1     2    1
     5     3     2    1
     6     3     4    1
     7     4     5    1
     8     6     5    1
     9     6     7    1
    10     6     8    1
    11     8    27    1
    12    27    28    1
    13    28    29   ar
    14    29    30   ar
    15    30    31   ar
    16    31    32   ar
    17    32    33   ar
    18    33    34    1
    19    33    35   ar
    20    35    36   ar
    21    36    37   ar
    22    37    38   ar
    23    10    13    1
    24    13    14   ar
    25    14    15   ar
    26    15    16   ar
    27    16    17   ar
    28    17    18   ar
    29    18    19    1
    30    19    20    2
    31    19    21   am
    32    21    22    1
    33    22    23    1
    34    23    24    1
    35    24    25    1
    36    25    26    1
    37     7     1    1
    38    38    28   ar
    39    18    13   ar
    40    26    21    1
    41     8     3    1
    42    37    31   ar
    43    11    12    1
@<TRIPOS>MOLECULE
*****
 38 43 0 0 0
SMALL
GASTEIGER

@<TRIPOS>ATOM
      1 C           2.3832    1.3915   18.8727 C.3     1  UNL1        0.0745
      2 C           0.9020    1.4902   18.6573 C.3     1  UNL1        0.0356
      3 C           0.2971    2.7787   18.1846 C.3     1  UNL1        0.0594
      4 C           0.1424    4.1990   17.7274 C.3     1  UNL1        0.0174
      5 C           1.5035    4.8290   17.7031 C.3     1  UNL1        0.0174
      6 C           2.4994    3.7981   18.1453 C.3     1  UNL1        0.0594
      7 C           3.2595    2.5813   18.6152 C.3     1  UNL1        0.0356
      8 N           1.7538    2.5310   18.4428 N.3     1  UNL1       -0.2715
      9 O           3.4414   -0.5880   16.8822 O.2     1  UNL1       -0.2701
     10 C           3.5173   -0.8870   18.3502 C.2     1  UNL1        0.2459
     11 N           2.9881    0.1028   19.3455 N.am    1  UNL1       -0.3024
     12 H           3.0379   -0.0934   20.3089 H       1  UNL1        0.1497
     13 C           4.1221   -2.1756   18.8229 C.ar    1  UNL1        0.0577
     14 C           3.2411   -3.3513   19.1254 C.ar    1  UNL1        0.0047
     15 C           3.8459   -4.6399   19.5981 C.ar    1  UNL1        0.0001
     16 C           5.3320   -4.7529   19.7684 C.ar    1  UNL1        0.0001
     17 C           6.2131   -3.5772   19.4659 C.ar    1  UNL1        0.0047
     18 C           5.6081   -2.2886   18.9932 C.ar    1  UNL1        0.0579
     19 C           6.4892   -1.1129   18.6907 C.2     1  UNL1        0.2492
     20 O           6.7510   -1.1614   17.2146 O.2     1  UNL1       -0.2699
     21 N           6.9127   -0.1894   19.7944 N.am    1  UNL1       -0.2761
     22 C           6.4552   -0.4417   21.2004 C.3     1  UNL1        0.0937
     23 C           6.8787    0.4817   22.3041 C.3     1  UNL1        0.0216
     24 C           7.7598    1.6574   22.0016 C.3     1  UNL1        0.0035
     25 C           8.2174    1.9096   20.5955 C.3     1  UNL1        0.0216
     26 C           7.7938    0.9862   19.4919 C.3     1  UNL1        0.0937
     27 C           2.3588    1.2424   18.9156 C.3     1  UNL1        0.0991
     28 C           2.6487    1.0403   20.3734 C.ar    1  UNL1       -0.0061
     29 C           2.1796   -0.2049   21.0658 C.ar    1  UNL1       -0.0029
     30 C           2.4695   -0.4069   22.5235 C.ar    1  UNL1       -0.0002
     31 C           3.2286    0.6362   23.2889 C.ar    1  UNL1        0.0022
     32 C           3.5185    0.4341   24.7467 C.ar    1  UNL1        0.0296
     33 C           4.2775    1.4772   25.5120 C.ar    1  UNL1        0.1401
     34 F           4.5675    1.2751   26.9698 F       1  UNL1       -0.2042
     35 C           4.7467    2.7224   24.8196 C.ar    1  UNL1        0.0296
     36 C           4.4567    2.9244   23.3618 C.ar    1  UNL1        0.0023
     37 C           3.6977    1.8813   22.5965 C.ar    1  UNL1       -0.0001
     38 C           3.4077    2.0834   21.1387 C.ar    1  UNL1       -0.0029
@<TRIPOS>BOND
     1     9    10    2
     2    10    11   am
     3     1    11    1
     4     1     2    1
     5     3     2    1
     6     3     4    1
     7     4     5    1
     8     6     5    1
     9     6     7    1
    10     6     8    1
    11     8    27    1
    12    27    28    1
    13    28    29   ar
    14    29    30   ar
    15    30    31   ar
    16    31    32   ar
    17    32    33   ar
    18    33    34    1
    19    33    35   ar
    20    35    36   ar
    21    36    37   ar
    22    37    38   ar
    23    10    13    1
    24    13    14   ar
    25    14    15   ar
    26    15    16   ar
    27    16    17   ar
    28    17    18   ar
    29    18    19    1
    30    19    20    2
    31    19    21   am
    32    21    22    1
    33    22    23    1
    34    23    24    1
    35    24    25    1
    36    25    26    1
    37     7     1    1
    38    38    28   ar
    39    18    13   ar
    40    26    21    1
    41     8     3    1
    42    37    31   ar
    43    11    12    1
@<TRIPOS>MOLECULE
*****
 38 43 0 0 0
SMALL
GASTEIGER

@<TRIPOS>ATOM
      1 C          -2.5181    3.4875   20.6437 C.3     1  UNL1        0.0745
      2 C          -2.1186    3.9635   19.2785 C.3     1  UNL1        0.0356
      3 C          -3.1531    4.1074   18.2019 C.3     1  UNL1        0.0594
      4 C          -4.4641    4.1000   17.4730 C.3     1  UNL1        0.0174
      5 C          -5.5227    3.6334   18.4278 C.3     1  UNL1        0.0174
      6 C          -4.8659    3.3523   19.7468 C.3     1  UNL1        0.0594
      7 C          -3.9521    3.1553   20.9323 C.3     1  UNL1        0.0356
      8 N          -3.4014    3.6453   19.6072 N.3     1  UNL1       -0.2715
      9 O          -0.5890    1.1911   20.5729 O.2     1  UNL1       -0.2701
     10 C          -0.5190    2.1954   21.6849 C.2     1  UNL1        0.2459
     11 N          -1.4836    3.3436   21.7203 N.am    1  UNL1       -0.3024
     12 H          -1.4377    4.0028   22.4501 H       1  UNL1        0.1497
     13 C           0.5155    2.0515   22.7615 C.ar    1  UNL1        0.0577
     14 C           0.0923    1.8357   24.1843 C.ar    1  UNL1        0.0047
     15 C           1.1269    1.6918   25.2608 C.ar    1  UNL1        0.0001
     16 C           2.5846    1.7637   24.9146 C.ar    1  UNL1        0.0001
     17 C           3.0078    1.9796   23.4918 C.ar    1  UNL1        0.0047
     18 C           1.9732    2.1234   22.4152 C.ar    1  UNL1        0.0579
     19 C           2.3964    2.3393   20.9924 C.2     1  UNL1        0.2492
     20 O           2.3265    3.8195   20.7604 O.2     1  UNL1       -0.2699
     21 N           2.7759    1.1671   20.1368 N.am    1  UNL1       -0.2761
     22 C           2.7323   -0.2208   20.7041 C.3     1  UNL1        0.0937
     23 C           3.1119   -1.3930   19.8485 C.3     1  UNL1        0.0216
     24 C           3.5351   -1.1772   18.4257 C.3     1  UNL1        0.0035
     25 C           3.5787    0.2108   17.8585 C.3     1  UNL1        0.0216
     26 C           3.1991    1.3829   18.7141 C.3     1  UNL1        0.0937
     27 C          -2.3670    3.5014   20.6838 C.3     1  UNL1        0.0991
     28 C          -2.5302    4.2327   21.9833 C.ar    1  UNL1       -0.0061
     29 C          -1.9599    5.6105   22.1454 C.ar    1  UNL1       -0.0029
     30 C          -2.1231    6.3417   23.4449 C.ar    1  UNL1       -0.0002
     31 C          -2.8567    5.6950   24.5823 C.ar    1  UNL1        0.0022
     32 C          -3.0199    6.4263   25.8818 C.ar    1  UNL1        0.0296
     33 C          -3.7535    5.7796   27.0192 C.ar    1  UNL1        0.1401
     34 F          -3.9168    6.5108   28.3187 F       1  UNL1       -0.2042
     35 C          -4.3239    4.4017   26.8571 C.ar    1  UNL1        0.0296
     36 C          -4.1606    3.6705   25.5576 C.ar    1  UNL1        0.0023
     37 C          -3.4270    4.3172   24.4202 C.ar    1  UNL1       -0.0001
     38 C          -3.2638    3.5860   23.1207 C.ar    1  UNL1       -0.0029
@<TRIPOS>BOND
     1     9    10    2
     2    10    11   am
     3     1    11    1
     4     1     2    1
     5     3     2    1
     6     3     4    1
     7     4     5    1
     8     6     5    1
     9     6     7    1
    10     6     8    1
    11     8    27    1
    12    27    28    1
    13    28    29   ar
    14    29    30   ar
    15    30    31   ar
    16    31    32   ar
    17    32    33   ar
    18    33    34    1
    19    33    35   ar
    20    35    36   ar
    21    36    37   ar
    22    37    38   ar
    23    10    13    1
    24    13    14   ar
    25    14    15   ar
    26    15    16   ar
    27    16    17   ar
    28    17    18   ar
    29    18    19    1
    30    19    20    2
    31    19    21   am
    32    21    22    1
    33    22    23    1
    34    23    24    1
    35    24    25    1
    36    25    26    1
    37     7     1    1
    38    38    28   ar
    39    18    13   ar
    40    26    21    1
    41     8     3    1
    42    37    31   ar
    43    11    12    1
@<TRIPOS>MOLECULE
*****
 38 43 0 0 0
SMALL
GASTEIGER

@<TRIPOS>ATOM
      1 C           5.9750   -2.8292   21.4918 C.3     1  UNL1        0.0745
      2 C           7.0158   -3.2675   20.5046 C.3     1  UNL1        0.0356
      3 C           8.0266   -4.3060   20.8916 C.3     1  UNL1        0.0594
      4 C           8.7969   -5.3225   21.6811 C.3     1  UNL1        0.0174
      5 C           8.1786   -5.4160   23.0446 C.3     1  UNL1        0.0174
      6 C           7.0263   -4.4572   23.0978 C.3     1  UNL1        0.0594
      7 C           5.9450   -3.4294   22.8661 C.3     1  UNL1        0.0356
      8 N           6.9323   -3.7712   21.7672 N.3     1  UNL1       -0.2715
      9 O           3.9067   -3.4519   19.4099 O.2     1  UNL1       -0.2701
     10 C           3.9300   -2.1020   20.0637 C.2     1  UNL1        0.2459
     11 N           4.9642   -1.7907   21.1047 N.am    1  UNL1       -0.3024
     12 H           4.9795   -0.9048   21.5338 H       1  UNL1        0.1497
     13 C           2.9193   -1.0636   19.6766 C.ar    1  UNL1        0.0577
     14 C           1.6444   -0.9306   20.4558 C.ar    1  UNL1        0.0047
     15 C           0.6337    0.1078   20.0686 C.ar    1  UNL1        0.0001
     16 C           0.8977    1.0134   18.9023 C.ar    1  UNL1        0.0001
     17 C           2.1725    0.8804   18.1231 C.ar    1  UNL1        0.0047
     18 C           3.1833   -0.1581   18.5103 C.ar    1  UNL1        0.0579
     19 C           4.4582   -0.2911   17.7311 C.2     1  UNL1        0.2492
     20 O           4.2080   -1.3593   16.7082 O.2     1  UNL1       -0.2699
     21 N           5.6375    0.5719   18.0696 N.am    1  UNL1       -0.2761
     22 C           5.5421    1.5677   19.1873 C.3     1  UNL1        0.0937
     23 C           6.7214    2.4306   19.5258 C.3     1  UNL1        0.0216
     24 C           7.9963    2.2976   18.7466 C.3     1  UNL1        0.0035
     25 C           8.0917    1.3017   17.6289 C.3     1  UNL1        0.0216
     26 C           6.9124    0.4389   17.2905 C.3     1  UNL1        0.0937
     27 C           5.9215   -2.7327   21.3801 C.3     1  UNL1        0.0991
     28 C           5.9626   -1.3734   22.0132 C.ar    1  UNL1       -0.0061
     29 C           4.7499   -0.8350   22.7129 C.ar    1  UNL1       -0.0029
     30 C           4.7911    0.5242   23.3460 C.ar    1  UNL1       -0.0002
     31 C           6.0448    1.3450   23.2793 C.ar    1  UNL1        0.0022
     32 C           6.0858    2.7043   23.9124 C.ar    1  UNL1        0.0296
     33 C           7.3396    3.5251   23.8457 C.ar    1  UNL1        0.1401
     34 F           7.3807    4.8843   24.4788 F       1  UNL1       -0.2042
     35 C           8.5522    2.9866   23.1460 C.ar    1  UNL1        0.0296
     36 C           8.5111    1.6274   22.5129 C.ar    1  UNL1        0.0023
     37 C           7.2574    0.8066   22.5796 C.ar    1  UNL1       -0.0001
     38 C           7.2163   -0.5526   21.9466 C.ar    1  UNL1       -0.0029
@<TRIPOS>BOND
     1     9    10    2
     2    10    11   am
     3     1    11    1
     4     1     2    1
     5     3     2    1
     6     3     4    1
     7     4     5    1
     8     6     5    1
     9     6     7    1
    10     6     8    1
    11     8    27    1
    12    27    28    1
    13    28    29   ar
    14    29    30   ar
    15    30    31   ar
    16    31    32   ar
    17    32    33   ar
    18    33    34    1
    19    33    35   ar
    20    35    36   ar
    21    36    37   ar
    22    37    38   ar
    23    10    13    1
    24    13    14   ar
    25    14    15   ar
    26    15    16   ar
    27    16    17   ar
    28    17    18   ar
    29    18    19    1
    30    19    20    2
    31    19    21   am
    32    21    22    1
    33    22    23    1
    34    23    24    1
    35    24    25    1
    36    25    26    1
    37     7     1    1
    38    38    28   ar
    39    18    13   ar
    40    26    21    1
    41     8     3    1
    42    37    31   ar
    43    11    12    1
@<TRIPOS>MOLECULE
*****
 38 43 0 0 0
SMALL
GASTEIGER

@<TRIPOS>ATOM
      1 C          -0.3548    3.7307   19.1461 C.3     1  UNL1        0.0745
      2 C          -1.6088    3.8813   19.9552 C.3     1  UNL1        0.0356
      3 C          -2.9400    3.9585   19.2682 C.3     1  UNL1        0.0594
      4 C          -3.9960    3.9919   18.2035 C.3     1  UNL1        0.0174
      5 C          -3.3165    3.8624   16.8724 C.3     1  UNL1        0.0174
      6 C          -1.8405    3.7490   17.1146 C.3     1  UNL1        0.0594
      7 C          -0.4319    3.6571   17.6499 C.3     1  UNL1        0.0356
      8 N          -1.6078    3.8084   18.5952 N.3     1  UNL1       -0.2715
      9 O           1.0133    6.2421   20.0520 O.2     1  UNL1       -0.2701
     10 C           1.6605    4.9092   20.2862 C.2     1  UNL1        0.2459
     11 N           0.9764    3.6535   19.8332 N.am    1  UNL1       -0.3024
     12 H           1.4011    2.7787   19.9868 H       1  UNL1        0.1497
     13 C           2.9916    4.8321   20.9732 C.ar    1  UNL1        0.0577
     14 C           4.2506    4.7490   20.1621 C.ar    1  UNL1        0.0047
     15 C           5.5817    4.6719   20.8492 C.ar    1  UNL1        0.0001
     16 C           5.6539    4.6779   22.3475 C.ar    1  UNL1        0.0001
     17 C           4.3949    4.7610   23.1586 C.ar    1  UNL1        0.0047
     18 C           3.0637    4.8381   22.4715 C.ar    1  UNL1        0.0579
     19 C           1.8047    4.9213   23.2826 C.2     1  UNL1        0.2492
     20 O           1.4349    6.3744   23.3242 O.2     1  UNL1       -0.2699
     21 N           1.1957    3.6743   23.8521 N.am    1  UNL1       -0.2761
     22 C           1.8457    2.3443   23.6105 C.3     1  UNL1        0.0937
     23 C           1.2368    1.0973   24.1801 C.3     1  UNL1        0.0216
     24 C          -0.0222    1.1805   24.9912 C.3     1  UNL1        0.0035
     25 C          -0.6723    2.5106   25.2328 C.3     1  UNL1        0.0216
     26 C          -0.0633    3.7575   24.6633 C.3     1  UNL1        0.0937
     27 C          -0.2767    3.7313   19.2822 C.3     1  UNL1        0.0991
     28 C           0.4043    2.4054   19.4515 C.ar    1  UNL1       -0.0061
     29 C          -0.0463    1.4629   20.5279 C.ar    1  UNL1       -0.0029
     30 C           0.6346    0.1371   20.6971 C.ar    1  UNL1       -0.0002
     31 C           1.7661   -0.2461   19.7900 C.ar    1  UNL1        0.0022
     32 C           2.4470   -1.5719   19.9593 C.ar    1  UNL1        0.0296
     33 C           3.5786   -1.9551   19.0522 C.ar    1  UNL1        0.1401
     34 F           4.2595   -3.2809   19.2215 F       1  UNL1       -0.2042
     35 C           4.0291   -1.0125   17.9758 C.ar    1  UNL1        0.0296
     36 C           3.3482    0.3133   17.8066 C.ar    1  UNL1        0.0023
     37 C           2.2167    0.6965   18.7137 C.ar    1  UNL1       -0.0001
     38 C           1.5358    2.0222   18.5444 C.ar    1  UNL1       -0.0029
@<TRIPOS>BOND
     1     9    10    2
     2    10    11   am
     3     1    11    1
     4     1     2    1
     5     3     2    1
     6     3     4    1
     7     4     5    1
     8     6     5    1
     9     6     7    1
    10     6     8    1
    11     8    27    1
    12    27    28    1
    13    28    29   ar
    14    29    30   ar
    15    30    31   ar
    16    31    32   ar
    17    32    33   ar
    18    33    34    1
    19    33    35   ar
    20    35    36   ar
    21    36    37   ar
    22    37    38   ar
    23    10    13    1
    24    13    14   ar
    25    14    15   ar
    26    15    16   ar
    27    16    17   ar
    28    17    18   ar
    29    18    19    1
    30    19    20    2
    31    19    21   am
    32    21    22    1
    33    22    23    1
    34    23    24    1
    35    24    25    1
    36    25    26    1
    37     7     1    1
    38    38    28   ar
    39    18    13   ar
    40    26    21    1
    41     8     3    1
    42    37    31   ar
    43    11    12    1
@<TRIPOS>MOLECULE
*****
 38 43 0 0 0
SMALL
GASTEIGER

@<TRIPOS>ATOM
      1 C           5.3127   -1.5705   31.7400 C.3     1  UNL1        0.0745
      2 C           5.9555   -1.7411   30.3955 C.3     1  UNL1        0.0356
      3 C           6.6916   -3.0072   30.0713 C.3     1  UNL1        0.0594
      4 C           7.2936   -4.3764   30.1848 C.3     1  UNL1        0.0174
      5 C           6.9762   -4.9104   31.5502 C.3     1  UNL1        0.0174
      6 C           6.1781   -3.8713   32.2804 C.3     1  UNL1        0.0594
      7 C           5.4059   -2.6661   32.7603 C.3     1  UNL1        0.0356
      8 N           6.0022   -2.6950   31.3664 N.3     1  UNL1       -0.2715
      9 O           2.4263   -1.2762   30.9771 O.2     1  UNL1       -0.2701
     10 C           3.1334   -0.1572   31.6827 C.2     1  UNL1        0.2459
     11 N           4.5766   -0.3044   32.0642 N.am    1  UNL1       -0.3024
     12 H           5.0407    0.4301   32.5273 H       1  UNL1        0.1497
     13 C           2.3973    1.1089   32.0069 C.ar    1  UNL1        0.0577
     14 C           2.5697    1.7538   33.3502 C.ar    1  UNL1        0.0047
     15 C           1.8336    3.0199   33.6743 C.ar    1  UNL1        0.0001
     16 C           0.9251    3.6412   32.6552 C.ar    1  UNL1        0.0001
     17 C           0.7527    2.9963   31.3119 C.ar    1  UNL1        0.0047
     18 C           1.4888    1.7301   30.9878 C.ar    1  UNL1        0.0579
     19 C           1.3164    1.0852   29.6445 C.2     1  UNL1        0.2492
     20 O           0.0563    0.2763   29.7329 O.2     1  UNL1       -0.2699
     21 N           2.3227    1.3315   28.5596 N.am    1  UNL1       -0.2761
     22 C           3.5013    2.2225   28.8181 C.3     1  UNL1        0.0937
     23 C           4.5076    2.4688   27.7332 C.3     1  UNL1        0.0216
     24 C           4.3352    1.8239   26.3899 C.3     1  UNL1        0.0035
     25 C           3.1565    0.9328   26.1315 C.3     1  UNL1        0.0216
     26 C           2.1503    0.6866   27.2163 C.3     1  UNL1        0.0937
     27 C           5.2662   -1.4289   31.6906 C.3     1  UNL1        0.0991
     28 C           5.6898   -0.5943   32.8628 C.ar    1  UNL1       -0.0061
     29 C           6.8679    0.3261   32.7415 C.ar    1  UNL1       -0.0029
     30 C           7.2914    1.1607   33.9136 C.ar    1  UNL1       -0.0002
     31 C           6.5368    1.0749   35.2071 C.ar    1  UNL1        0.0022
     32 C           6.9604    1.9096   36.3793 C.ar    1  UNL1        0.0296
     33 C           6.2058    1.8238   37.6729 C.ar    1  UNL1        0.1401
     34 F           6.6294    2.6584   38.8450 F       1  UNL1       -0.2042
     35 C           5.0276    0.9033   37.7942 C.ar    1  UNL1        0.0296
     36 C           4.6041    0.0687   36.6220 C.ar    1  UNL1        0.0023
     37 C           5.3587    0.1545   35.3285 C.ar    1  UNL1       -0.0001
     38 C           4.9351   -0.6801   34.1564 C.ar    1  UNL1       -0.0029
@<TRIPOS>BOND
     1     9    10    2
     2    10    11   am
     3     1    11    1
     4     1     2    1
     5     3     2    1
     6     3     4    1
     7     4     5    1
     8     6     5    1
     9     6     7    1
    10     6     8    1
    11     8    27    1
    12    27    28    1
    13    28    29   ar
    14    29    30   ar
    15    30    31   ar
    16    31    32   ar
    17    32    33   ar
    18    33    34    1
    19    33    35   ar
    20    35    36   ar
    21    36    37   ar
    22    37    38   ar
    23    10    13    1
    24    13    14   ar
    25    14    15   ar
    26    15    16   ar
    27    16    17   ar
    28    17    18   ar
    29    18    19    1
    30    19    20    2
    31    19    21   am
    32    21    22    1
    33    22    23    1
    34    23    24    1
    35    24    25    1
    36    25    26    1
    37     7     1    1
    38    38    28   ar
    39    18    13   ar
    40    26    21    1
    41     8     3    1
    42    37    31   ar
    43    11    12    1
