@<TRIPOS>MOLECULE
*****
 29 31 0 0 0
SMALL
GASTEIGER

@<TRIPOS>ATOM
      1 C          -6.9955  -19.0687   22.5350 C.ar    1  UNL1        0.0951
      2 C          -5.8838  -19.9141   21.9877 C.ar    1  UNL1        0.1454
      3 F          -6.1837  -21.2664   21.4122 F       1  UNL1       -0.2040
      4 C          -4.4724  -19.4071   22.0158 C.ar    1  UNL1        0.0312
      5 C          -4.1725  -18.0547   22.5913 C.ar    1  UNL1        0.0204
      6 C          -5.2842  -17.2093   23.1386 C.ar    1  UNL1        0.0920
      7 C          -6.6957  -17.7163   23.1105 C.ar    1  UNL1        0.1598
      8 F          -7.8072  -16.8708   23.6578 F       1  UNL1       -0.2026
      9 C          -8.4069  -19.5756   22.5069 C.2     1  UNL1        0.2036
     10 O          -8.8083  -20.7259   23.3820 O.2     1  UNL1       -0.2863
     11 C         -12.9909  -18.1642   23.3501 C.2     1  UNL1        0.0716
     12 C         -13.6447  -17.5581   22.1438 C.2     1  UNL1        0.2401
     13 N         -12.8832  -17.4425   20.8566 N.2     1  UNL1       -0.0304
     14 C         -11.4680  -17.9330   20.7757 C.2     1  UNL1        0.3721
     15 N         -10.4748  -17.9516   19.6518 N.2     1  UNL1       -0.0307
     16 C          -9.2072  -18.5692   20.1635 C.2     1  UNL1        0.2390
     17 C          -9.4170  -18.9323   21.6037 C.2     1  UNL1        0.0896
     18 C         -10.8143  -18.5391   21.9820 C.2     1  UNL1        0.0781
     19 C         -11.5757  -18.6547   23.2692 C.3     1  UNL1        0.0731
     20 C         -14.5138  -18.3954   25.9244 C.1     1  UNL1       -0.0094
     21 C         -13.7524  -18.2798   24.6373 C.1     1  UNL1       -0.0514
     22 N          -4.9843  -15.8570   23.7141 N.pl3   1  UNL1       -0.2166
     23 H          -4.4933  -15.1922   23.1790 H       1  UNL1        0.1734
     24 S          -5.4325  -15.5174   25.1047 S.O2    1  UNL1        0.0540
     25 O          -4.5111  -16.5642   25.6572 O.2     1  UNL1       -0.1545
     26 O          -6.3538  -14.4707   24.5522 O.2     1  UNL1       -0.1545
     27 C          -5.8807  -15.1779   26.4954 C.3     1  UNL1        0.1724
     28 C          -6.9132  -16.0249   27.1783 C.3     1  UNL1        0.0273
     29 C          -8.3330  -15.5494   27.2687 C.3     1  UNL1        0.0019
@<TRIPOS>BOND
     1    20    21    3
     2    21    11    1
     3    11    12    2
     4    12    13    1
     5    13    14    2
     6    14    15    1
     7    15    16    2
     8    16    17    1
     9    17     9    1
    10     9    10    2
    11     9     1    1
    12     1     2   ar
    13     2     3    1
    14     2     4   ar
    15     4     5   ar
    16     5     6   ar
    17     6    22    1
    18    22    24    1
    19    24    25    2
    20    24    26    2
    21    24    27    1
    22    27    28    1
    23    28    29    1
    24     6     7   ar
    25     7     8    1
    26    17    18    2
    27    18    19    1
    28    19    11    1
    29    18    14    1
    30     7     1   ar
    31    22    23    1
@<TRIPOS>MOLECULE
*****
 29 31 0 0 0
SMALL
GASTEIGER

@<TRIPOS>ATOM
      1 C          -6.9974  -18.1990   22.9092 C.ar    1  UNL1        0.0951
      2 C          -7.2178  -16.8372   23.4980 C.ar    1  UNL1        0.1454
      3 F          -8.6123  -16.3496   23.7587 F       1  UNL1       -0.2040
      4 C          -6.0440  -15.9628   23.8261 C.ar    1  UNL1        0.0312
      5 C          -4.6496  -16.4504   23.5654 C.ar    1  UNL1        0.0204
      6 C          -4.4291  -17.8123   22.9766 C.ar    1  UNL1        0.0920
      7 C          -5.6030  -18.6866   22.6485 C.ar    1  UNL1        0.1598
      8 F          -5.3824  -20.0485   22.0597 F       1  UNL1       -0.2026
      9 C          -8.1712  -19.0733   22.5811 C.2     1  UNL1        0.2036
     10 O          -8.2791  -20.4420   23.1854 O.2     1  UNL1       -0.2863
     11 C         -12.8870  -18.1311   23.3489 C.2     1  UNL1        0.0716
     12 C         -13.5922  -17.6475   22.1165 C.2     1  UNL1        0.2401
     13 N         -12.8371  -17.5020   20.8286 N.2     1  UNL1       -0.0304
     14 C         -11.3768  -17.8401   20.7731 C.2     1  UNL1        0.3721
     15 N         -10.3782  -17.7965   19.6547 N.2     1  UNL1       -0.0307
     16 C          -9.0558  -18.2531   20.1958 C.2     1  UNL1        0.2390
     17 C          -9.2371  -18.5790   21.6487 C.2     1  UNL1        0.0896
     18 C         -10.6716  -18.3237   22.0055 C.2     1  UNL1        0.0781
     19 C         -11.4267  -18.4692   23.2933 C.3     1  UNL1        0.0731
     20 C         -14.3973  -18.4220   25.9246 C.1     1  UNL1       -0.0094
     21 C         -13.6421  -18.2765   24.6367 C.1     1  UNL1       -0.0514
     22 N          -3.0347  -18.2998   22.7159 N.pl3   1  UNL1       -0.2166
     23 H          -2.4197  -18.4577   23.4683 H       1  UNL1        0.1734
     24 S          -2.5773  -18.5469   21.3089 S.O2    1  UNL1        0.0540
     25 O          -2.2218  -19.9580   21.6722 O.2     1  UNL1       -0.1545
     26 O          -2.9328  -17.1356   20.9456 O.2     1  UNL1       -0.1545
     27 C          -2.1199  -18.7938   19.9018 C.3     1  UNL1        0.1724
     28 C          -1.1055  -17.8855   19.2726 C.3     1  UNL1        0.0273
     29 C           0.2126  -17.6506   19.9489 C.3     1  UNL1        0.0019
@<TRIPOS>BOND
     1    20    21    3
     2    21    11    1
     3    11    12    2
     4    12    13    1
     5    13    14    2
     6    14    15    1
     7    15    16    2
     8    16    17    1
     9    17     9    1
    10     9    10    2
    11     9     1    1
    12     1     2   ar
    13     2     3    1
    14     2     4   ar
    15     4     5   ar
    16     5     6   ar
    17     6    22    1
    18    22    24    1
    19    24    25    2
    20    24    26    2
    21    24    27    1
    22    27    28    1
    23    28    29    1
    24     6     7   ar
    25     7     8    1
    26    17    18    2
    27    18    19    1
    28    19    11    1
    29    18    14    1
    30     7     1   ar
    31    22    23    1
@<TRIPOS>MOLECULE
*****
 29 31 0 0 0
SMALL
GASTEIGER

@<TRIPOS>ATOM
      1 C          -6.7844  -16.6894   23.5265 C.ar    1  UNL1        0.0951
      2 C          -5.6487  -15.9688   24.1904 C.ar    1  UNL1        0.1454
      3 F          -5.9203  -14.7634   25.0409 F       1  UNL1       -0.2040
      4 C          -4.2415  -16.4535   24.0039 C.ar    1  UNL1        0.0312
      5 C          -3.9700  -17.6589   23.1535 C.ar    1  UNL1        0.0204
      6 C          -5.1058  -18.3796   22.4896 C.ar    1  UNL1        0.0920
      7 C          -6.5130  -17.8949   22.6760 C.ar    1  UNL1        0.1598
      8 F          -7.6486  -18.6156   22.0121 F       1  UNL1       -0.2026
      9 C          -8.1917  -16.2047   23.7130 C.2     1  UNL1        0.2036
     10 O          -8.7048  -15.9031   25.0899 O.2     1  UNL1       -0.2863
     11 C         -12.8748  -17.3588   23.0404 C.2     1  UNL1        0.0716
     12 C         -13.3748  -16.9906   21.6750 C.2     1  UNL1        0.2401
     13 N         -12.4517  -16.3382   20.6889 N.2     1  UNL1       -0.0304
     14 C         -11.0286  -16.0540   21.0683 C.2     1  UNL1        0.3721
     15 N          -9.8949  -15.4259   20.3133 N.2     1  UNL1       -0.0307
     16 C          -8.6941  -15.4059   21.2121 C.2     1  UNL1        0.2390
     17 C          -9.0858  -16.0216   22.5226 C.2     1  UNL1        0.0896
     18 C         -10.5286  -16.4222   22.4337 C.2     1  UNL1        0.0781
     19 C         -11.4517  -17.0746   23.4198 C.3     1  UNL1        0.0731
     20 C         -14.7210  -18.6636   25.0125 C.1     1  UNL1       -0.0094
     21 C         -13.7979  -18.0112   24.0264 C.1     1  UNL1       -0.0514
     22 N          -4.8342  -19.5850   21.6391 N.pl3   1  UNL1       -0.2166
     23 H          -5.2694  -20.4430   21.8481 H       1  UNL1        0.1734
     24 S          -3.8996  -19.4831   20.4703 S.O2    1  UNL1        0.0540
     25 O          -2.8939  -20.3223   21.2013 O.2     1  UNL1       -0.1545
     26 O          -4.9052  -18.6439   19.7393 O.2     1  UNL1       -0.1545
     27 C          -2.9649  -19.3812   19.3014 C.3     1  UNL1        0.1724
     28 C          -2.2913  -18.0774   18.9913 C.3     1  UNL1        0.0273
     29 C          -0.9291  -17.7861   19.5476 C.3     1  UNL1        0.0019
@<TRIPOS>BOND
     1    20    21    3
     2    21    11    1
     3    11    12    2
     4    12    13    1
     5    13    14    2
     6    14    15    1
     7    15    16    2
     8    16    17    1
     9    17     9    1
    10     9    10    2
    11     9     1    1
    12     1     2   ar
    13     2     3    1
    14     2     4   ar
    15     4     5   ar
    16     5     6   ar
    17     6    22    1
    18    22    24    1
    19    24    25    2
    20    24    26    2
    21    24    27    1
    22    27    28    1
    23    28    29    1
    24     6     7   ar
    25     7     8    1
    26    17    18    2
    27    18    19    1
    28    19    11    1
    29    18    14    1
    30     7     1   ar
    31    22    23    1
@<TRIPOS>MOLECULE
*****
 29 31 0 0 0
SMALL
GASTEIGER

@<TRIPOS>ATOM
      1 C          -6.6747  -19.7491   21.6204 C.ar    1  UNL1        0.0951
      2 C          -6.2353  -20.7119   20.5574 C.ar    1  UNL1        0.1454
      3 F          -7.2319  -21.6389   19.9269 F       1  UNL1       -0.2040
      4 C          -4.7995  -20.7478   20.1250 C.ar    1  UNL1        0.0312
      5 C          -3.8029  -19.8208   20.7555 C.ar    1  UNL1        0.0204
      6 C          -4.2423  -18.8580   21.8186 C.ar    1  UNL1        0.0920
      7 C          -5.6781  -18.8221   22.2510 C.ar    1  UNL1        0.1598
      8 F          -6.1174  -17.8593   23.3140 F       1  UNL1       -0.2026
      9 C          -8.1105  -19.7133   22.0529 C.2     1  UNL1        0.2036
     10 O          -8.5225  -20.3635   23.3403 O.2     1  UNL1       -0.2863
     11 C         -12.6255  -18.2061   23.0822 C.2     1  UNL1        0.0716
     12 C         -13.3047  -17.5600   21.9112 C.2     1  UNL1        0.2401
     13 N         -12.5852  -17.4375   20.6007 N.2     1  UNL1       -0.0304
     14 C         -11.1866  -17.9611   20.4612 C.2     1  UNL1        0.3721
     15 N         -10.2334  -17.9817   19.3032 N.2     1  UNL1       -0.0307
     16 C          -8.9650  -18.6406   19.7585 C.2     1  UNL1        0.2390
     17 C          -9.1344  -19.0272   21.1979 C.2     1  UNL1        0.0896
     18 C         -10.5074  -18.6073   21.6322 C.2     1  UNL1        0.0781
     19 C         -11.2269  -18.7298   22.9426 C.3     1  UNL1        0.0731
     20 C         -14.0645  -18.4512   25.7031 C.1     1  UNL1       -0.0094
     21 C         -13.3450  -18.3286   24.3926 C.1     1  UNL1       -0.0514
     22 N          -3.2457  -17.9310   22.4491 N.pl3   1  UNL1       -0.2166
     23 H          -3.3528  -17.6588   23.3891 H       1  UNL1        0.1734
     24 S          -2.0860  -17.4188   21.6474 S.O2    1  UNL1        0.0540
     25 O          -1.3354  -18.6880   21.9220 O.2     1  UNL1       -0.1545
     26 O          -2.8366  -16.1495   21.3727 O.2     1  UNL1       -0.1545
     27 C          -0.9263  -16.9065   20.8456 C.3     1  UNL1        0.1724
     28 C          -0.5872  -17.5394   19.5287 C.3     1  UNL1        0.0273
     29 C          -1.6780  -17.8783   18.5565 C.3     1  UNL1        0.0019
@<TRIPOS>BOND
     1    20    21    3
     2    21    11    1
     3    11    12    2
     4    12    13    1
     5    13    14    2
     6    14    15    1
     7    15    16    2
     8    16    17    1
     9    17     9    1
    10     9    10    2
    11     9     1    1
    12     1     2   ar
    13     2     3    1
    14     2     4   ar
    15     4     5   ar
    16     5     6   ar
    17     6    22    1
    18    22    24    1
    19    24    25    2
    20    24    26    2
    21    24    27    1
    22    27    28    1
    23    28    29    1
    24     6     7   ar
    25     7     8    1
    26    17    18    2
    27    18    19    1
    28    19    11    1
    29    18    14    1
    30     7     1   ar
    31    22    23    1
@<TRIPOS>MOLECULE
*****
 29 31 0 0 0
SMALL
GASTEIGER

@<TRIPOS>ATOM
      1 C          -6.1313  -15.7749   24.2955 C.ar    1  UNL1        0.0951
      2 C          -5.9043  -15.7480   25.7780 C.ar    1  UNL1        0.1454
      3 F          -4.5079  -15.7939   26.3238 F       1  UNL1       -0.2040
      4 C          -7.0737  -15.6751   26.7146 C.ar    1  UNL1        0.0312
      5 C          -8.4701  -15.6293   26.1688 C.ar    1  UNL1        0.0204
      6 C          -8.6971  -15.6562   24.6863 C.ar    1  UNL1        0.0920
      7 C          -7.5278  -15.7290   23.7496 C.ar    1  UNL1        0.1598
      8 F          -7.7549  -15.7560   22.2672 F       1  UNL1       -0.2026
      9 C          -4.9620  -15.8478   23.3589 C.2     1  UNL1        0.2036
     10 O          -4.3436  -14.5869   22.8318 O.2     1  UNL1       -0.2863
     11 C          -6.9527  -19.4536   20.7604 C.2     1  UNL1        0.0716
     12 C          -6.0312  -20.6245   20.5884 C.2     1  UNL1        0.2401
     13 N          -4.6582  -20.5935   21.1917 N.2     1  UNL1       -0.0304
     14 C          -4.2067  -19.3915   21.9670 C.2     1  UNL1        0.3721
     15 N          -2.9202  -19.0762   22.6708 N.2     1  UNL1       -0.0307
     16 C          -3.0465  -17.7103   23.2779 C.2     1  UNL1        0.2390
     17 C          -4.4111  -17.1814   22.9493 C.2     1  UNL1        0.0896
     18 C          -5.1282  -18.2205   22.1391 C.2     1  UNL1        0.0781
     19 C          -6.5012  -18.2515   21.5358 C.3     1  UNL1        0.0731
     20 C          -9.6986  -19.5156   19.5539 C.1     1  UNL1       -0.0094
     21 C          -8.3257  -19.4846   20.1572 C.1     1  UNL1       -0.0514
     22 N         -10.0935  -15.6103   24.1405 N.pl3   1  UNL1       -0.2166
     23 H         -10.6591  -14.8206   24.3011 H       1  UNL1        0.1734
     24 S         -10.6282  -16.7675   23.3500 S.O2    1  UNL1        0.0540
     25 O         -10.9845  -15.8371   22.2288 O.2     1  UNL1       -0.1545
     26 O         -10.2720  -17.6981   24.4713 O.2     1  UNL1       -0.1545
     27 C         -11.1630  -17.9249   22.5596 C.3     1  UNL1        0.1724
     28 C         -12.6437  -18.1040   22.4004 C.3     1  UNL1        0.0273
     29 C         -13.5539  -17.9043   23.5758 C.3     1  UNL1        0.0019
@<TRIPOS>BOND
     1    20    21    3
     2    21    11    1
     3    11    12    2
     4    12    13    1
     5    13    14    2
     6    14    15    1
     7    15    16    2
     8    16    17    1
     9    17     9    1
    10     9    10    2
    11     9     1    1
    12     1     2   ar
    13     2     3    1
    14     2     4   ar
    15     4     5   ar
    16     5     6   ar
    17     6    22    1
    18    22    24    1
    19    24    25    2
    20    24    26    2
    21    24    27    1
    22    27    28    1
    23    28    29    1
    24     6     7   ar
    25     7     8    1
    26    17    18    2
    27    18    19    1
    28    19    11    1
    29    18    14    1
    30     7     1   ar
    31    22    23    1
@<TRIPOS>MOLECULE
*****
 29 31 0 0 0
SMALL
GASTEIGER

@<TRIPOS>ATOM
      1 C          -5.9745  -18.8186   22.1236 C.ar    1  UNL1        0.0951
      2 C          -4.6235  -19.4508   21.9657 C.ar    1  UNL1        0.1454
      3 F          -4.4883  -20.7630   21.2515 F       1  UNL1       -0.2040
      4 C          -3.4076  -18.7710   22.5219 C.ar    1  UNL1        0.0312
      5 C          -3.5427  -17.4588   23.2361 C.ar    1  UNL1        0.0204
      6 C          -4.8938  -16.8266   23.3940 C.ar    1  UNL1        0.0920
      7 C          -6.1097  -17.5065   22.8378 C.ar    1  UNL1        0.1598
      8 F          -7.4607  -16.8742   22.9957 F       1  UNL1       -0.2026
      9 C          -7.1904  -19.4985   21.5673 C.2     1  UNL1        0.2036
     10 O          -7.1621  -20.0692   20.1804 O.2     1  UNL1       -0.2863
     11 C         -11.5246  -17.3254   21.1113 C.2     1  UNL1        0.0716
     12 C         -12.4950  -17.7317   22.1805 C.2     1  UNL1        0.2401
     13 N         -12.0796  -18.7120   23.2371 N.2     1  UNL1       -0.0304
     14 C         -10.6938  -19.2860   23.2245 C.2     1  UNL1        0.3721
     15 N         -10.0047  -20.2651   24.1280 N.2     1  UNL1       -0.0307
     16 C          -8.6084  -20.4638   23.6173 C.2     1  UNL1        0.2390
     17 C          -8.4346  -19.6076   22.3980 C.2     1  UNL1        0.0896
     18 C          -9.7235  -18.8797   22.1552 C.2     1  UNL1        0.0781
     19 C         -10.1389  -17.8994   21.0987 C.3     1  UNL1        0.0731
     20 C         -12.3554  -15.3647   18.9981 C.1     1  UNL1       -0.0094
     21 C         -11.9400  -16.3450   20.0547 C.1     1  UNL1       -0.0514
     22 N          -5.0290  -15.5145   24.1082 N.pl3   1  UNL1       -0.2166
     23 H          -4.6255  -14.7020   23.7257 H       1  UNL1        0.1734
     24 S          -5.7788  -15.4403   25.4052 S.O2    1  UNL1        0.0540
     25 O          -4.7418  -16.3079   26.0545 O.2     1  UNL1       -0.1545
     26 O          -6.8159  -14.5726   24.7559 O.2     1  UNL1       -0.1545
     27 C          -6.5288  -15.3660   26.7022 C.3     1  UNL1        0.1724
     28 C          -8.0146  -15.5706   26.7221 C.3     1  UNL1        0.0273
     29 C          -8.5951  -16.7902   27.3745 C.3     1  UNL1        0.0019
@<TRIPOS>BOND
     1    20    21    3
     2    21    11    1
     3    11    12    2
     4    12    13    1
     5    13    14    2
     6    14    15    1
     7    15    16    2
     8    16    17    1
     9    17     9    1
    10     9    10    2
    11     9     1    1
    12     1     2   ar
    13     2     3    1
    14     2     4   ar
    15     4     5   ar
    16     5     6   ar
    17     6    22    1
    18    22    24    1
    19    24    25    2
    20    24    26    2
    21    24    27    1
    22    27    28    1
    23    28    29    1
    24     6     7   ar
    25     7     8    1
    26    17    18    2
    27    18    19    1
    28    19    11    1
    29    18    14    1
    30     7     1   ar
    31    22    23    1
@<TRIPOS>MOLECULE
*****
 29 31 0 0 0
SMALL
GASTEIGER

@<TRIPOS>ATOM
      1 C          -6.7776  -17.6512   22.9935 C.ar    1  UNL1        0.0951
      2 C          -7.1022  -18.9978   22.4181 C.ar    1  UNL1        0.1454
      3 F          -8.5328  -19.4152   22.2471 F       1  UNL1       -0.2040
      4 C          -5.9964  -19.9270   22.0136 C.ar    1  UNL1        0.0312
      5 C          -4.5658  -19.5096   22.1845 C.ar    1  UNL1        0.0204
      6 C          -4.2412  -18.1628   22.7600 C.ar    1  UNL1        0.0920
      7 C          -5.3471  -17.2337   23.1645 C.ar    1  UNL1        0.1598
      8 F          -5.0224  -15.8870   23.7400 F       1  UNL1       -0.2026
      9 C          -7.8835  -16.7220   23.3980 C.2     1  UNL1        0.2036
     10 O          -7.9765  -16.2387   24.8150 O.2     1  UNL1       -0.2863
     11 C         -12.7165  -17.3046   23.2586 C.2     1  UNL1        0.0716
     12 C         -13.3423  -16.6881   22.0428 C.2     1  UNL1        0.2401
     13 N         -12.4847  -15.9864   21.0319 N.2     1  UNL1       -0.0304
     14 C         -11.0012  -15.9011   21.2367 C.2     1  UNL1        0.3721
     15 N          -9.9091  -15.2785   20.4183 N.2     1  UNL1       -0.0307
     16 C          -8.6083  -15.5102   21.1284 C.2     1  UNL1        0.2390
     17 C          -8.8964  -16.2760   22.3856 C.2     1  UNL1        0.0896
     18 C         -10.3754  -16.5176   22.4525 C.2     1  UNL1        0.0781
     19 C         -11.2330  -17.2194   23.4634 C.3     1  UNL1        0.0731
     20 C         -14.4317  -18.7080   25.2806 C.1     1  UNL1       -0.0094
     21 C         -13.5741  -18.0063   24.2696 C.1     1  UNL1       -0.0514
     22 N          -2.8106  -17.7454   22.9310 N.pl3   1  UNL1       -0.2166
     23 H          -2.4311  -17.6470   23.8341 H       1  UNL1        0.1734
     24 S          -1.9583  -17.4779   21.7261 S.O2    1  UNL1        0.0540
     25 O          -2.5657  -16.1123   21.5995 O.2     1  UNL1       -0.1545
     26 O          -1.3508  -18.8435   21.8526 O.2     1  UNL1       -0.1545
     27 C          -1.1058  -17.2104   20.5211 C.3     1  UNL1        0.1724
     28 C          -1.4555  -17.8332   19.2020 C.3     1  UNL1        0.0273
     29 C          -2.8461  -18.3390   18.9565 C.3     1  UNL1        0.0019
@<TRIPOS>BOND
     1    20    21    3
     2    21    11    1
     3    11    12    2
     4    12    13    1
     5    13    14    2
     6    14    15    1
     7    15    16    2
     8    16    17    1
     9    17     9    1
    10     9    10    2
    11     9     1    1
    12     1     2   ar
    13     2     3    1
    14     2     4   ar
    15     4     5   ar
    16     5     6   ar
    17     6    22    1
    18    22    24    1
    19    24    25    2
    20    24    26    2
    21    24    27    1
    22    27    28    1
    23    28    29    1
    24     6     7   ar
    25     7     8    1
    26    17    18    2
    27    18    19    1
    28    19    11    1
    29    18    14    1
    30     7     1   ar
    31    22    23    1
@<TRIPOS>MOLECULE
*****
 29 31 0 0 0
SMALL
GASTEIGER

@<TRIPOS>ATOM
      1 C         -10.0497  -18.0644   22.1554 C.ar    1  UNL1        0.0951
      2 C         -10.5259  -19.1958   23.0173 C.ar    1  UNL1        0.1454
      3 F         -11.0150  -20.4654   22.3856 F       1  UNL1       -0.2040
      4 C         -10.5130  -19.0579   24.5108 C.ar    1  UNL1        0.0312
      5 C         -10.0238  -17.7883   25.1426 C.ar    1  UNL1        0.0204
      6 C          -9.5476  -16.6568   24.2806 C.ar    1  UNL1        0.0920
      7 C          -9.5605  -16.7948   22.7870 C.ar    1  UNL1        0.1598
      8 F          -9.0843  -15.6633   21.9251 F       1  UNL1       -0.2026
      9 C         -10.0626  -18.2024   20.6618 C.2     1  UNL1        0.2036
     10 O         -10.9351  -17.3066   19.8333 O.2     1  UNL1       -0.2863
     11 C          -5.3808  -19.3624   21.3337 C.2     1  UNL1        0.0716
     12 C          -4.9227  -20.4757   20.4390 C.2     1  UNL1        0.2401
     13 N          -5.8816  -21.1027   19.4708 N.2     1  UNL1       -0.0304
     14 C          -7.2987  -20.6164   19.3974 C.2     1  UNL1        0.3721
     15 N          -8.4618  -21.0376   18.5490 N.2     1  UNL1       -0.0307
     16 C          -9.6387  -20.1846   18.9193 C.2     1  UNL1        0.2390
     17 C          -9.2030  -19.2361   19.9967 C.2     1  UNL1        0.0896
     18 C          -7.7568  -19.5030   20.2921 C.2     1  UNL1        0.0781
     19 C          -6.7979  -18.8760   21.2602 C.3     1  UNL1        0.0731
     20 C          -3.4630  -18.1084   23.2700 C.1     1  UNL1       -0.0094
     21 C          -4.4219  -18.7354   22.3019 C.1     1  UNL1       -0.0514
     22 N          -9.0585  -15.3873   24.9123 N.pl3   1  UNL1       -0.2166
     23 H          -9.5584  -14.5490   24.7836 H       1  UNL1        0.1734
     24 S          -7.8076  -15.3950   25.7401 S.O2    1  UNL1        0.0540
     25 O          -6.9841  -15.5371   24.4945 O.2     1  UNL1       -0.1545
     26 O          -8.6311  -15.2528   26.9857 O.2     1  UNL1       -0.1545
     27 C          -6.5567  -15.4027   26.5680 C.3     1  UNL1        0.1724
     28 C          -5.2308  -15.6734   25.9209 C.3     1  UNL1        0.0273
     29 C          -4.3817  -16.8136   26.3994 C.3     1  UNL1        0.0019
@<TRIPOS>BOND
     1    20    21    3
     2    21    11    1
     3    11    12    2
     4    12    13    1
     5    13    14    2
     6    14    15    1
     7    15    16    2
     8    16    17    1
     9    17     9    1
    10     9    10    2
    11     9     1    1
    12     1     2   ar
    13     2     3    1
    14     2     4   ar
    15     4     5   ar
    16     5     6   ar
    17     6    22    1
    18    22    24    1
    19    24    25    2
    20    24    26    2
    21    24    27    1
    22    27    28    1
    23    28    29    1
    24     6     7   ar
    25     7     8    1
    26    17    18    2
    27    18    19    1
    28    19    11    1
    29    18    14    1
    30     7     1   ar
    31    22    23    1
@<TRIPOS>MOLECULE
*****
 29 31 0 0 0
SMALL
GASTEIGER

@<TRIPOS>ATOM
      1 C          -8.9244  -18.6279   20.7225 C.ar    1  UNL1        0.0951
      2 C          -9.6191  -19.2363   19.5405 C.ar    1  UNL1        0.1454
      3 F         -11.0298  -18.8433   19.2157 F       1  UNL1       -0.2040
      4 C          -8.9033  -20.2377   18.6833 C.ar    1  UNL1        0.0312
      5 C          -7.4926  -20.6307   19.0081 C.ar    1  UNL1        0.0204
      6 C          -6.7978  -20.0223   20.1902 C.ar    1  UNL1        0.0920
      7 C          -7.5137  -19.0209   21.0474 C.ar    1  UNL1        0.1598
      8 F          -6.8188  -18.4125   22.2294 F       1  UNL1       -0.2026
      9 C          -9.6402  -17.6265   21.5797 C.2     1  UNL1        0.2036
     10 O         -10.0119  -16.2868   21.0166 O.2     1  UNL1       -0.2863
     11 C          -7.5656  -16.2653   25.7700 C.2     1  UNL1        0.0716
     12 C          -8.2458  -16.8486   26.9729 C.2     1  UNL1        0.2401
     13 N          -9.4345  -17.7471   26.8002 N.2     1  UNL1       -0.0304
     14 C          -9.9429  -18.0622   25.4247 C.2     1  UNL1        0.3721
     15 N         -11.0850  -18.9087   24.9462 N.2     1  UNL1       -0.0307
     16 C         -11.1107  -18.8486   23.4477 C.2     1  UNL1        0.2390
     17 C          -9.9844  -17.9648   22.9999 C.2     1  UNL1        0.0896
     18 C          -9.2627  -17.4788   24.2218 C.2     1  UNL1        0.0781
     19 C          -8.0740  -16.5803   24.3945 C.3     1  UNL1        0.0731
     20 C          -5.1882  -14.4684   26.1154 C.1     1  UNL1       -0.0094
     21 C          -6.3769  -15.3668   25.9427 C.1     1  UNL1       -0.0514
     22 N          -5.3871  -20.4153   20.5150 N.pl3   1  UNL1       -0.2166
     23 H          -5.1108  -21.3578   20.4478 H       1  UNL1        0.1734
     24 S          -4.3974  -19.3723   20.9423 S.O2    1  UNL1        0.0540
     25 O          -4.5483  -18.6861   19.6171 O.2     1  UNL1       -0.1545
     26 O          -4.2464  -20.0584   22.2675 O.2     1  UNL1       -0.1545
     27 C          -3.4076  -18.3293   21.3696 C.3     1  UNL1        0.1724
     28 C          -3.2844  -17.9614   22.8186 C.3     1  UNL1        0.0273
     29 C          -4.1566  -16.8865   23.3963 C.3     1  UNL1        0.0019
@<TRIPOS>BOND
     1    20    21    3
     2    21    11    1
     3    11    12    2
     4    12    13    1
     5    13    14    2
     6    14    15    1
     7    15    16    2
     8    16    17    1
     9    17     9    1
    10     9    10    2
    11     9     1    1
    12     1     2   ar
    13     2     3    1
    14     2     4   ar
    15     4     5   ar
    16     5     6   ar
    17     6    22    1
    18    22    24    1
    19    24    25    2
    20    24    26    2
    21    24    27    1
    22    27    28    1
    23    28    29    1
    24     6     7   ar
    25     7     8    1
    26    17    18    2
    27    18    19    1
    28    19    11    1
    29    18    14    1
    30     7     1   ar
    31    22    23    1
