@<TRIPOS>MOLECULE
*****
 27 30 0 0 0
SMALL
GASTEIGER

@<TRIPOS>ATOM
      1 C          -6.0050  -19.2674   21.6771 C.ar    1  UNL1        0.0143
      2 C          -7.4732  -19.5672   21.7446 C.ar    1  UNL1        0.0970
      3 N          -8.1187  -18.5292   22.6139 N.ar    1  UNL1       -0.2080
      4 C          -7.0496  -17.5878   23.0837 C.ar    1  UNL1        0.0823
      5 C          -7.0968  -16.3742   23.9639 C.ar    1  UNL1        0.0189
      6 C          -5.8377  -15.6167   24.2651 C.ar    1  UNL1        0.0015
      7 C          -4.5313  -16.0729   23.6861 C.ar    1  UNL1        0.0001
      8 C          -4.4840  -17.2866   22.8059 C.ar    1  UNL1        0.0013
      9 C          -5.7432  -18.0440   22.5048 C.ar    1  UNL1        0.0163
     10 S          -9.5774  -18.4470   22.9538 S.O2    1  UNL1        0.0860
     11 O          -9.7665  -17.4060   21.8906 O.2     1  UNL1       -0.1476
     12 O          -9.3884  -19.4880   24.0171 O.2     1  UNL1       -0.1476
     13 C         -11.0361  -18.3648   23.2938 C.ar    1  UNL1        0.1278
     14 C         -12.0086  -17.8089   22.2962 C.ar    1  UNL1        0.0227
     15 C         -13.4672  -17.7268   22.6362 C.ar    1  UNL1        0.0310
     16 C         -13.9534  -18.2005   23.9739 C.ar    1  UNL1        0.1402
     17 F         -15.4120  -18.1184   24.3138 F       1  UNL1       -0.2042
     18 C         -12.9809  -18.7564   24.9714 C.ar    1  UNL1        0.0310
     19 C         -11.5222  -18.8385   24.6314 C.ar    1  UNL1        0.0227
     20 C          -4.9788  -20.0529   20.9157 C.3     1  UNL1        0.1008
     21 C           0.4511  -17.7086   19.9055 C.3     1  UNL1        0.0897
     22 N          -0.9063  -18.2946   20.1581 N.3     1  UNL1       -0.2691
     23 C          -1.1496  -19.1219   21.3854 C.3     1  UNL1        0.0897
     24 C          -2.5070  -19.7080   21.6380 C.3     1  UNL1        0.0899
     25 N          -3.6212  -19.4668   20.6632 N.3     1  UNL1       -0.2665
     26 C          -3.3780  -18.6395   19.4358 C.3     1  UNL1        0.0899
     27 C          -2.0206  -18.0534   19.1832 C.3     1  UNL1        0.0897
@<TRIPOS>BOND
     1    21    22    1
     2    22    23    1
     3    23    24    1
     4    24    25    1
     5    25    20    1
     6    20     1    1
     7     1     2   ar
     8     2     3   ar
     9     3    10    1
    10    10    11    2
    11    10    12    2
    12    10    13    1
    13    13    14   ar
    14    14    15   ar
    15    15    16   ar
    16    16    17    1
    17    16    18   ar
    18    18    19   ar
    19     3     4   ar
    20     4     5   ar
    21     5     6   ar
    22     6     7   ar
    23     7     8   ar
    24     8     9   ar
    25    25    26    1
    26    26    27    1
    27    27    22    1
    28     9     1   ar
    29    19    13   ar
    30     9     4   ar
@<TRIPOS>MOLECULE
*****
 27 30 0 0 0
SMALL
GASTEIGER

@<TRIPOS>ATOM
      1 C         -13.6779   -6.8938   18.7133 C.ar    1  UNL1        0.0143
      2 C         -14.5122   -5.6482   18.7635 C.ar    1  UNL1        0.0970
      3 N         -13.5858   -4.4743   18.8802 N.ar    1  UNL1       -0.2080
      4 C         -12.1790   -4.9942   18.9021 C.ar    1  UNL1        0.0823
      5 C         -10.8535   -4.2993   19.0026 C.ar    1  UNL1        0.0189
      6 C          -9.5850   -5.0997   18.9999 C.ar    1  UNL1        0.0015
      7 C          -9.6419   -6.5951   18.8968 C.ar    1  UNL1        0.0001
      8 C         -10.9674   -7.2900   18.7962 C.ar    1  UNL1        0.0013
      9 C         -12.2359   -6.4896   18.7989 C.ar    1  UNL1        0.0163
     10 S         -13.9945   -3.0332   18.9608 S.O2    1  UNL1        0.0860
     11 O         -13.8047   -3.0626   20.4484 O.2     1  UNL1       -0.1476
     12 O         -14.1843   -3.0038   17.4732 O.2     1  UNL1       -0.1476
     13 C         -14.4032   -1.5922   19.0414 C.ar    1  UNL1        0.1278
     14 C         -15.6544   -1.2072   19.7737 C.ar    1  UNL1        0.0227
     15 C         -16.0630    0.2337   19.8542 C.ar    1  UNL1        0.0310
     16 C         -15.2204    1.2899   19.2024 C.ar    1  UNL1        0.1402
     17 F         -15.6291    2.7308   19.2830 F       1  UNL1       -0.2042
     18 C         -13.9692    0.9049   18.4701 C.ar    1  UNL1        0.0310
     19 C         -13.5606   -0.5362   18.3896 C.ar    1  UNL1        0.0227
     20 C         -14.1948   -8.2971   18.5977 C.3     1  UNL1        0.1008
     21 C         -20.1041   -9.3067   18.3510 C.3     1  UNL1        0.0897
     22 N         -18.6268   -9.0543   18.4126 N.3     1  UNL1       -0.2691
     23 C         -17.8905   -9.2233   19.7085 C.3     1  UNL1        0.0897
     24 C         -16.4133   -8.9710   19.7702 C.3     1  UNL1        0.0899
     25 N         -15.6722   -8.5495   18.5360 N.3     1  UNL1       -0.2665
     26 C         -16.4085   -8.3805   17.2401 C.3     1  UNL1        0.0899
     27 C         -17.8858   -8.6329   17.1784 C.3     1  UNL1        0.0897
@<TRIPOS>BOND
     1    21    22    1
     2    22    23    1
     3    23    24    1
     4    24    25    1
     5    25    20    1
     6    20     1    1
     7     1     2   ar
     8     2     3   ar
     9     3    10    1
    10    10    11    2
    11    10    12    2
    12    10    13    1
    13    13    14   ar
    14    14    15   ar
    15    15    16   ar
    16    16    17    1
    17    16    18   ar
    18    18    19   ar
    19     3     4   ar
    20     4     5   ar
    21     5     6   ar
    22     6     7   ar
    23     7     8   ar
    24     8     9   ar
    25    25    26    1
    26    26    27    1
    27    27    22    1
    28     9     1   ar
    29    19    13   ar
    30     9     4   ar
@<TRIPOS>MOLECULE
*****
 27 30 0 0 0
SMALL
GASTEIGER

@<TRIPOS>ATOM
      1 C          -5.4053  -16.4669   24.1874 C.ar    1  UNL1        0.0143
      2 C          -6.4956  -16.9568   23.2812 C.ar    1  UNL1        0.0970
      3 N          -7.8120  -16.6450   23.9292 N.ar    1  UNL1       -0.2080
      4 C          -7.5353  -15.9624   25.2360 C.ar    1  UNL1        0.0823
      5 C          -8.4455  -15.4269   26.3011 C.ar    1  UNL1        0.0189
      6 C          -7.8684  -14.7813   27.5258 C.ar    1  UNL1        0.0015
      7 C          -6.3810  -14.6712   27.6854 C.ar    1  UNL1        0.0001
      8 C          -5.4707  -15.2067   26.6203 C.ar    1  UNL1        0.0013
      9 C          -6.0479  -15.8523   25.3955 C.ar    1  UNL1        0.0163
     10 S          -9.1672  -16.9605   23.3689 S.O2    1  UNL1        0.0860
     11 O          -8.9422  -15.9687   22.2665 O.2     1  UNL1       -0.1476
     12 O          -9.3921  -17.9524   24.4714 O.2     1  UNL1       -0.1476
     13 C         -10.5224  -17.2760   22.8087 C.ar    1  UNL1        0.1278
     14 C         -10.8007  -17.0583   21.3509 C.ar    1  UNL1        0.0227
     15 C         -12.1558  -17.3738   20.7907 C.ar    1  UNL1        0.0310
     16 C         -13.2329  -17.9071   21.6884 C.ar    1  UNL1        0.1402
     17 F         -14.5880  -18.2225   21.1281 F       1  UNL1       -0.2042
     18 C         -12.9546  -18.1248   23.1461 C.ar    1  UNL1        0.0310
     19 C         -11.5994  -17.8092   23.7063 C.ar    1  UNL1        0.0227
     20 C          -3.9313  -16.5729   23.9307 C.3     1  UNL1        0.1008
     21 C          -1.9426  -18.3616   18.5599 C.3     1  UNL1        0.0897
     22 N          -2.4398  -17.9145   19.9026 N.3     1  UNL1       -0.2691
     23 C          -1.9065  -16.6550   20.5184 C.3     1  UNL1        0.0897
     24 C          -2.4036  -16.2078   21.8611 C.3     1  UNL1        0.0899
     25 N          -3.4341  -17.0201   22.5879 N.3     1  UNL1       -0.2665
     26 C          -3.9674  -18.2795   21.9720 C.3     1  UNL1        0.0899
     27 C          -3.4703  -18.7268   20.6294 C.3     1  UNL1        0.0897
@<TRIPOS>BOND
     1    21    22    1
     2    22    23    1
     3    23    24    1
     4    24    25    1
     5    25    20    1
     6    20     1    1
     7     1     2   ar
     8     2     3   ar
     9     3    10    1
    10    10    11    2
    11    10    12    2
    12    10    13    1
    13    13    14   ar
    14    14    15   ar
    15    15    16   ar
    16    16    17    1
    17    16    18   ar
    18    18    19   ar
    19     3     4   ar
    20     4     5   ar
    21     5     6   ar
    22     6     7   ar
    23     7     8   ar
    24     8     9   ar
    25    25    26    1
    26    26    27    1
    27    27    22    1
    28     9     1   ar
    29    19    13   ar
    30     9     4   ar
@<TRIPOS>MOLECULE
*****
 27 30 0 0 0
SMALL
GASTEIGER

@<TRIPOS>ATOM
      1 C          -8.4467  -17.0499   24.0481 C.ar    1  UNL1        0.0143
      2 C          -7.4094  -17.4719   23.0501 C.ar    1  UNL1        0.0970
      3 N          -6.0739  -16.9967   23.5407 N.ar    1  UNL1       -0.2080
      4 C          -6.2858  -16.2811   24.8419 C.ar    1  UNL1        0.0823
      5 C          -5.3329  -15.6037   25.7816 C.ar    1  UNL1        0.0189
      6 C          -5.8465  -14.9593   27.0349 C.ar    1  UNL1        0.0015
      7 C          -7.3130  -14.9922   27.3485 C.ar    1  UNL1        0.0001
      8 C          -8.2659  -15.6695   26.4087 C.ar    1  UNL1        0.0013
      9 C          -7.7523  -16.3140   25.1554 C.ar    1  UNL1        0.0163
     10 S          -4.7575  -17.2013   22.8512 S.O2    1  UNL1        0.0860
     11 O          -4.4486  -15.7419   23.0080 O.2     1  UNL1       -0.1476
     12 O          -5.0664  -18.6607   22.6944 O.2     1  UNL1       -0.1476
     13 C          -3.4412  -17.4059   22.1617 C.ar    1  UNL1        0.1278
     14 C          -2.5554  -16.2305   21.8720 C.ar    1  UNL1        0.0227
     15 C          -1.2392  -16.4352   21.1826 C.ar    1  UNL1        0.0310
     16 C          -0.8085  -17.8153   20.7828 C.ar    1  UNL1        0.1402
     17 F           0.5078  -18.0199   20.0933 F       1  UNL1       -0.2042
     18 C          -1.6942  -18.9907   21.0724 C.ar    1  UNL1        0.0310
     19 C          -3.0106  -18.7860   21.7619 C.ar    1  UNL1        0.0227
     20 C          -9.9198  -17.3170   23.9550 C.3     1  UNL1        0.1008
     21 C         -12.9417  -15.7742   19.0065 C.3     1  UNL1        0.0897
     22 N         -12.1862  -16.1599   20.2436 N.3     1  UNL1       -0.2691
     23 C         -12.8030  -17.0998   21.2366 C.3     1  UNL1        0.0897
     24 C         -12.0476  -17.4855   22.4737 C.3     1  UNL1        0.0899
     25 N         -10.6753  -16.9313   22.7178 N.3     1  UNL1       -0.2665
     26 C         -10.0585  -15.9914   21.7248 C.3     1  UNL1        0.0899
     27 C         -10.8139  -15.6057   20.4877 C.3     1  UNL1        0.0897
@<TRIPOS>BOND
     1    21    22    1
     2    22    23    1
     3    23    24    1
     4    24    25    1
     5    25    20    1
     6    20     1    1
     7     1     2   ar
     8     2     3   ar
     9     3    10    1
    10    10    11    2
    11    10    12    2
    12    10    13    1
    13    13    14   ar
    14    14    15   ar
    15    15    16   ar
    16    16    17    1
    17    16    18   ar
    18    18    19   ar
    19     3     4   ar
    20     4     5   ar
    21     5     6   ar
    22     6     7   ar
    23     7     8   ar
    24     8     9   ar
    25    25    26    1
    26    26    27    1
    27    27    22    1
    28     9     1   ar
    29    19    13   ar
    30     9     4   ar
@<TRIPOS>MOLECULE
*****
 27 30 0 0 0
SMALL
GASTEIGER

@<TRIPOS>ATOM
      1 C          -5.4858  -17.7079   22.9475 C.ar    1  UNL1        0.0143
      2 C          -6.8251  -17.3540   23.5227 C.ar    1  UNL1        0.0970
      3 N          -7.8606  -18.1966   22.8387 N.ar    1  UNL1       -0.2080
      4 C          -7.1612  -19.0712   21.8407 C.ar    1  UNL1        0.0823
      5 C          -7.6713  -20.1035   20.8795 C.ar    1  UNL1        0.0189
      6 C          -6.7136  -20.8339   19.9855 C.ar    1  UNL1        0.0015
      7 C          -5.2458  -20.5319   20.0527 C.ar    1  UNL1        0.0001
      8 C          -4.7358  -19.4995   21.0139 C.ar    1  UNL1        0.0013
      9 C          -5.6935  -18.7692   21.9079 C.ar    1  UNL1        0.0163
     10 S          -9.3364  -18.1693   23.1058 S.O2    1  UNL1        0.0860
     11 O          -9.4696  -16.9480   22.2453 O.2     1  UNL1       -0.1476
     12 O          -9.2032  -19.3907   23.9663 O.2     1  UNL1       -0.1476
     13 C         -10.8122  -18.1421   23.3729 C.ar    1  UNL1        0.1278
     14 C         -11.7335  -17.4357   22.4231 C.ar    1  UNL1        0.0227
     15 C         -13.2092  -17.4086   22.6903 C.ar    1  UNL1        0.0310
     16 C         -13.7637  -18.0879   23.9073 C.ar    1  UNL1        0.1402
     17 F         -15.2394  -18.0607   24.1744 F       1  UNL1       -0.2042
     18 C         -12.8424  -18.7943   24.8572 C.ar    1  UNL1        0.0310
     19 C         -11.3666  -18.8214   24.5899 C.ar    1  UNL1        0.0227
     20 C          -4.1697  -17.1062   23.3424 C.3     1  UNL1        0.1008
     21 C           0.6175  -17.7638   19.7856 C.3     1  UNL1        0.0897
     22 N          -0.5793  -17.5995   20.6748 N.3     1  UNL1       -0.2691
     23 C          -1.2331  -16.2564   20.8117 C.3     1  UNL1        0.0897
     24 C          -2.4299  -16.0919   21.7008 C.3     1  UNL1        0.0899
     25 N          -2.9728  -17.2706   22.4531 N.3     1  UNL1       -0.2665
     26 C          -2.3190  -18.6137   22.3162 C.3     1  UNL1        0.0899
     27 C          -1.1223  -18.7781   21.4271 C.3     1  UNL1        0.0897
@<TRIPOS>BOND
     1    21    22    1
     2    22    23    1
     3    23    24    1
     4    24    25    1
     5    25    20    1
     6    20     1    1
     7     1     2   ar
     8     2     3   ar
     9     3    10    1
    10    10    11    2
    11    10    12    2
    12    10    13    1
    13    13    14   ar
    14    14    15   ar
    15    15    16   ar
    16    16    17    1
    17    16    18   ar
    18    18    19   ar
    19     3     4   ar
    20     4     5   ar
    21     5     6   ar
    22     6     7   ar
    23     7     8   ar
    24     8     9   ar
    25    25    26    1
    26    26    27    1
    27    27    22    1
    28     9     1   ar
    29    19    13   ar
    30     9     4   ar
@<TRIPOS>MOLECULE
*****
 27 30 0 0 0
SMALL
GASTEIGER

@<TRIPOS>ATOM
      1 C         -17.3622   -6.4172   19.2871 C.ar    1  UNL1        0.0143
      2 C         -16.1550   -5.5669   19.0234 C.ar    1  UNL1        0.0970
      3 N         -15.0483   -6.4653   18.5562 N.ar    1  UNL1       -0.2080
      4 C         -15.5716   -7.8709   18.5312 C.ar    1  UNL1        0.0823
      5 C         -14.9307   -9.1739   18.1555 C.ar    1  UNL1        0.0189
      6 C         -15.7198  -10.4473   18.2316 C.ar    1  UNL1        0.0015
      7 C         -17.1499  -10.4176   18.6833 C.ar    1  UNL1        0.0001
      8 C         -17.7908   -9.1145   19.0590 C.ar    1  UNL1        0.0013
      9 C         -17.0017   -7.8412   18.9830 C.ar    1  UNL1        0.0163
     10 S         -13.6618   -6.0340   18.1800 S.O2    1  UNL1        0.0860
     11 O         -13.2332   -6.1633   19.6116 O.2     1  UNL1       -0.1476
     12 O         -14.0905   -5.9046   16.7484 O.2     1  UNL1       -0.1476
     13 C         -12.2753   -5.6026   17.8038 C.ar    1  UNL1        0.1278
     14 C         -11.8901   -5.4933   16.3582 C.ar    1  UNL1        0.0227
     15 C         -10.5037   -5.0619   15.9821 C.ar    1  UNL1        0.0310
     16 C          -9.5023   -4.7398   17.0515 C.ar    1  UNL1        0.1402
     17 F          -8.1159   -4.3084   16.6752 F       1  UNL1       -0.2042
     18 C          -9.8875   -4.8490   18.4970 C.ar    1  UNL1        0.0310
     19 C         -11.2740   -5.2804   18.8732 C.ar    1  UNL1        0.0227
     20 C         -18.6958   -5.9293   19.7702 C.3     1  UNL1        0.1008
     21 C         -20.4109   -0.2891   18.6539 C.3     1  UNL1        0.0897
     22 N         -19.9821   -1.6991   18.9330 N.3     1  UNL1       -0.2691
     23 C         -19.1428   -2.0032   20.1384 C.3     1  UNL1        0.0897
     24 C         -18.7140   -3.4132   20.4175 C.3     1  UNL1        0.0899
     25 N         -19.1246   -4.5192   19.4911 N.3     1  UNL1       -0.2665
     26 C         -19.9640   -4.2152   18.2857 C.3     1  UNL1        0.0899
     27 C         -20.3928   -2.8051   18.0066 C.3     1  UNL1        0.0897
@<TRIPOS>BOND
     1    21    22    1
     2    22    23    1
     3    23    24    1
     4    24    25    1
     5    25    20    1
     6    20     1    1
     7     1     2   ar
     8     2     3   ar
     9     3    10    1
    10    10    11    2
    11    10    12    2
    12    10    13    1
    13    13    14   ar
    14    14    15   ar
    15    15    16   ar
    16    16    17    1
    17    16    18   ar
    18    18    19   ar
    19     3     4   ar
    20     4     5   ar
    21     5     6   ar
    22     6     7   ar
    23     7     8   ar
    24     8     9   ar
    25    25    26    1
    26    26    27    1
    27    27    22    1
    28     9     1   ar
    29    19    13   ar
    30     9     4   ar
@<TRIPOS>MOLECULE
*****
 27 30 0 0 0
SMALL
GASTEIGER

@<TRIPOS>ATOM
      1 C          -6.0924  -19.2516   20.6260 C.ar    1  UNL1        0.0143
      2 C          -5.9046  -18.4844   21.9012 C.ar    1  UNL1        0.0970
      3 N          -7.2510  -18.0043   22.3558 N.ar    1  UNL1       -0.2080
      4 C          -8.2709  -18.4747   21.3616 C.ar    1  UNL1        0.0823
      5 C          -9.7591  -18.3008   21.2916 C.ar    1  UNL1        0.0189
      6 C         -10.5313  -18.8977   20.1526 C.ar    1  UNL1        0.0015
      7 C          -9.8152  -19.6686   19.0835 C.ar    1  UNL1        0.0001
      8 C          -8.3270  -19.8426   19.1534 C.ar    1  UNL1        0.0013
      9 C          -7.5549  -19.2456   20.2925 C.ar    1  UNL1        0.0163
     10 S          -7.5288  -17.1957   23.5883 S.O2    1  UNL1        0.0860
     11 O          -8.5779  -18.1850   24.0010 O.2     1  UNL1       -0.1476
     12 O          -6.4796  -16.2062   23.1756 O.2     1  UNL1       -0.1476
     13 C          -7.8065  -16.3870   24.8207 C.ar    1  UNL1        0.1278
     14 C          -9.1154  -15.6692   24.9678 C.ar    1  UNL1        0.0227
     15 C          -9.3930  -14.8606   26.2002 C.ar    1  UNL1        0.0310
     16 C          -8.3618  -14.7696   27.2857 C.ar    1  UNL1        0.1402
     17 F          -8.6395  -13.9610   28.5181 F       1  UNL1       -0.2042
     18 C          -7.0529  -15.4874   27.1387 C.ar    1  UNL1        0.0310
     19 C          -6.7753  -16.2961   25.9062 C.ar    1  UNL1        0.0227
     20 C          -5.0081  -19.9093   19.8249 C.3     1  UNL1        0.1008
     21 C           0.5950  -17.7739   20.0382 C.3     1  UNL1        0.0897
     22 N          -0.8058  -18.3077   19.9849 N.3     1  UNL1       -0.2691
     23 C          -1.2898  -19.2511   21.0459 C.3     1  UNL1        0.0897
     24 C          -2.6905  -19.7850   20.9926 C.3     1  UNL1        0.0899
     25 N          -3.6073  -19.3754   19.8783 N.3     1  UNL1       -0.2665
     26 C          -3.1233  -18.4321   18.8172 C.3     1  UNL1        0.0899
     27 C          -1.7226  -17.8982   18.8705 C.3     1  UNL1        0.0897
@<TRIPOS>BOND
     1    21    22    1
     2    22    23    1
     3    23    24    1
     4    24    25    1
     5    25    20    1
     6    20     1    1
     7     1     2   ar
     8     2     3   ar
     9     3    10    1
    10    10    11    2
    11    10    12    2
    12    10    13    1
    13    13    14   ar
    14    14    15   ar
    15    15    16   ar
    16    16    17    1
    17    16    18   ar
    18    18    19   ar
    19     3     4   ar
    20     4     5   ar
    21     5     6   ar
    22     6     7   ar
    23     7     8   ar
    24     8     9   ar
    25    25    26    1
    26    26    27    1
    27    27    22    1
    28     9     1   ar
    29    19    13   ar
    30     9     4   ar
@<TRIPOS>MOLECULE
*****
 27 30 0 0 0
SMALL
GASTEIGER

@<TRIPOS>ATOM
      1 C         -15.9225   -0.4596   19.0624 C.ar    1  UNL1        0.0143
      2 C         -14.5521   -1.0478   18.9015 C.ar    1  UNL1        0.0970
      3 N         -14.6530   -2.5270   19.1293 N.ar    1  UNL1       -0.2080
      4 C         -16.0858   -2.8529   19.4310 C.ar    1  UNL1        0.0823
      5 C         -16.7773   -4.1480   19.7381 C.ar    1  UNL1        0.0189
      6 C         -18.2534   -4.1655   20.0037 C.ar    1  UNL1        0.0015
      7 C         -19.0381   -2.8877   19.9624 C.ar    1  UNL1        0.0001
      8 C         -18.3465   -1.5925   19.6553 C.ar    1  UNL1        0.0013
      9 C         -16.8704   -1.5751   19.3897 C.ar    1  UNL1        0.0163
     10 S         -13.5201   -3.5080   19.0665 S.O2    1  UNL1        0.0860
     11 O         -13.1590   -3.1820   20.4853 O.2     1  UNL1       -0.1476
     12 O         -13.8811   -3.8341   17.6475 O.2     1  UNL1       -0.1476
     13 C         -12.3871   -4.4891   19.0035 C.ar    1  UNL1        0.1278
     14 C         -12.6701   -5.9622   18.9943 C.ar    1  UNL1        0.0227
     15 C         -11.5372   -6.9431   18.9314 C.ar    1  UNL1        0.0310
     16 C         -10.1211   -6.4511   18.8777 C.ar    1  UNL1        0.1402
     17 F          -8.9882   -7.4322   18.8147 F       1  UNL1       -0.2042
     18 C          -9.8381   -4.9781   18.8869 C.ar    1  UNL1        0.0310
     19 C         -10.9711   -3.9971   18.9498 C.ar    1  UNL1        0.0227
     20 C         -16.2821    0.9898   18.9209 C.3     1  UNL1        0.1008
     21 C         -16.6783    4.4717   23.7912 C.3     1  UNL1        0.0897
     22 N         -16.5792    3.6012   22.5736 N.3     1  UNL1       -0.2691
     23 C         -15.7794    4.0566   21.3892 C.3     1  UNL1        0.0897
     24 C         -15.6803    3.1862   20.1716 C.3     1  UNL1        0.0899
     25 N         -16.3811    1.8604   20.1385 N.3     1  UNL1       -0.2665
     26 C         -17.1810    1.4050   21.3230 C.3     1  UNL1        0.0899
     27 C         -17.2801    2.2754   22.5405 C.3     1  UNL1        0.0897
@<TRIPOS>BOND
     1    21    22    1
     2    22    23    1
     3    23    24    1
     4    24    25    1
     5    25    20    1
     6    20     1    1
     7     1     2   ar
     8     2     3   ar
     9     3    10    1
    10    10    11    2
    11    10    12    2
    12    10    13    1
    13    13    14   ar
    14    14    15   ar
    15    15    16   ar
    16    16    17    1
    17    16    18   ar
    18    18    19   ar
    19     3     4   ar
    20     4     5   ar
    21     5     6   ar
    22     6     7   ar
    23     7     8   ar
    24     8     9   ar
    25    25    26    1
    26    26    27    1
    27    27    22    1
    28     9     1   ar
    29    19    13   ar
    30     9     4   ar
@<TRIPOS>MOLECULE
*****
 27 30 0 0 0
SMALL
GASTEIGER

@<TRIPOS>ATOM
      1 C          -1.4078    3.9803   22.3648 C.ar    1  UNL1        0.0143
      2 C          -0.6805    3.3521   21.2131 C.ar    1  UNL1        0.0970
      3 N           0.1294    2.2072   21.7454 N.ar    1  UNL1       -0.2080
      4 C          -0.0974    2.1278   23.2260 C.ar    1  UNL1        0.0823
      5 C           0.4384    1.1993   24.2751 C.ar    1  UNL1        0.0189
      6 C           0.0242    1.3666   25.7070 C.ar    1  UNL1        0.0015
      7 C          -0.9259    2.4624   26.0898 C.ar    1  UNL1        0.0001
      8 C          -1.4617    3.3910   25.0407 C.ar    1  UNL1        0.0013
      9 C          -1.0475    3.2236   23.6088 C.ar    1  UNL1        0.0163
     10 S           1.0112    1.3008   20.9387 S.O2    1  UNL1        0.0860
     11 O           2.2004    2.1442   21.2910 O.2     1  UNL1       -0.1476
     12 O          -0.1781    0.4573   20.5864 O.2     1  UNL1       -0.1476
     13 C           1.8930    0.3943   20.1320 C.ar    1  UNL1        0.1278
     14 C           2.3442    0.8101   18.7632 C.ar    1  UNL1        0.0227
     15 C           3.2260   -0.0964   17.9566 C.ar    1  UNL1        0.0310
     16 C           3.6566   -1.4188   18.5187 C.ar    1  UNL1        0.1402
     17 F           4.5383   -2.3252   17.7120 F       1  UNL1       -0.2042
     18 C           3.2053   -1.8346   19.8874 C.ar    1  UNL1        0.0310
     19 C           2.3236   -0.9281   20.6941 C.ar    1  UNL1        0.0227
     20 C          -2.3331    5.1583   22.2862 C.3     1  UNL1        0.1008
     21 C          -8.1002    4.5514   23.8265 C.3     1  UNL1        0.0897
     22 N          -6.6584    4.7031   23.4414 N.3     1  UNL1       -0.2691
     23 C          -6.1207    3.9741   22.2458 C.3     1  UNL1        0.0897
     24 C          -4.6790    4.1258   21.8607 C.3     1  UNL1        0.0899
     25 N          -3.7749    5.0066   22.6713 N.3     1  UNL1       -0.2665
     26 C          -4.3126    5.7355   23.8669 C.3     1  UNL1        0.0899
     27 C          -5.7543    5.5839   24.2520 C.3     1  UNL1        0.0897
@<TRIPOS>BOND
     1    21    22    1
     2    22    23    1
     3    23    24    1
     4    24    25    1
     5    25    20    1
     6    20     1    1
     7     1     2   ar
     8     2     3   ar
     9     3    10    1
    10    10    11    2
    11    10    12    2
    12    10    13    1
    13    13    14   ar
    14    14    15   ar
    15    15    16   ar
    16    16    17    1
    17    16    18   ar
    18    18    19   ar
    19     3     4   ar
    20     4     5   ar
    21     5     6   ar
    22     6     7   ar
    23     7     8   ar
    24     8     9   ar
    25    25    26    1
    26    26    27    1
    27    27    22    1
    28     9     1   ar
    29    19    13   ar
    30     9     4   ar
