@<TRIPOS>MOLECULE
*****
 30 32 0 0 0
SMALL
GASTEIGER

@<TRIPOS>ATOM
      1 C          -3.2099    3.2385   20.1637 C.ar    1  UNL1        0.1085
      2 C          -3.5707    3.7954   18.8185 C.ar    1  UNL1        0.0211
      3 C          -2.4902    4.1932   17.8571 C.ar    1  UNL1        0.0202
      4 C          -1.0489    4.0341   18.2410 C.ar    1  UNL1        0.0787
      5 N          -0.6881    3.4772   19.5862 N.ar    1  UNL1       -0.2888
      6 C          -1.7686    3.0794   20.5476 C.ar    1  UNL1        0.2747
      7 O          -1.4078    2.5225   21.8928 O.2     1  UNL1       -0.2656
      8 N          -5.7984    3.3902   23.1682 N.am    1  UNL1       -0.2680
      9 C          -4.7179    3.7880   22.2068 C.2     1  UNL1        0.3083
     10 O          -4.0649    5.1330   22.3270 O.2     1  UNL1       -0.2521
     11 N          -4.2904    2.8407   21.1251 N.am    1  UNL1       -0.2642
     12 H          -6.2269    2.5074   23.0893 H       1  UNL1        0.1564
     13 H          -4.7189    1.9579   21.0462 H       1  UNL1        0.1566
     14 C          -5.7915    5.4767   26.5441 C.ar    1  UNL1        0.1400
     15 C          -7.0808    6.2319   26.4132 C.ar    1  UNL1        0.0370
     16 C          -7.9427    6.0398   25.2006 C.ar    1  UNL1        0.0044
     17 C          -7.5153    5.0926   24.1190 C.ar    1  UNL1        0.0149
     18 C          -6.2259    4.3375   24.2499 C.ar    1  UNL1        0.0546
     19 C          -5.3640    4.5295   25.4624 C.ar    1  UNL1        0.0516
     20 C          -3.4867    6.0471   27.5989 C.3     1  UNL1        0.2525
     21 O          -4.9296    5.6687   27.7566 O.3     1  UNL1       -0.4714
     22 C           0.7532    3.3181   19.9700 C.3     1  UNL1        0.1389
     23 C           1.2868    1.9649   20.3363 C.ar    1  UNL1        0.0385
     24 C           1.2178    0.8388   19.3478 C.ar    1  UNL1        0.1388
     25 F           0.6153    1.0658   17.9931 F       1  UNL1       -0.2044
     26 C           1.7514   -0.5144   19.7142 C.ar    1  UNL1        0.0294
     27 C           2.3539   -0.7415   21.0689 C.ar    1  UNL1        0.0032
     28 C           2.4228    0.3846   22.0574 C.ar    1  UNL1        0.0113
     29 C           1.8893    1.7378   21.6911 C.ar    1  UNL1        0.0577
     30 CL          1.9582    2.8639   22.6796 Cl      1  UNL1       -0.0824
@<TRIPOS>BOND
     1    20    21    1
     2    21    14    1
     3    14    15   ar
     4    15    16   ar
     5    16    17   ar
     6    17    18   ar
     7    18     8    1
     8     8     9   am
     9     9    10    2
    10     9    11   am
    11    11     1    1
    12     1     2   ar
    13     2     3   ar
    14     3     4   ar
    15     4     5   ar
    16     5    22    1
    17    22    23    1
    18    23    24   ar
    19    24    25    1
    20    24    26   ar
    21    26    27   ar
    22    27    28   ar
    23    28    29   ar
    24    29    30    1
    25     5     6   ar
    26     6     7    2
    27    18    19   ar
    28    19    14   ar
    29     6     1   ar
    30    29    23   ar
    31     8    12    1
    32    11    13    1
@<TRIPOS>MOLECULE
*****
 30 32 0 0 0
SMALL
GASTEIGER

@<TRIPOS>ATOM
      1 C           7.4294   -5.8573   25.0825 C.ar    1  UNL1        0.1085
      2 C           8.3268   -6.8684   24.4327 C.ar    1  UNL1        0.0211
      3 C           8.8295   -6.6387   23.0382 C.ar    1  UNL1        0.0202
      4 C           8.4347   -5.3978   22.2936 C.ar    1  UNL1        0.0787
      5 N           7.5373   -4.3867   22.9435 N.ar    1  UNL1       -0.2888
      6 C           7.0347   -4.6165   24.3380 C.ar    1  UNL1        0.2747
      7 O           6.1373   -3.6054   24.9879 O.2     1  UNL1       -0.2656
      8 N           6.9531   -5.4893   29.0053 N.am    1  UNL1       -0.2680
      9 C           7.4558   -5.2596   27.6108 C.2     1  UNL1        0.3083
     10 O           8.4874   -4.2023   27.3501 O.2     1  UNL1       -0.2521
     11 N           6.9268   -6.0871   26.4770 N.am    1  UNL1       -0.2642
     12 H           6.2760   -6.1832   29.1764 H       1  UNL1        0.1564
     13 H           6.2497   -6.7810   26.6481 H       1  UNL1        0.1566
     14 C           7.0899   -2.9254   32.0315 C.ar    1  UNL1        0.1400
     15 C           8.5399   -3.0068   32.4066 C.ar    1  UNL1        0.0370
     16 C           9.4610   -3.9157   31.6480 C.ar    1  UNL1        0.0044
     17 C           8.9321   -4.7432   30.5142 C.ar    1  UNL1        0.0149
     18 C           7.4821   -4.6618   30.1391 C.ar    1  UNL1        0.0546
     19 C           6.5610   -3.7529   30.8977 C.ar    1  UNL1        0.0516
     20 C           4.7425   -2.4185   33.0229 C.3     1  UNL1        0.2525
     21 O           6.1688   -2.0166   32.7901 O.3     1  UNL1       -0.4714
     22 C           7.1425   -3.1458   22.1989 C.3     1  UNL1        0.1389
     23 C           6.2502   -3.2442   20.9973 C.ar    1  UNL1        0.0385
     24 C           4.8336   -3.7128   21.1514 C.ar    1  UNL1        0.1388
     25 F           4.3094   -4.0831   22.5072 F       1  UNL1       -0.2044
     26 C           3.9412   -3.8112   19.9497 C.ar    1  UNL1        0.0294
     27 C           4.4654   -3.4409   18.5940 C.ar    1  UNL1        0.0032
     28 C           5.8819   -2.9722   18.4399 C.ar    1  UNL1        0.0113
     29 C           6.7743   -2.8739   19.6415 C.ar    1  UNL1        0.0577
     30 CL          8.1909   -2.4052   19.4873 Cl      1  UNL1       -0.0824
@<TRIPOS>BOND
     1    20    21    1
     2    21    14    1
     3    14    15   ar
     4    15    16   ar
     5    16    17   ar
     6    17    18   ar
     7    18     8    1
     8     8     9   am
     9     9    10    2
    10     9    11   am
    11    11     1    1
    12     1     2   ar
    13     2     3   ar
    14     3     4   ar
    15     4     5   ar
    16     5    22    1
    17    22    23    1
    18    23    24   ar
    19    24    25    1
    20    24    26   ar
    21    26    27   ar
    22    27    28   ar
    23    28    29   ar
    24    29    30    1
    25     5     6   ar
    26     6     7    2
    27    18    19   ar
    28    19    14   ar
    29     6     1   ar
    30    29    23   ar
    31     8    12    1
    32    11    13    1
@<TRIPOS>MOLECULE
*****
 30 32 0 0 0
SMALL
GASTEIGER

@<TRIPOS>ATOM
      1 C          -0.6251    2.9270   19.8966 C.ar    1  UNL1        0.1085
      2 C          -0.2874    4.2094   19.1956 C.ar    1  UNL1        0.0211
      3 C           1.1468    4.6078   19.0104 C.ar    1  UNL1        0.0202
      4 C           2.2434    3.7238   19.5263 C.ar    1  UNL1        0.0787
      5 N           1.9057    2.4413   20.2272 N.ar    1  UNL1       -0.2888
      6 C           0.4714    2.0430   20.4124 C.ar    1  UNL1        0.2747
      7 O           0.1337    0.7606   21.1134 O.2     1  UNL1       -0.2656
      8 N          -4.3214    2.7828   21.3342 N.am    1  UNL1       -0.2680
      9 C          -2.8872    3.1811   21.1490 C.2     1  UNL1        0.3083
     10 O          -2.2808    4.2320   22.0311 O.2     1  UNL1       -0.2521
     11 N          -2.0593    2.5287   20.0818 N.am    1  UNL1       -0.2642
     12 H          -4.7193    2.0931   20.7553 H       1  UNL1        0.1564
     13 H          -2.4573    1.8389   19.5029 H       1  UNL1        0.1566
     14 C          -5.5495    4.0062   24.9042 C.ar    1  UNL1        0.1400
     15 C          -6.8048    4.7401   24.5360 C.ar    1  UNL1        0.0370
     16 C          -7.2323    4.8216   23.1005 C.ar    1  UNL1        0.0044
     17 C          -6.4045    4.1691   22.0332 C.ar    1  UNL1        0.0149
     18 C          -5.1492    3.4352   22.4015 C.ar    1  UNL1        0.0546
     19 C          -4.7218    3.3538   23.8370 C.ar    1  UNL1        0.0516
     20 C          -4.4208    5.0856   26.9804 C.3     1  UNL1        0.2525
     21 O          -5.1221    3.9247   26.3397 O.3     1  UNL1       -0.4714
     22 C           3.0022    1.5573   20.7430 C.3     1  UNL1        0.1389
     23 C           3.3076    0.2610   20.0530 C.ar    1  UNL1        0.0385
     24 C           3.6805    0.2544   18.6001 C.ar    1  UNL1        0.1388
     25 F           3.7481    1.5441   17.8373 F       1  UNL1       -0.2044
     26 C           3.9859   -1.0420   17.9100 C.ar    1  UNL1        0.0294
     27 C           3.9183   -2.3318   18.6728 C.ar    1  UNL1        0.0032
     28 C           3.5453   -2.3252   20.1257 C.ar    1  UNL1        0.0113
     29 C           3.2400   -1.0289   20.8158 C.ar    1  UNL1        0.0577
     30 CL          2.8670   -1.0223   22.2687 Cl      1  UNL1       -0.0824
@<TRIPOS>BOND
     1    20    21    1
     2    21    14    1
     3    14    15   ar
     4    15    16   ar
     5    16    17   ar
     6    17    18   ar
     7    18     8    1
     8     8     9   am
     9     9    10    2
    10     9    11   am
    11    11     1    1
    12     1     2   ar
    13     2     3   ar
    14     3     4   ar
    15     4     5   ar
    16     5    22    1
    17    22    23    1
    18    23    24   ar
    19    24    25    1
    20    24    26   ar
    21    26    27   ar
    22    27    28   ar
    23    28    29   ar
    24    29    30    1
    25     5     6   ar
    26     6     7    2
    27    18    19   ar
    28    19    14   ar
    29     6     1   ar
    30    29    23   ar
    31     8    12    1
    32    11    13    1
@<TRIPOS>MOLECULE
*****
 30 32 0 0 0
SMALL
GASTEIGER

@<TRIPOS>ATOM
      1 C           6.5663   -2.3708   20.2855 C.ar    1  UNL1        0.1085
      2 C           6.1172   -3.1986   19.1180 C.ar    1  UNL1        0.0211
      3 C           5.0683   -2.6716   18.1843 C.ar    1  UNL1        0.0202
      4 C           4.4684   -1.3167   18.4180 C.ar    1  UNL1        0.0787
      5 N           4.9175   -0.4889   19.5855 N.ar    1  UNL1       -0.2888
      6 C           5.9665   -1.0160   20.5193 C.ar    1  UNL1        0.2747
      7 O           6.4156   -0.1883   21.6868 O.2     1  UNL1       -0.2656
      8 N           8.2903   -4.4065   23.2239 N.am    1  UNL1       -0.2680
      9 C           7.2413   -3.8795   22.2901 C.2     1  UNL1        0.3083
     10 O           5.8185   -4.3340   22.4272 O.2     1  UNL1       -0.2521
     11 N           7.6153   -2.8979   21.2193 N.am    1  UNL1       -0.2642
     12 H           9.2242   -4.1082   23.1339 H       1  UNL1        0.1564
     13 H           8.5492   -2.5995   21.1293 H       1  UNL1        0.1566
     14 C           6.7932   -5.9060   26.5795 C.ar    1  UNL1        0.1400
     15 C           7.1685   -7.3512   26.4364 C.ar    1  UNL1        0.0370
     16 C           7.9177   -7.8149   25.2225 C.ar    1  UNL1        0.0044
     17 C           8.2917   -6.8333   24.1516 C.ar    1  UNL1        0.0149
     18 C           7.9164   -5.3881   24.2947 C.ar    1  UNL1        0.0546
     19 C           7.1671   -4.9245   25.5087 C.ar    1  UNL1        0.0516
     20 C           6.7176   -5.4364   29.1337 C.3     1  UNL1        0.2525
     21 O           6.0440   -5.4423   27.7935 O.3     1  UNL1       -0.4714
     22 C           4.3177    0.8659   19.8193 C.3     1  UNL1        0.1389
     23 C           2.8279    1.0239   19.8929 C.ar    1  UNL1        0.0385
     24 C           2.0156    0.0905   20.7409 C.ar    1  UNL1        0.1388
     25 F           2.6932   -1.0008   21.5153 F       1  UNL1       -0.2044
     26 C           0.5257    0.2486   20.8144 C.ar    1  UNL1        0.0294
     27 C          -0.1518    1.3400   20.0400 C.ar    1  UNL1        0.0032
     28 C           0.6604    2.2733   19.1920 C.ar    1  UNL1        0.0113
     29 C           2.1503    2.1153   19.1184 C.ar    1  UNL1        0.0577
     30 CL          2.9625    3.0486   18.2704 Cl      1  UNL1       -0.0824
@<TRIPOS>BOND
     1    20    21    1
     2    21    14    1
     3    14    15   ar
     4    15    16   ar
     5    16    17   ar
     6    17    18   ar
     7    18     8    1
     8     8     9   am
     9     9    10    2
    10     9    11   am
    11    11     1    1
    12     1     2   ar
    13     2     3   ar
    14     3     4   ar
    15     4     5   ar
    16     5    22    1
    17    22    23    1
    18    23    24   ar
    19    24    25    1
    20    24    26   ar
    21    26    27   ar
    22    27    28   ar
    23    28    29   ar
    24    29    30    1
    25     5     6   ar
    26     6     7    2
    27    18    19   ar
    28    19    14   ar
    29     6     1   ar
    30    29    23   ar
    31     8    12    1
    32    11    13    1
@<TRIPOS>MOLECULE
*****
 30 32 0 0 0
SMALL
GASTEIGER

@<TRIPOS>ATOM
      1 C           8.0872   -2.9974   20.9930 C.ar    1  UNL1        0.1085
      2 C           8.6491   -1.6070   21.0277 C.ar    1  UNL1        0.0211
      3 C           7.8764   -0.4705   20.4267 C.ar    1  UNL1        0.0202
      4 C           6.5416   -0.7244   19.7910 C.ar    1  UNL1        0.0787
      5 N           5.9797   -2.1147   19.7562 N.ar    1  UNL1       -0.2888
      6 C           6.7526   -3.2512   20.3573 C.ar    1  UNL1        0.2747
      7 O           6.1907   -4.6416   20.3226 O.2     1  UNL1       -0.2656
      8 N           9.2595   -5.7982   23.5485 N.am    1  UNL1       -0.2680
      9 C           8.4868   -4.6618   22.9475 C.2     1  UNL1        0.3083
     10 O           7.3407   -4.0532   23.7000 O.2     1  UNL1       -0.2521
     11 N           8.8600   -4.1338   21.5940 N.am    1  UNL1       -0.2642
     12 H          10.0117   -6.1977   23.0546 H       1  UNL1        0.1564
     13 H           9.6122   -4.5332   21.1001 H       1  UNL1        0.1566
     14 C           8.9897   -6.1516   27.4921 C.ar    1  UNL1        0.1400
     15 C           8.1398   -7.3820   27.6090 C.ar    1  UNL1        0.0370
     16 C           7.6632   -8.0845   26.3724 C.ar    1  UNL1        0.0044
     17 C           8.0364   -7.5566   25.0189 C.ar    1  UNL1        0.0149
     18 C           8.8863   -6.3262   24.9020 C.ar    1  UNL1        0.0546
     19 C           9.3630   -5.6237   26.1387 C.ar    1  UNL1        0.0516
     20 C           9.0790   -5.9671   30.0821 C.3     1  UNL1        0.2525
     21 O           9.4664   -5.4491   28.7288 O.3     1  UNL1       -0.4714
     22 C           4.6451   -2.3686   19.1206 C.3     1  UNL1        0.1389
     23 C           3.5375   -1.3693   19.2772 C.ar    1  UNL1        0.0385
     24 C           2.8632   -1.1993   20.6063 C.ar    1  UNL1        0.1388
     25 F           3.2964   -2.0286   21.7787 F       1  UNL1       -0.2044
     26 C           1.7556   -0.1999   20.7629 C.ar    1  UNL1        0.0294
     27 C           1.3223    0.6295   19.5906 C.ar    1  UNL1        0.0032
     28 C           1.9967    0.4594   18.2615 C.ar    1  UNL1        0.0113
     29 C           3.1042   -0.5399   18.1048 C.ar    1  UNL1        0.0577
     30 CL          3.7785   -0.7099   16.7758 Cl      1  UNL1       -0.0824
@<TRIPOS>BOND
     1    20    21    1
     2    21    14    1
     3    14    15   ar
     4    15    16   ar
     5    16    17   ar
     6    17    18   ar
     7    18     8    1
     8     8     9   am
     9     9    10    2
    10     9    11   am
    11    11     1    1
    12     1     2   ar
    13     2     3   ar
    14     3     4   ar
    15     4     5   ar
    16     5    22    1
    17    22    23    1
    18    23    24   ar
    19    24    25    1
    20    24    26   ar
    21    26    27   ar
    22    27    28   ar
    23    28    29   ar
    24    29    30    1
    25     5     6   ar
    26     6     7    2
    27    18    19   ar
    28    19    14   ar
    29     6     1   ar
    30    29    23   ar
    31     8    12    1
    32    11    13    1
@<TRIPOS>MOLECULE
*****
 30 32 0 0 0
SMALL
GASTEIGER

@<TRIPOS>ATOM
      1 C           7.8300   -5.1429   24.1509 C.ar    1  UNL1        0.1085
      2 C           8.2764   -6.5487   23.8782 C.ar    1  UNL1        0.0211
      3 C           8.0430   -7.6214   24.9004 C.ar    1  UNL1        0.0202
      4 C           7.3631   -7.2882   26.1954 C.ar    1  UNL1        0.0787
      5 N           6.9167   -5.8823   26.4681 N.ar    1  UNL1       -0.2888
      6 C           7.1502   -4.8097   25.4458 C.ar    1  UNL1        0.2747
      7 O           6.7038   -3.4039   25.7185 O.2     1  UNL1       -0.2656
      8 N           7.1966   -2.6072   21.1645 N.am    1  UNL1       -0.2680
      9 C           6.9632   -3.6798   22.1867 C.2     1  UNL1        0.3083
     10 O           5.6297   -4.3620   22.2669 O.2     1  UNL1       -0.2521
     11 N           8.0634   -4.0703   23.1287 N.am    1  UNL1       -0.2642
     12 H           8.0718   -2.1594   21.1118 H       1  UNL1        0.1564
     13 H           8.9386   -3.6226   23.0760 H       1  UNL1        0.1566
     14 C           3.8502   -0.9919   19.7707 C.ar    1  UNL1        0.1400
     15 C           3.8963   -1.4357   18.3386 C.ar    1  UNL1        0.0370
     16 C           5.0425   -2.2699   17.8484 C.ar    1  UNL1        0.0044
     17 C           6.1426   -2.6604   18.7904 C.ar    1  UNL1        0.0149
     18 C           6.0965   -2.2167   20.2224 C.ar    1  UNL1        0.0546
     19 C           4.9503   -1.3824   20.7126 C.ar    1  UNL1        0.0516
     20 C           1.3033   -0.6886   20.1842 C.3     1  UNL1        0.2525
     21 O           2.7040   -0.1577   20.2609 O.3     1  UNL1       -0.4714
     22 C           6.2369   -5.5491   27.7630 C.3     1  UNL1        0.1389
     23 C           7.0441   -5.0652   28.9309 C.ar    1  UNL1        0.0385
     24 C           8.0021   -5.9937   29.6168 C.ar    1  UNL1        0.1388
     25 F           8.1528   -7.4060   29.1347 F       1  UNL1       -0.2044
     26 C           8.8093   -5.5097   30.7848 C.ar    1  UNL1        0.0294
     27 C           8.6586   -4.0973   31.2669 C.ar    1  UNL1        0.0032
     28 C           7.7007   -3.1689   30.5811 C.ar    1  UNL1        0.0113
     29 C           6.8935   -3.6528   29.4131 C.ar    1  UNL1        0.0577
     30 CL          5.9355   -2.7243   28.7273 Cl      1  UNL1       -0.0824
@<TRIPOS>BOND
     1    20    21    1
     2    21    14    1
     3    14    15   ar
     4    15    16   ar
     5    16    17   ar
     6    17    18   ar
     7    18     8    1
     8     8     9   am
     9     9    10    2
    10     9    11   am
    11    11     1    1
    12     1     2   ar
    13     2     3   ar
    14     3     4   ar
    15     4     5   ar
    16     5    22    1
    17    22    23    1
    18    23    24   ar
    19    24    25    1
    20    24    26   ar
    21    26    27   ar
    22    27    28   ar
    23    28    29   ar
    24    29    30    1
    25     5     6   ar
    26     6     7    2
    27    18    19   ar
    28    19    14   ar
    29     6     1   ar
    30    29    23   ar
    31     8    12    1
    32    11    13    1
@<TRIPOS>MOLECULE
*****
 30 32 0 0 0
SMALL
GASTEIGER

@<TRIPOS>ATOM
      1 C           1.1731    2.4949   20.0411 C.ar    1  UNL1        0.1085
      2 C           1.9042    2.9839   21.2562 C.ar    1  UNL1        0.0211
      3 C           2.8502    2.0721   21.9798 C.ar    1  UNL1        0.0202
      4 C           3.0650    0.6712   21.4885 C.ar    1  UNL1        0.0787
      5 N           2.3338    0.1822   20.2734 N.ar    1  UNL1       -0.2888
      6 C           1.3878    1.0941   19.5498 C.ar    1  UNL1        0.2747
      7 O           0.6566    0.6051   18.3348 O.2     1  UNL1       -0.2656
      8 N          -2.1865    4.2731   18.9004 N.am    1  UNL1       -0.2680
      9 C          -1.2406    3.3613   19.6240 C.2     1  UNL1        0.3083
     10 O          -1.7622    2.4039   20.6542 O.2     1  UNL1       -0.2521
     11 N           0.2271    3.4068   19.3175 N.am    1  UNL1       -0.2642
     12 H          -1.8441    4.9015   18.2242 H       1  UNL1        0.1564
     13 H           0.5695    4.0351   18.6413 H       1  UNL1        0.1566
     14 C          -5.6315    4.7103   20.8216 C.ar    1  UNL1        0.1400
     15 C          -6.5894    4.1367   19.8200 C.ar    1  UNL1        0.0370
     16 C          -6.0797    3.6085   18.5119 C.ar    1  UNL1        0.0044
     17 C          -4.6121    3.6540   18.2053 C.ar    1  UNL1        0.0149
     18 C          -3.6542    4.2276   19.2069 C.ar    1  UNL1        0.0546
     19 C          -4.1639    4.7558   20.5151 C.ar    1  UNL1        0.0516
     20 C          -7.2528    4.5281   22.8435 C.3     1  UNL1        0.2525
     21 O          -6.1411    5.2385   22.1298 O.3     1  UNL1       -0.4714
     22 C           2.5486   -1.2187   19.7821 C.3     1  UNL1        0.1389
     23 C           3.9399   -1.7220   19.5359 C.ar    1  UNL1        0.0385
     24 C           4.6518   -2.5080   20.5968 C.ar    1  UNL1        0.1388
     25 F           3.9723   -2.7906   21.9038 F       1  UNL1       -0.2044
     26 C           6.0432   -3.0114   20.3506 C.ar    1  UNL1        0.0294
     27 C           6.7228   -2.7288   19.0436 C.ar    1  UNL1        0.0032
     28 C           6.0109   -1.9428   17.9827 C.ar    1  UNL1        0.0113
     29 C           4.6195   -1.4394   18.2289 C.ar    1  UNL1        0.0577
     30 CL          3.9077   -0.6535   17.1680 Cl      1  UNL1       -0.0824
@<TRIPOS>BOND
     1    20    21    1
     2    21    14    1
     3    14    15   ar
     4    15    16   ar
     5    16    17   ar
     6    17    18   ar
     7    18     8    1
     8     8     9   am
     9     9    10    2
    10     9    11   am
    11    11     1    1
    12     1     2   ar
    13     2     3   ar
    14     3     4   ar
    15     4     5   ar
    16     5    22    1
    17    22    23    1
    18    23    24   ar
    19    24    25    1
    20    24    26   ar
    21    26    27   ar
    22    27    28   ar
    23    28    29   ar
    24    29    30    1
    25     5     6   ar
    26     6     7    2
    27    18    19   ar
    28    19    14   ar
    29     6     1   ar
    30    29    23   ar
    31     8    12    1
    32    11    13    1
@<TRIPOS>MOLECULE
*****
 30 32 0 0 0
SMALL
GASTEIGER

@<TRIPOS>ATOM
      1 C           2.3349    2.9251   21.3256 C.ar    1  UNL1        0.1085
      2 C           3.2852    2.7115   22.4663 C.ar    1  UNL1        0.0211
      3 C           4.3921    1.7068   22.3422 C.ar    1  UNL1        0.0202
      4 C           4.5487    0.9158   21.0773 C.ar    1  UNL1        0.0787
      5 N           3.5983    1.1294   19.9366 N.ar    1  UNL1       -0.2888
      6 C           2.4914    2.1342   20.0608 C.ar    1  UNL1        0.2747
      7 O           1.5410    2.3478   18.9201 O.2     1  UNL1       -0.2656
      8 N          -1.2574    4.4876   21.9616 N.am    1  UNL1       -0.2680
      9 C          -0.1505    3.4830   21.8375 C.2     1  UNL1        0.3083
     10 O          -0.4220    2.0315   22.1011 O.2     1  UNL1       -0.2521
     11 N           1.2280    3.9298   21.4498 N.am    1  UNL1       -0.2642
     12 H          -1.0792    5.4403   21.7886 H       1  UNL1        0.1564
     13 H           1.4062    4.8824   21.2767 H       1  UNL1        0.1566
     14 C          -4.4045    3.5363   24.1844 C.ar    1  UNL1        0.1400
     15 C          -5.3926    3.1472   23.1250 C.ar    1  UNL1        0.0370
     16 C          -5.0022    3.2049   21.6778 C.ar    1  UNL1        0.0044
     17 C          -3.6239    3.6517   21.2900 C.ar    1  UNL1        0.0149
     18 C          -2.6358    4.0408   22.3494 C.ar    1  UNL1        0.0546
     19 C          -3.0262    3.9831   23.7966 C.ar    1  UNL1        0.0516
     20 C          -3.8283    3.9267   26.6875 C.3     1  UNL1        0.2525
     21 O          -4.7949    3.4786   25.6315 O.3     1  UNL1       -0.4714
     22 C           3.7548    0.3385   18.6718 C.3     1  UNL1        0.1389
     23 C           4.0953   -1.1209   18.7372 C.ar    1  UNL1        0.0385
     24 C           3.1487   -2.0833   19.3911 C.ar    1  UNL1        0.1388
     25 F           1.8616   -1.5864   19.9796 F       1  UNL1       -0.2044
     26 C           3.4892   -3.5428   19.4565 C.ar    1  UNL1        0.0294
     27 C           4.7763   -4.0397   18.8680 C.ar    1  UNL1        0.0032
     28 C           5.7230   -3.0772   18.2140 C.ar    1  UNL1        0.0113
     29 C           5.3825   -1.6179   18.1487 C.ar    1  UNL1        0.0577
     30 CL          6.3291   -0.6554   17.4948 Cl      1  UNL1       -0.0824
@<TRIPOS>BOND
     1    20    21    1
     2    21    14    1
     3    14    15   ar
     4    15    16   ar
     5    16    17   ar
     6    17    18   ar
     7    18     8    1
     8     8     9   am
     9     9    10    2
    10     9    11   am
    11    11     1    1
    12     1     2   ar
    13     2     3   ar
    14     3     4   ar
    15     4     5   ar
    16     5    22    1
    17    22    23    1
    18    23    24   ar
    19    24    25    1
    20    24    26   ar
    21    26    27   ar
    22    27    28   ar
    23    28    29   ar
    24    29    30    1
    25     5     6   ar
    26     6     7    2
    27    18    19   ar
    28    19    14   ar
    29     6     1   ar
    30    29    23   ar
    31     8    12    1
    32    11    13    1
@<TRIPOS>MOLECULE
*****
 30 32 0 0 0
SMALL
GASTEIGER

@<TRIPOS>ATOM
      1 C           6.4536   -2.5874   30.9232 C.ar    1  UNL1        0.1085
      2 C           5.8500   -3.1330   32.1834 C.ar    1  UNL1        0.0211
      3 C           4.6750   -2.4441   32.8116 C.ar    1  UNL1        0.0202
      4 C           4.1034   -1.2096   32.1796 C.ar    1  UNL1        0.0787
      5 N           4.7069   -0.6640   30.9194 N.ar    1  UNL1       -0.2888
      6 C           5.8820   -1.3530   30.2912 C.ar    1  UNL1        0.2747
      7 O           6.4856   -0.8074   29.0310 O.2     1  UNL1       -0.2656
      8 N           8.5962   -4.8970   28.5097 N.am    1  UNL1       -0.2680
      9 C           7.4212   -4.2082   29.1379 C.2     1  UNL1        0.3083
     10 O           6.0386   -4.4511   28.6092 O.2     1  UNL1       -0.2521
     11 N           7.6286   -3.2763   30.2950 N.am    1  UNL1       -0.2642
     12 H           9.5036   -4.7376   28.8568 H       1  UNL1        0.1564
     13 H           8.5360   -3.1168   30.6420 H       1  UNL1        0.1566
     14 C           7.8887   -6.2094   24.8318 C.ar    1  UNL1        0.1400
     15 C           7.9739   -7.6925   25.0387 C.ar    1  UNL1        0.0370
     16 C           8.2665   -8.2439   26.4027 C.ar    1  UNL1        0.0044
     17 C           8.4739   -7.3121   27.5597 C.ar    1  UNL1        0.0149
     18 C           8.3887   -5.8289   27.3527 C.ar    1  UNL1        0.0546
     19 C           8.0961   -5.2776   25.9888 C.ar    1  UNL1        0.0516
     20 C           6.9369   -4.3181   23.3261 C.3     1  UNL1        0.2525
     21 O           7.5961   -5.6580   23.4678 O.3     1  UNL1       -0.4714
     22 C           4.1354    0.5704   30.2874 C.3     1  UNL1        0.1389
     23 C           2.6659    0.6532   29.9981 C.ar    1  UNL1        0.0385
     24 C           2.0457   -0.2731   28.9945 C.ar    1  UNL1        0.1388
     25 F           2.8949   -1.2823   28.2802 F       1  UNL1       -0.2044
     26 C           0.5761   -0.1902   28.7053 C.ar    1  UNL1        0.0294
     27 C          -0.2731    0.8189   29.4196 C.ar    1  UNL1        0.0032
     28 C           0.3471    1.7453   30.4232 C.ar    1  UNL1        0.0113
     29 C           1.8166    1.6624   30.7125 C.ar    1  UNL1        0.0577
     30 CL          2.4369    2.5888   31.7161 Cl      1  UNL1       -0.0824
@<TRIPOS>BOND
     1    20    21    1
     2    21    14    1
     3    14    15   ar
     4    15    16   ar
     5    16    17   ar
     6    17    18   ar
     7    18     8    1
     8     8     9   am
     9     9    10    2
    10     9    11   am
    11    11     1    1
    12     1     2   ar
    13     2     3   ar
    14     3     4   ar
    15     4     5   ar
    16     5    22    1
    17    22    23    1
    18    23    24   ar
    19    24    25    1
    20    24    26   ar
    21    26    27   ar
    22    27    28   ar
    23    28    29   ar
    24    29    30    1
    25     5     6   ar
    26     6     7    2
    27    18    19   ar
    28    19    14   ar
    29     6     1   ar
    30    29    23   ar
    31     8    12    1
    32    11    13    1
