@<TRIPOS>MOLECULE
*****
 26 28 0 0 0
SMALL
GASTEIGER

@<TRIPOS>ATOM
      1 C          -8.1382  -16.2312   22.9005 C.3     1  UNL1        0.1264
      2 C          -7.6245  -16.0094   24.2923 C.ar    1  UNL1        0.0324
      3 C          -8.5749  -16.0180   25.4528 C.ar    1  UNL1        0.0004
      4 C          -8.0612  -15.7963   26.8445 C.ar    1  UNL1       -0.0001
      5 C          -6.5971  -15.5659   27.0758 C.ar    1  UNL1        0.0031
      6 C          -5.6468  -15.5573   25.9153 C.ar    1  UNL1        0.0372
      7 C          -6.1604  -15.7791   24.5236 C.ar    1  UNL1        0.1429
      8 O          -5.2101  -15.7705   23.3631 O.3     1  UNL1       -0.4538
      9 C          -4.5083  -17.0331   22.9590 C.ar    1  UNL1        0.1453
     10 C          -3.0161  -17.0457   22.8060 C.ar    1  UNL1        0.0375
     11 C          -2.3143  -18.3084   22.4020 C.ar    1  UNL1        0.0031
     12 C          -3.1047  -19.5584   22.1510 C.ar    1  UNL1        0.0002
     13 C          -4.5968  -19.5457   22.3040 C.ar    1  UNL1        0.0031
     14 C          -5.2986  -18.2830   22.7081 C.ar    1  UNL1        0.0375
     15 C         -10.3381  -16.7916   21.6371 C.2     1  UNL1        0.4051
     16 O         -10.2000  -15.5303   20.8371 O.2     1  UNL1       -0.2262
     17 N          -9.3072  -17.1421   22.6688 N.am    1  UNL1       -0.2420
     18 C          -9.4452  -18.4034   23.4687 C.3     1  UNL1        0.0959
     19 C          -8.8775  -19.7437   23.1066 C.3     1  UNL1        0.0384
     20 C          -9.2566  -20.7146   24.1853 C.3     1  UNL1        0.0704
     21 N         -10.0588  -19.9743   25.2142 N.3     1  UNL1       -0.2960
     22 C         -10.1754  -18.5459   24.7713 C.3     1  UNL1        0.0888
     23 H          -9.5883  -20.0192   26.1180 H       1  UNL1        0.1233
     24 O         -11.5071  -17.7025   21.4053 O.3     1  UNL1       -0.4345
     25 C         -13.2781  -17.7921   23.3041 C.3     1  UNL1        0.0513
     26 C         -12.8607  -17.3358   21.9375 C.3     1  UNL1        0.2102
@<TRIPOS>BOND
     1    25    26    1
     2    26    24    1
     3    24    15    1
     4    15    16    2
     5    15    17   am
     6    17     1    1
     7     1     2    1
     8     2     3   ar
     9     3     4   ar
    10     4     5   ar
    11     5     6   ar
    12     6     7   ar
    13     7     8    1
    14     8     9    1
    15     9    10   ar
    16    10    11   ar
    17    11    12   ar
    18    12    13   ar
    19    13    14   ar
    20    18    17    1
    21    18    19    1
    22    19    20    1
    23    20    21    1
    24    21    22    1
    25     7     2   ar
    26    14     9   ar
    27    22    18    1
    28    21    23    1
@<TRIPOS>MOLECULE
*****
 26 28 0 0 0
SMALL
GASTEIGER

@<TRIPOS>ATOM
      1 C          -8.4490  -16.0824   23.2071 C.3     1  UNL1        0.1264
      2 C          -7.7695  -15.9138   24.5338 C.ar    1  UNL1        0.0324
      3 C          -8.5649  -16.0130   25.8017 C.ar    1  UNL1        0.0004
      4 C          -7.8854  -15.8445   27.1283 C.ar    1  UNL1       -0.0001
      5 C          -6.4107  -15.5767   27.1870 C.ar    1  UNL1        0.0031
      6 C          -5.6154  -15.4776   25.9191 C.ar    1  UNL1        0.0372
      7 C          -6.2948  -15.6461   24.5925 C.ar    1  UNL1        0.1429
      8 O          -5.4995  -15.5469   23.3245 O.3     1  UNL1       -0.4538
      9 C          -4.5172  -16.6234   22.9692 C.ar    1  UNL1        0.1453
     10 C          -3.1329  -16.2577   22.5219 C.ar    1  UNL1        0.0375
     11 C          -2.1506  -17.3341   22.1666 C.ar    1  UNL1        0.0031
     12 C          -2.5526  -18.7764   22.2586 C.ar    1  UNL1        0.0002
     13 C          -3.9368  -19.1421   22.7059 C.ar    1  UNL1        0.0031
     14 C          -4.9191  -18.0656   23.0612 C.ar    1  UNL1        0.0375
     15 C          -8.3994  -18.1678   21.6583 C.2     1  UNL1        0.4051
     16 O          -7.2469  -17.5779   20.9008 O.2     1  UNL1       -0.2262
     17 N          -9.0004  -17.4201   22.8115 N.am    1  UNL1       -0.2420
     18 C         -10.1529  -18.0100   23.5689 C.3     1  UNL1        0.0959
     19 C         -11.6013  -17.6724   23.3740 C.3     1  UNL1        0.0384
     20 C         -12.4029  -18.4948   24.3389 C.3     1  UNL1        0.0704
     21 N         -11.4498  -19.3407   25.1303 N.3     1  UNL1       -0.2960
     22 C         -10.0593  -19.0410   24.6544 C.3     1  UNL1        0.0888
     23 H         -11.6603  -20.3281   24.9846 H       1  UNL1        0.1233
     24 O          -8.9509  -19.5055   21.2627 O.3     1  UNL1       -0.4345
     25 C         -10.7158  -18.3360   19.7570 C.3     1  UNL1        0.0513
     26 C         -10.0776  -19.5903   20.2763 C.3     1  UNL1        0.2102
@<TRIPOS>BOND
     1    25    26    1
     2    26    24    1
     3    24    15    1
     4    15    16    2
     5    15    17   am
     6    17     1    1
     7     1     2    1
     8     2     3   ar
     9     3     4   ar
    10     4     5   ar
    11     5     6   ar
    12     6     7   ar
    13     7     8    1
    14     8     9    1
    15     9    10   ar
    16    10    11   ar
    17    11    12   ar
    18    12    13   ar
    19    13    14   ar
    20    18    17    1
    21    18    19    1
    22    19    20    1
    23    20    21    1
    24    21    22    1
    25     7     2   ar
    26    14     9   ar
    27    22    18    1
    28    21    23    1
@<TRIPOS>MOLECULE
*****
 26 28 0 0 0
SMALL
GASTEIGER

@<TRIPOS>ATOM
      1 C          -8.1219  -17.0535   21.9821 C.3     1  UNL1        0.1264
      2 C          -6.8018  -17.7220   22.2285 C.ar    1  UNL1        0.0324
      3 C          -6.5385  -19.0899   21.6722 C.ar    1  UNL1        0.0004
      4 C          -5.2185  -19.7584   21.9185 C.ar    1  UNL1       -0.0001
      5 C          -4.1618  -19.0589   22.7212 C.ar    1  UNL1        0.0031
      6 C          -4.4251  -17.6911   23.2774 C.ar    1  UNL1        0.0372
      7 C          -5.7451  -17.0226   23.0311 C.ar    1  UNL1        0.1429
      8 O          -6.0085  -15.6546   23.5874 O.3     1  UNL1       -0.4538
      9 C          -6.6807  -15.5035   24.9198 C.ar    1  UNL1        0.1453
     10 C          -8.1671  -15.3157   24.9930 C.ar    1  UNL1        0.0375
     11 C          -8.8393  -15.1645   26.3254 C.ar    1  UNL1        0.0031
     12 C          -8.0250  -15.2012   27.5846 C.ar    1  UNL1        0.0002
     13 C          -6.5386  -15.3890   27.5115 C.ar    1  UNL1        0.0031
     14 C          -5.8665  -15.5402   26.1790 C.ar    1  UNL1        0.0375
     15 C         -10.5052  -17.6578   21.1425 C.2     1  UNL1        0.4051
     16 O         -10.3399  -16.7103   19.9915 O.2     1  UNL1       -0.2262
     17 N          -9.3961  -17.8294   22.1379 N.am    1  UNL1       -0.2420
     18 C          -9.5614  -18.7769   23.2890 C.3     1  UNL1        0.0959
     19 C          -9.4034  -20.2675   23.2336 C.3     1  UNL1        0.0384
     20 C          -9.6580  -20.8120   24.6079 C.3     1  UNL1        0.0704
     21 N          -9.9734  -19.6578   25.5127 N.3     1  UNL1       -0.2960
     22 C          -9.9136  -18.4001   24.6975 C.3     1  UNL1        0.0888
     23 H          -9.2896  -19.6134   26.2682 H       1  UNL1        0.1233
     24 O         -11.7794  -18.4337   21.2983 O.3     1  UNL1       -0.4345
     25 C         -13.2413  -17.7893   23.3471 C.3     1  UNL1        0.0513
     26 C         -12.9976  -17.7687   21.8672 C.3     1  UNL1        0.2102
@<TRIPOS>BOND
     1    25    26    1
     2    26    24    1
     3    24    15    1
     4    15    16    2
     5    15    17   am
     6    17     1    1
     7     1     2    1
     8     2     3   ar
     9     3     4   ar
    10     4     5   ar
    11     5     6   ar
    12     6     7   ar
    13     7     8    1
    14     8     9    1
    15     9    10   ar
    16    10    11   ar
    17    11    12   ar
    18    12    13   ar
    19    13    14   ar
    20    18    17    1
    21    18    19    1
    22    19    20    1
    23    20    21    1
    24    21    22    1
    25     7     2   ar
    26    14     9   ar
    27    22    18    1
    28    21    23    1
@<TRIPOS>MOLECULE
*****
 26 28 0 0 0
SMALL
GASTEIGER

@<TRIPOS>ATOM
      1 C          -7.9311  -15.7373   22.8278 C.3     1  UNL1        0.1264
      2 C          -7.5093  -15.6459   24.2644 C.ar    1  UNL1        0.0324
      3 C          -8.5037  -15.9088   25.3562 C.ar    1  UNL1        0.0004
      4 C          -8.0819  -15.8174   26.7927 C.ar    1  UNL1       -0.0001
      5 C          -6.6658  -15.4630   27.1375 C.ar    1  UNL1        0.0031
      6 C          -5.6714  -15.2000   26.0458 C.ar    1  UNL1        0.0372
      7 C          -6.0931  -15.2915   24.6092 C.ar    1  UNL1        0.1429
      8 O          -5.0987  -15.0285   23.5174 O.3     1  UNL1       -0.4538
      9 C          -4.1183  -16.0933   23.1235 C.ar    1  UNL1        0.1453
     10 C          -4.2462  -17.4768   23.6889 C.ar    1  UNL1        0.0375
     11 C          -3.2658  -18.5415   23.2951 C.ar    1  UNL1        0.0031
     12 C          -2.1574  -18.2227   22.3359 C.ar    1  UNL1        0.0002
     13 C          -2.0295  -16.8393   21.7706 C.ar    1  UNL1        0.0031
     14 C          -3.0100  -15.7745   22.1644 C.ar    1  UNL1        0.0375
     15 C          -7.9548  -18.1072   21.7634 C.2     1  UNL1        0.4051
     16 O          -6.4582  -18.0786   21.6662 O.2     1  UNL1       -0.2262
     17 N          -8.6912  -16.9366   22.3442 N.am    1  UNL1       -0.2420
     18 C         -10.1878  -16.9653   22.4414 C.3     1  UNL1        0.0959
     19 C         -10.9953  -17.8380   23.3559 C.3     1  UNL1        0.0384
     20 C         -12.4462  -17.5384   23.1209 C.3     1  UNL1        0.0704
     21 N         -12.5353  -16.4805   22.0612 N.3     1  UNL1       -0.2960
     22 C         -11.1396  -16.1263   21.6413 C.3     1  UNL1        0.0888
     23 H         -13.0044  -15.6552   22.4345 H       1  UNL1        0.1233
     24 O          -8.7149  -19.3065   21.2798 O.3     1  UNL1       -0.4345
     25 C         -10.5724  -19.1643   19.4689 C.3     1  UNL1        0.0513
     26 C          -9.1387  -19.3969   19.8438 C.3     1  UNL1        0.2102
@<TRIPOS>BOND
     1    25    26    1
     2    26    24    1
     3    24    15    1
     4    15    16    2
     5    15    17   am
     6    17     1    1
     7     1     2    1
     8     2     3   ar
     9     3     4   ar
    10     4     5   ar
    11     5     6   ar
    12     6     7   ar
    13     7     8    1
    14     8     9    1
    15     9    10   ar
    16    10    11   ar
    17    11    12   ar
    18    12    13   ar
    19    13    14   ar
    20    18    17    1
    21    18    19    1
    22    19    20    1
    23    20    21    1
    24    21    22    1
    25     7     2   ar
    26    14     9   ar
    27    22    18    1
    28    21    23    1
@<TRIPOS>MOLECULE
*****
 26 28 0 0 0
SMALL
GASTEIGER

@<TRIPOS>ATOM
      1 C          -7.8205  -15.9601   22.6774 C.3     1  UNL1        0.1264
      2 C          -7.4443  -15.8231   24.1231 C.ar    1  UNL1        0.0324
      3 C          -8.4607  -16.0965   25.1917 C.ar    1  UNL1        0.0004
      4 C          -8.0845  -15.9594   26.6372 C.ar    1  UNL1       -0.0001
      5 C          -6.6918  -15.5491   27.0141 C.ar    1  UNL1        0.0031
      6 C          -5.6754  -15.2757   25.9455 C.ar    1  UNL1        0.0372
      7 C          -6.0516  -15.4127   24.4999 C.ar    1  UNL1        0.1429
      8 O          -5.0351  -15.1394   23.4312 O.3     1  UNL1       -0.4538
      9 C          -4.1062  -16.2287   22.9834 C.ar    1  UNL1        0.1453
     10 C          -4.4032  -17.6575   23.3308 C.ar    1  UNL1        0.0375
     11 C          -3.4743  -18.7468   22.8830 C.ar    1  UNL1        0.0031
     12 C          -2.2485  -18.4074   22.0878 C.ar    1  UNL1        0.0002
     13 C          -1.9516  -16.9787   21.7404 C.ar    1  UNL1        0.0031
     14 C          -2.8805  -15.8894   22.1882 C.ar    1  UNL1        0.0375
     15 C          -9.9694  -17.2895   22.0733 C.2     1  UNL1        0.4051
     16 O         -10.8082  -16.1032   22.4463 O.2     1  UNL1       -0.2262
     17 N          -8.4755  -17.2180   22.1889 N.am    1  UNL1       -0.2420
     18 C          -7.6368  -18.4043   21.8160 C.3     1  UNL1        0.0959
     19 C          -7.4789  -19.6604   22.6206 C.3     1  UNL1        0.0384
     20 C          -6.5532  -20.5752   21.8748 C.3     1  UNL1        0.0704
     21 N          -6.1390  -19.8846   20.6093 N.3     1  UNL1       -0.2960
     22 C          -6.8087  -18.5429   20.5730 C.3     1  UNL1        0.0888
     23 H          -6.4280  -20.4377   19.8025 H       1  UNL1        0.1233
     24 O         -10.6245  -18.5474   21.5848 O.3     1  UNL1       -0.4345
     25 C         -10.9627  -19.3251   24.0406 C.3     1  UNL1        0.0513
     26 C         -11.1180  -19.5667   22.5683 C.3     1  UNL1        0.2102
@<TRIPOS>BOND
     1    25    26    1
     2    26    24    1
     3    24    15    1
     4    15    16    2
     5    15    17   am
     6    17     1    1
     7     1     2    1
     8     2     3   ar
     9     3     4   ar
    10     4     5   ar
    11     5     6   ar
    12     6     7   ar
    13     7     8    1
    14     8     9    1
    15     9    10   ar
    16    10    11   ar
    17    11    12   ar
    18    12    13   ar
    19    13    14   ar
    20    18    17    1
    21    18    19    1
    22    19    20    1
    23    20    21    1
    24    21    22    1
    25     7     2   ar
    26    14     9   ar
    27    22    18    1
    28    21    23    1
@<TRIPOS>MOLECULE
*****
 26 28 0 0 0
SMALL
GASTEIGER

@<TRIPOS>ATOM
      1 C          -8.0057  -17.9049   21.4383 C.3     1  UNL1        0.1264
      2 C          -7.9462  -19.0867   20.5164 C.ar    1  UNL1        0.0324
      3 C          -9.0379  -19.3105   19.5124 C.ar    1  UNL1        0.0004
      4 C          -8.9783  -20.4922   18.5906 C.ar    1  UNL1       -0.0001
      5 C          -7.8270  -21.4503   18.6728 C.ar    1  UNL1        0.0031
      6 C          -6.7354  -21.2266   19.6768 C.ar    1  UNL1        0.0372
      7 C          -6.7949  -20.0448   20.5986 C.ar    1  UNL1        0.1429
      8 O          -5.7032  -19.8210   21.6028 O.3     1  UNL1       -0.4538
      9 C          -4.3555  -19.3419   21.1510 C.ar    1  UNL1        0.1453
     10 C          -3.2405  -19.1944   22.1436 C.ar    1  UNL1        0.0375
     11 C          -1.8928  -18.7153   21.6919 C.ar    1  UNL1        0.0031
     12 C          -1.6600  -18.3837   20.2476 C.ar    1  UNL1        0.0002
     13 C          -2.7749  -18.5313   19.2551 C.ar    1  UNL1        0.0031
     14 C          -4.1227  -19.0103   19.7068 C.ar    1  UNL1        0.0375
     15 C         -10.1494  -16.5016   21.8692 C.2     1  UNL1        0.4051
     16 O          -9.8125  -15.6273   20.6978 O.2     1  UNL1       -0.2262
     17 N          -9.2460  -17.6404   22.2395 N.am    1  UNL1       -0.2420
     18 C          -9.5828  -18.5146   23.4108 C.3     1  UNL1        0.0959
     19 C          -9.9208  -19.9748   23.3528 C.3     1  UNL1        0.0384
     20 C         -10.1877  -20.4448   24.7520 C.3     1  UNL1        0.0704
     21 N         -10.0146  -19.2750   25.6749 N.3     1  UNL1       -0.2960
     22 C          -9.6408  -18.0821   24.8460 C.3     1  UNL1        0.0888
     23 H          -9.2758  -19.4729   26.3498 H       1  UNL1        0.1233
     24 O         -11.3896  -16.2371   22.6703 O.3     1  UNL1       -0.4345
     25 C         -13.2360  -17.8882   23.4543 C.3     1  UNL1        0.0513
     26 C         -12.6427  -17.0125   22.3906 C.3     1  UNL1        0.2102
@<TRIPOS>BOND
     1    25    26    1
     2    26    24    1
     3    24    15    1
     4    15    16    2
     5    15    17   am
     6    17     1    1
     7     1     2    1
     8     2     3   ar
     9     3     4   ar
    10     4     5   ar
    11     5     6   ar
    12     6     7   ar
    13     7     8    1
    14     8     9    1
    15     9    10   ar
    16    10    11   ar
    17    11    12   ar
    18    12    13   ar
    19    13    14   ar
    20    18    17    1
    21    18    19    1
    22    19    20    1
    23    20    21    1
    24    21    22    1
    25     7     2   ar
    26    14     9   ar
    27    22    18    1
    28    21    23    1
@<TRIPOS>MOLECULE
*****
 26 28 0 0 0
SMALL
GASTEIGER

@<TRIPOS>ATOM
      1 C          -7.8008  -18.4532   21.9370 C.3     1  UNL1        0.1264
      2 C          -7.0365  -17.4571   22.7580 C.ar    1  UNL1        0.0324
      3 C          -7.7318  -16.2469   23.3074 C.ar    1  UNL1        0.0004
      4 C          -6.9676  -15.2510   24.1283 C.ar    1  UNL1       -0.0001
      5 C          -5.5080  -15.4653   24.3999 C.ar    1  UNL1        0.0031
      6 C          -4.8127  -16.6755   23.8505 C.ar    1  UNL1        0.0372
      7 C          -5.5769  -17.6714   23.0295 C.ar    1  UNL1        0.1429
      8 O          -4.8816  -18.8817   22.4801 O.3     1  UNL1       -0.4538
      9 C          -3.7848  -18.7223   21.4694 C.ar    1  UNL1        0.1453
     10 C          -2.4046  -18.3390   21.9146 C.ar    1  UNL1        0.0375
     11 C          -1.3077  -18.1796   20.9038 C.ar    1  UNL1        0.0031
     12 C          -1.5912  -18.4034   19.4479 C.ar    1  UNL1        0.0002
     13 C          -2.9714  -18.7866   19.0028 C.ar    1  UNL1        0.0031
     14 C          -4.0682  -18.9460   20.0135 C.ar    1  UNL1        0.0375
     15 C          -9.8844  -19.4546   23.1227 C.2     1  UNL1        0.4051
     16 O          -8.9885  -20.2499   24.0253 O.2     1  UNL1       -0.2262
     17 N          -9.2905  -18.5562   22.0785 N.am    1  UNL1       -0.2420
     18 C         -10.1864  -17.7609   21.1759 C.3     1  UNL1        0.0959
     19 C         -10.5179  -16.3053   21.3223 C.3     1  UNL1        0.0384
     20 C         -11.4445  -15.9263   20.2053 C.3     1  UNL1        0.0704
     21 N         -11.6857  -17.1476   19.3684 N.3     1  UNL1       -0.2960
     22 C         -10.9081  -18.2814   19.9683 C.3     1  UNL1        0.0888
     23 H         -11.3715  -16.9799   18.4126 H       1  UNL1        0.1233
     24 O         -11.3741  -19.5576   23.2642 O.3     1  UNL1       -0.4345
     25 C         -13.2930  -17.8150   23.4413 C.3     1  UNL1        0.0513
     26 C         -12.1253  -18.5284   24.0557 C.3     1  UNL1        0.2102
@<TRIPOS>BOND
     1    25    26    1
     2    26    24    1
     3    24    15    1
     4    15    16    2
     5    15    17   am
     6    17     1    1
     7     1     2    1
     8     2     3   ar
     9     3     4   ar
    10     4     5   ar
    11     5     6   ar
    12     6     7   ar
    13     7     8    1
    14     8     9    1
    15     9    10   ar
    16    10    11   ar
    17    11    12   ar
    18    12    13   ar
    19    13    14   ar
    20    18    17    1
    21    18    19    1
    22    19    20    1
    23    20    21    1
    24    21    22    1
    25     7     2   ar
    26    14     9   ar
    27    22    18    1
    28    21    23    1
@<TRIPOS>MOLECULE
*****
 26 28 0 0 0
SMALL
GASTEIGER

@<TRIPOS>ATOM
      1 C          -6.0022  -16.2021   23.2198 C.3     1  UNL1        0.1264
      2 C          -6.6650  -15.9354   24.5388 C.ar    1  UNL1        0.0324
      3 C          -5.8344  -15.7858   25.7789 C.ar    1  UNL1        0.0004
      4 C          -6.4972  -15.5192   27.0978 C.ar    1  UNL1       -0.0001
      5 C          -7.9905  -15.4021   27.1767 C.ar    1  UNL1        0.0031
      6 C          -8.8211  -15.5517   25.9366 C.ar    1  UNL1        0.0372
      7 C          -8.1583  -15.8184   24.6177 C.ar    1  UNL1        0.1429
      8 O          -8.9889  -15.9680   23.3776 O.3     1  UNL1       -0.4538
      9 C         -10.3074  -16.6805   23.4395 C.ar    1  UNL1        0.1453
     10 C         -11.4696  -16.1787   22.6347 C.ar    1  UNL1        0.0375
     11 C         -12.7881  -16.8911   22.6965 C.ar    1  UNL1        0.0031
     12 C         -12.9445  -18.1054   23.5633 C.ar    1  UNL1        0.0002
     13 C         -11.7824  -18.6072   24.3680 C.ar    1  UNL1        0.0031
     14 C         -10.4639  -17.8947   24.3061 C.ar    1  UNL1        0.0375
     15 C          -4.3566  -18.2101   23.1186 C.2     1  UNL1        0.4051
     16 O          -3.3241  -17.4005   23.8456 O.2     1  UNL1       -0.2262
     17 N          -5.6957  -17.6108   22.8057 N.am    1  UNL1       -0.2420
     18 C          -6.7282  -18.4204   22.0788 C.3     1  UNL1        0.0959
     19 C          -7.8598  -19.1767   22.7092 C.3     1  UNL1        0.0384
     20 C          -8.6414  -19.8395   21.6138 C.3     1  UNL1        0.0704
     21 N          -7.9929  -19.4928   20.3064 N.3     1  UNL1       -0.2960
     22 C          -6.8105  -18.6157   20.5938 C.3     1  UNL1        0.0888
     23 H          -8.6562  -18.9957   19.7120 H       1  UNL1        0.1233
     24 O          -4.0501  -19.6188   22.7046 O.3     1  UNL1       -0.4345
     25 C          -3.2540  -19.4167   20.2398 C.3     1  UNL1        0.0513
     26 C          -3.0202  -19.8823   21.6464 C.3     1  UNL1        0.2102
@<TRIPOS>BOND
     1    25    26    1
     2    26    24    1
     3    24    15    1
     4    15    16    2
     5    15    17   am
     6    17     1    1
     7     1     2    1
     8     2     3   ar
     9     3     4   ar
    10     4     5   ar
    11     5     6   ar
    12     6     7   ar
    13     7     8    1
    14     8     9    1
    15     9    10   ar
    16    10    11   ar
    17    11    12   ar
    18    12    13   ar
    19    13    14   ar
    20    18    17    1
    21    18    19    1
    22    19    20    1
    23    20    21    1
    24    21    22    1
    25     7     2   ar
    26    14     9   ar
    27    22    18    1
    28    21    23    1
@<TRIPOS>MOLECULE
*****
 26 28 0 0 0
SMALL
GASTEIGER

@<TRIPOS>ATOM
      1 C          -9.5457  -18.8355   23.1878 C.3     1  UNL1        0.1264
      2 C          -9.2771  -19.2235   21.7639 C.ar    1  UNL1        0.0324
      3 C         -10.4199  -19.4310   20.8147 C.ar    1  UNL1        0.0004
      4 C         -10.1512  -19.8189   19.3909 C.ar    1  UNL1       -0.0001
      5 C          -8.7398  -19.9994   18.9163 C.ar    1  UNL1        0.0031
      6 C          -7.5970  -19.7919   19.8655 C.ar    1  UNL1        0.0372
      7 C          -7.8657  -19.4039   21.2893 C.ar    1  UNL1        0.1429
      8 O          -6.7229  -19.1964   22.2385 O.3     1  UNL1       -0.4538
      9 C          -5.3119  -19.3887   21.7671 C.ar    1  UNL1        0.1453
     10 C          -5.0301  -20.2622   20.5806 C.ar    1  UNL1        0.0375
     11 C          -3.6191  -20.4545   20.1092 C.ar    1  UNL1        0.0031
     12 C          -2.4900  -19.7733   20.8242 C.ar    1  UNL1        0.0002
     13 C          -2.7719  -18.8998   22.0106 C.ar    1  UNL1        0.0031
     14 C          -4.1829  -18.7075   22.4820 C.ar    1  UNL1        0.0375
     15 C          -9.1942  -17.1320   25.1178 C.2     1  UNL1        0.4051
     16 O          -9.4124  -18.2247   26.1220 O.2     1  UNL1       -0.2262
     17 N          -9.2609  -17.4374   23.6507 N.am    1  UNL1       -0.2420
     18 C          -9.0427  -16.3447   22.6465 C.3     1  UNL1        0.0959
     19 C         -10.0377  -15.8708   21.6290 C.3     1  UNL1        0.0384
     20 C          -9.4012  -14.7673   20.8372 C.3     1  UNL1        0.0704
     21 N          -8.0127  -14.5591   21.3653 N.3     1  UNL1       -0.2960
     22 C          -7.7912  -15.5340   22.4835 C.3     1  UNL1        0.0888
     23 H          -7.9140  -13.6053   21.7130 H       1  UNL1        0.1233
     24 O          -8.9094  -15.7340   25.5807 O.3     1  UNL1       -0.4345
     25 C          -6.9008  -15.8201   27.2264 C.3     1  UNL1        0.0513
     26 C          -8.3392  -15.4981   26.9478 C.3     1  UNL1        0.2102
@<TRIPOS>BOND
     1    25    26    1
     2    26    24    1
     3    24    15    1
     4    15    16    2
     5    15    17   am
     6    17     1    1
     7     1     2    1
     8     2     3   ar
     9     3     4   ar
    10     4     5   ar
    11     5     6   ar
    12     6     7   ar
    13     7     8    1
    14     8     9    1
    15     9    10   ar
    16    10    11   ar
    17    11    12   ar
    18    12    13   ar
    19    13    14   ar
    20    18    17    1
    21    18    19    1
    22    19    20    1
    23    20    21    1
    24    21    22    1
    25     7     2   ar
    26    14     9   ar
    27    22    18    1
    28    21    23    1
