@<TRIPOS>MOLECULE
*****
 37 40 0 0 0
SMALL
GASTEIGER

@<TRIPOS>ATOM
      1 C          -0.1474    5.6447   20.6530 C.3     1  UNL1        0.0972
      2 C           1.1340    5.5759   21.4296 C.3     1  UNL1        0.0431
      3 C           0.8498    4.8902   22.7331 C.3     1  UNL1        0.0968
      4 N          -0.6074    4.5353   22.7621 N.am    1  UNL1       -0.2623
      5 C          -1.3226    3.8367   23.8803 C.2     1  UNL1        0.3073
      6 O          -2.7900    3.5470   23.7668 O.2     1  UNL1       -0.2523
      7 N          -0.5705    3.4279   25.1120 N.am    1  UNL1       -0.2626
      8 C           0.8912    3.6492   25.3667 C.3     1  UNL1        0.0964
      9 C           1.2171    3.0840   26.7174 C.3     1  UNL1        0.0390
     10 C          -0.0431    2.5135   27.2975 C.3     1  UNL1        0.0759
     11 C          -1.1478    2.7260   26.3053 C.3     1  UNL1        0.1106
     12 C          -1.2236    5.0015   21.4765 C.3     1  UNL1        0.1147
     13 C           0.1767    5.5236   18.0780 C.2     1  UNL1        0.2491
     14 O           0.0021    6.1292   16.7169 O.2     1  UNL1       -0.2699
     15 N          -0.3220    6.2502   19.2917 N.am    1  UNL1       -0.2742
     16 C          -0.9953    7.5825   19.1443 C.3     1  UNL1        0.1152
     17 C           2.1968    1.5269   18.5202 C.ar    1  UNL1        0.0000
     18 C           3.0200    2.7776   18.4316 C.ar    1  UNL1        0.0001
     19 C           2.3467    4.1098   18.2842 C.ar    1  UNL1        0.0045
     20 C           0.8501    4.1913   18.2254 C.ar    1  UNL1        0.0536
     21 C           0.0268    2.9406   18.3140 C.ar    1  UNL1        0.0045
     22 C           0.7002    1.6084   18.4614 C.ar    1  UNL1        0.0001
     23 C           4.2168   -2.4699   18.9624 C.ar    1  UNL1       -0.0222
     24 C           3.3226   -1.9569   20.0519 C.ar    1  UNL1       -0.0043
     25 C           2.6492   -0.6246   19.9045 C.ar    1  UNL1       -0.0003
     26 C           2.8701    0.1946   18.6676 C.ar    1  UNL1       -0.0000
     27 C           3.7644   -0.3184   17.5781 C.ar    1  UNL1       -0.0003
     28 C           4.4377   -1.6506   17.7255 C.ar    1  UNL1       -0.0043
     29 C           4.0799   -5.0629   19.0482 C.3     1  UNL1        0.0050
     30 C           4.8902   -3.8021   19.1098 C.3     1  UNL1        0.0264
     31 N          -0.1753    1.8473   28.6349 N.3     1  UNL1       -0.2962
     32 H          -1.1054    2.0747   28.9864 H       1  UNL1        0.1233
     33 C          -0.0203    0.3599   28.7505 C.3     1  UNL1        0.0841
     34 C          -1.2281   -0.5273   28.6850 C.3     1  UNL1        0.0197
     35 C           1.3422   -0.2405   28.9315 C.3     1  UNL1        0.1578
     36 O           1.8017   -0.6603   30.2963 O.3     1  UNL1       -0.3497
     37 C           2.9794    0.0167   30.9325 C.3     1  UNL1        0.1742
@<TRIPOS>BOND
     1    29    30    1
     2    30    23    1
     3    23    24   ar
     4    24    25   ar
     5    25    26   ar
     6    26    17    1
     7    17    18   ar
     8    18    19   ar
     9    19    20   ar
    10    20    13    1
    11    13    14    2
    12    13    15   am
    13    15    16    1
    14     1    15    1
    15     1     2    1
    16     2     3    1
    17     3     4    1
    18     4     5   am
    19     5     6    2
    20     5     7   am
    21     7     8    1
    22     8     9    1
    23     9    10    1
    24    10    31    1
    25    31    33    1
    26    33    34    1
    27    33    35    1
    28    35    36    1
    29    36    37    1
    30    10    11    1
    31     4    12    1
    32    20    21   ar
    33    21    22   ar
    34    26    27   ar
    35    27    28   ar
    36    28    23   ar
    37    22    17   ar
    38    12     1    1
    39    11     7    1
    40    31    32    1
@<TRIPOS>MOLECULE
*****
 37 40 0 0 0
SMALL
GASTEIGER

@<TRIPOS>ATOM
      1 C          -0.8959    4.2762   24.0414 C.3     1  UNL1        0.0972
      2 C          -1.8022    3.2130   24.5874 C.3     1  UNL1        0.0431
      3 C          -1.0639    2.4870   25.6726 C.3     1  UNL1        0.0968
      4 N           0.2988    3.1015   25.7974 N.am    1  UNL1       -0.2623
      5 C           1.3695    2.6836   26.7612 C.2     1  UNL1        0.3073
      6 O           2.6898    3.3954   26.7702 O.2     1  UNL1       -0.2523
      7 N           1.1200    1.5538   27.7159 N.am    1  UNL1       -0.2626
      8 C          -0.1436    0.7525   27.8226 C.3     1  UNL1        0.0964
      9 C           0.0456   -0.2695   28.9041 C.3     1  UNL1        0.0390
     10 C           1.4262   -0.0998   29.4658 C.3     1  UNL1        0.0759
     11 C           2.0901    1.0271   28.7314 C.3     1  UNL1        0.1106
     12 C           0.4026    4.2073   24.7893 C.3     1  UNL1        0.1147
     13 C          -0.7707    4.9647   21.5393 C.2     1  UNL1        0.2491
     14 O          -1.1042    5.9277   20.4388 O.2     1  UNL1       -0.2699
     15 N          -1.2294    5.2393   22.9408 N.am    1  UNL1       -0.2742
     16 C          -2.0215    6.4770   23.2417 C.3     1  UNL1        0.1152
     17 C           1.6058    1.2516   20.6365 C.ar    1  UNL1        0.0000
     18 C           2.3110    2.5183   21.0212 C.ar    1  UNL1        0.0001
     19 C           1.5188    3.7560   21.3222 C.ar    1  UNL1        0.0045
     20 C           0.0215    3.7270   21.2384 C.ar    1  UNL1        0.0536
     21 C          -0.6837    2.4602   20.8536 C.ar    1  UNL1        0.0045
     22 C           0.1084    1.2225   20.5527 C.ar    1  UNL1        0.0001
     23 C           3.9823   -2.4616   19.7337 C.ar    1  UNL1       -0.0222
     24 C           3.5953   -1.5303   18.6233 C.ar    1  UNL1       -0.0043
     25 C           2.8031   -0.2926   18.9242 C.ar    1  UNL1       -0.0003
     26 C           2.3980    0.0139   20.3356 C.ar    1  UNL1       -0.0000
     27 C           2.7849   -0.9174   21.4459 C.ar    1  UNL1       -0.0003
     28 C           3.5771   -2.1551   21.1450 C.ar    1  UNL1       -0.0043
     29 C           4.0679   -4.9934   19.1574 C.3     1  UNL1        0.0050
     30 C           4.7745   -3.6993   19.4328 C.3     1  UNL1        0.0264
     31 N           2.0357   -0.9140   30.5682 N.3     1  UNL1       -0.2962
     32 H           2.3753   -1.7770   30.1437 H       1  UNL1        0.1233
     33 C           3.1687   -0.3537   31.3760 C.3     1  UNL1        0.0841
     34 C           2.9154    0.7536   32.3557 C.3     1  UNL1        0.0197
     35 C           4.5547   -0.9006   31.2042 C.3     1  UNL1        0.1578
     36 O           4.9700   -2.1378   31.9437 O.3     1  UNL1       -0.3497
     37 C           4.3303   -2.4765   33.2575 C.3     1  UNL1        0.1742
@<TRIPOS>BOND
     1    29    30    1
     2    30    23    1
     3    23    24   ar
     4    24    25   ar
     5    25    26   ar
     6    26    17    1
     7    17    18   ar
     8    18    19   ar
     9    19    20   ar
    10    20    13    1
    11    13    14    2
    12    13    15   am
    13    15    16    1
    14     1    15    1
    15     1     2    1
    16     2     3    1
    17     3     4    1
    18     4     5   am
    19     5     6    2
    20     5     7   am
    21     7     8    1
    22     8     9    1
    23     9    10    1
    24    10    31    1
    25    31    33    1
    26    33    34    1
    27    33    35    1
    28    35    36    1
    29    36    37    1
    30    10    11    1
    31     4    12    1
    32    20    21   ar
    33    21    22   ar
    34    26    27   ar
    35    27    28   ar
    36    28    23   ar
    37    22    17   ar
    38    12     1    1
    39    11     7    1
    40    31    32    1
@<TRIPOS>MOLECULE
*****
 37 40 0 0 0
SMALL
GASTEIGER

@<TRIPOS>ATOM
      1 C           3.4157   -0.4874   19.9994 C.3     1  UNL1        0.0972
      2 C           2.0063   -0.7842   20.4180 C.3     1  UNL1        0.0431
      3 C           1.7631   -0.1122   21.7368 C.3     1  UNL1        0.0968
      4 N           3.0224    0.6001   22.1333 N.am    1  UNL1       -0.2623
      5 C           3.2247    1.4031   23.3839 C.2     1  UNL1        0.3073
      6 O           4.5465    2.0618   23.6466 O.2     1  UNL1       -0.2523
      7 N           2.1052    1.5476   24.3718 N.am    1  UNL1       -0.2626
      8 C           0.7353    0.9497   24.2456 C.3     1  UNL1        0.0964
      9 C          -0.0574    1.3478   25.4551 C.3     1  UNL1        0.0390
     10 C           0.8225    2.1918   26.3289 C.3     1  UNL1        0.0759
     11 C           2.1591    2.3152   25.6594 C.3     1  UNL1        0.1106
     12 C           4.0437    0.3682   21.0594 C.3     1  UNL1        0.1147
     13 C           5.1610   -2.0007   18.8103 C.2     1  UNL1        0.2491
     14 O           5.8258   -2.4758   17.5524 O.2     1  UNL1       -0.2699
     15 N           4.0805   -0.9626   18.7415 N.am    1  UNL1       -0.2742
     16 C           3.6647   -0.3996   17.4147 C.3     1  UNL1        0.1152
     17 C           6.4084   -3.6895   22.7905 C.ar    1  UNL1        0.0000
     18 C           5.0134   -3.9111   22.2857 C.ar    1  UNL1        0.0001
     19 C           4.5976   -3.3481   20.9590 C.ar    1  UNL1        0.0045
     20 C           5.5768   -2.5636   20.1371 C.ar    1  UNL1        0.0536
     21 C           6.9718   -2.3420   20.6419 C.ar    1  UNL1        0.0045
     22 C           7.3876   -2.9049   21.9686 C.ar    1  UNL1        0.0001
     23 C           7.6557   -5.3783   26.7707 C.ar    1  UNL1       -0.0222
     24 C           6.8345   -4.1245   26.7121 C.ar    1  UNL1       -0.0043
     25 C           6.4187   -3.5615   25.3854 C.ar    1  UNL1       -0.0003
     26 C           6.8241   -4.2524   24.1173 C.ar    1  UNL1       -0.0000
     27 C           7.6453   -5.5062   24.1759 C.ar    1  UNL1       -0.0003
     28 C           8.0611   -6.0692   25.5026 C.ar    1  UNL1       -0.0043
     29 C           7.1784   -5.7835   29.2922 C.3     1  UNL1        0.0050
     30 C           8.0715   -5.9412   28.0975 C.3     1  UNL1        0.0264
     31 N           0.4341    2.8047   27.6417 N.3     1  UNL1       -0.2962
     32 H          -0.5745    2.9536   27.6102 H       1  UNL1        0.1233
     33 C           0.7251    2.0806   28.9227 C.3     1  UNL1        0.0841
     34 C           0.7332    2.8296   30.2224 C.3     1  UNL1        0.0197
     35 C           1.0079    0.6077   28.9042 C.3     1  UNL1        0.1578
     36 O          -0.0753   -0.3686   29.2556 O.3     1  UNL1       -0.3497
     37 C          -1.5137   -0.0035   29.0374 C.3     1  UNL1        0.1742
@<TRIPOS>BOND
     1    29    30    1
     2    30    23    1
     3    23    24   ar
     4    24    25   ar
     5    25    26   ar
     6    26    17    1
     7    17    18   ar
     8    18    19   ar
     9    19    20   ar
    10    20    13    1
    11    13    14    2
    12    13    15   am
    13    15    16    1
    14     1    15    1
    15     1     2    1
    16     2     3    1
    17     3     4    1
    18     4     5   am
    19     5     6    2
    20     5     7   am
    21     7     8    1
    22     8     9    1
    23     9    10    1
    24    10    31    1
    25    31    33    1
    26    33    34    1
    27    33    35    1
    28    35    36    1
    29    36    37    1
    30    10    11    1
    31     4    12    1
    32    20    21   ar
    33    21    22   ar
    34    26    27   ar
    35    27    28   ar
    36    28    23   ar
    37    22    17   ar
    38    12     1    1
    39    11     7    1
    40    31    32    1
@<TRIPOS>MOLECULE
*****
 37 40 0 0 0
SMALL
GASTEIGER

@<TRIPOS>ATOM
      1 C          -1.4400    4.7075   23.9279 C.3     1  UNL1        0.0972
      2 C          -2.3022    3.5801   24.4131 C.3     1  UNL1        0.0431
      3 C          -1.5359    2.8282   25.4606 C.3     1  UNL1        0.0968
      4 N          -0.2000    3.4909   25.6229 N.am    1  UNL1       -0.2623
      5 C           0.8859    3.0666   26.5667 C.2     1  UNL1        0.3073
      6 O           2.1755    3.8309   26.6183 O.2     1  UNL1       -0.2523
      7 N           0.6821    1.8781   27.4588 N.am    1  UNL1       -0.2626
      8 C          -0.5473    1.0207   27.5182 C.3     1  UNL1        0.0964
      9 C          -0.3173   -0.0490   28.5442 C.3     1  UNL1        0.0390
     10 C           1.0542    0.1473   29.1190 C.3     1  UNL1        0.0759
     11 C           1.6719    1.3383   28.4482 C.3     1  UNL1        0.1106
     12 C          -0.1408    4.6524   24.6755 C.3     1  UNL1        0.1147
     13 C          -1.3705    5.5146   21.4593 C.2     1  UNL1        0.2491
     14 O          -1.7422    6.5206   20.4106 O.2     1  UNL1       -0.2699
     15 N          -1.8117    5.7135   22.8790 N.am    1  UNL1       -0.2742
     16 C          -2.6245    6.9183   23.2501 C.3     1  UNL1        0.1152
     17 C           1.0681    1.9002   20.3462 C.ar    1  UNL1        0.0000
     18 C          -0.4294    1.8170   20.3676 C.ar    1  UNL1        0.0001
     19 C          -1.2422    3.0218   20.7386 C.ar    1  UNL1        0.0045
     20 C          -0.5576    4.3098   21.0882 C.ar    1  UNL1        0.0536
     21 C           0.9399    4.3930   21.0668 C.ar    1  UNL1        0.0045
     22 C           1.7528    3.1882   20.6958 C.ar    1  UNL1        0.0001
     23 C           3.5068   -1.7142   19.2330 C.ar    1  UNL1       -0.0222
     24 C           2.8130   -1.6577   20.5617 C.ar    1  UNL1       -0.0043
     25 C           2.0001   -0.4529   20.9327 C.ar    1  UNL1       -0.0003
     26 C           1.8810    0.6954   19.9751 C.ar    1  UNL1       -0.0000
     27 C           2.5748    0.6389   18.6464 C.ar    1  UNL1       -0.0003
     28 C           3.3877   -0.5659   18.2754 C.ar    1  UNL1       -0.0043
     29 C           3.9079   -4.2788   19.3431 C.3     1  UNL1        0.0050
     30 C           4.3196   -2.9190   18.8620 C.3     1  UNL1        0.0264
     31 N           1.6956   -0.6989   30.1786 N.3     1  UNL1       -0.2962
     32 H           1.9745   -1.5714   29.7298 H       1  UNL1        0.1233
     33 C           2.8962   -0.1901   30.9199 C.3     1  UNL1        0.0841
     34 C           4.2578   -0.7362   30.6068 C.3     1  UNL1        0.0197
     35 C           2.7355    0.8647   31.9741 C.3     1  UNL1        0.1578
     36 O           1.3817    1.4482   32.2511 O.3     1  UNL1       -0.3497
     37 C           1.1409    2.9146   32.0468 C.3     1  UNL1        0.1742
@<TRIPOS>BOND
     1    29    30    1
     2    30    23    1
     3    23    24   ar
     4    24    25   ar
     5    25    26   ar
     6    26    17    1
     7    17    18   ar
     8    18    19   ar
     9    19    20   ar
    10    20    13    1
    11    13    14    2
    12    13    15   am
    13    15    16    1
    14     1    15    1
    15     1     2    1
    16     2     3    1
    17     3     4    1
    18     4     5   am
    19     5     6    2
    20     5     7   am
    21     7     8    1
    22     8     9    1
    23     9    10    1
    24    10    31    1
    25    31    33    1
    26    33    34    1
    27    33    35    1
    28    35    36    1
    29    36    37    1
    30    10    11    1
    31     4    12    1
    32    20    21   ar
    33    21    22   ar
    34    26    27   ar
    35    27    28   ar
    36    28    23   ar
    37    22    17   ar
    38    12     1    1
    39    11     7    1
    40    31    32    1
@<TRIPOS>MOLECULE
*****
 37 40 0 0 0
SMALL
GASTEIGER

@<TRIPOS>ATOM
      1 C           1.1266    3.5275   18.2267 C.3     1  UNL1        0.0972
      2 C           0.4710    2.1879   18.3875 C.3     1  UNL1        0.0431
      3 C           1.5484    1.1684   18.6105 C.3     1  UNL1        0.0968
      4 N           2.8699    1.8778   18.5875 N.am    1  UNL1       -0.2623
      5 C           4.2157    1.2410   18.7697 C.2     1  UNL1        0.3073
      6 O           5.4564    2.0828   18.7216 O.2     1  UNL1       -0.2523
      7 N           4.3209   -0.2374   19.0001 N.am    1  UNL1       -0.2626
      8 C           3.1746   -1.2022   19.0729 C.3     1  UNL1        0.0964
      9 C           3.7361   -2.5717   19.3159 C.3     1  UNL1        0.0390
     10 C           5.2294   -2.4534   19.3933 C.3     1  UNL1        0.0759
     11 C           5.5908   -1.0107   19.1981 C.3     1  UNL1        0.1106
     12 C           2.6091    3.3358   18.3503 C.3     1  UNL1        0.1147
     13 C          -0.3477    5.4834   19.0934 C.2     1  UNL1        0.2491
     14 O          -1.0511    6.7859   18.8514 O.2     1  UNL1       -0.2699
     15 N           0.4231    4.8301   17.9848 N.am    1  UNL1       -0.2742
     16 C           0.4904    5.4792   16.6342 C.3     1  UNL1        0.1152
     17 C          -0.5497    3.5358   23.1450 C.ar    1  UNL1        0.0000
     18 C           0.6698    4.3128   22.7464 C.ar    1  UNL1        0.0001
     19 C           0.7371    4.9620   21.3958 C.ar    1  UNL1        0.0045
     20 C          -0.4150    4.8342   20.4439 C.ar    1  UNL1        0.0536
     21 C          -1.6346    4.0572   20.8426 C.ar    1  UNL1        0.0045
     22 C          -1.7019    3.4080   22.1932 C.ar    1  UNL1        0.0001
     23 C          -0.7518    1.5882   27.1967 C.ar    1  UNL1       -0.0222
     24 C          -1.6122    2.7788   26.8931 C.ar    1  UNL1       -0.0043
     25 C          -1.5448    3.4280   25.5425 C.ar    1  UNL1       -0.0003
     26 C          -0.6171    2.8866   24.4956 C.ar    1  UNL1       -0.0000
     27 C           0.2433    1.6961   24.7992 C.ar    1  UNL1       -0.0003
     28 C           0.1760    1.0469   26.1498 C.ar    1  UNL1       -0.0043
     29 C          -1.3838   -0.4435   28.6876 C.3     1  UNL1        0.0050
     30 C          -0.8191    0.9391   28.5473 C.3     1  UNL1        0.0264
     31 N           6.1923   -3.5799   19.6251 N.3     1  UNL1       -0.2962
     32 H           6.5647   -3.8416   18.7123 H       1  UNL1        0.1233
     33 C           7.3699   -3.3850   20.5336 C.3     1  UNL1        0.0841
     34 C           8.7153   -3.0566   19.9573 C.3     1  UNL1        0.0197
     35 C           7.2022   -3.5185   22.0181 C.3     1  UNL1        0.1578
     36 O           6.0006   -4.2212   22.5771 O.3     1  UNL1       -0.3497
     37 C           4.8028   -3.4291   23.0105 C.3     1  UNL1        0.1742
@<TRIPOS>BOND
     1    29    30    1
     2    30    23    1
     3    23    24   ar
     4    24    25   ar
     5    25    26   ar
     6    26    17    1
     7    17    18   ar
     8    18    19   ar
     9    19    20   ar
    10    20    13    1
    11    13    14    2
    12    13    15   am
    13    15    16    1
    14     1    15    1
    15     1     2    1
    16     2     3    1
    17     3     4    1
    18     4     5   am
    19     5     6    2
    20     5     7   am
    21     7     8    1
    22     8     9    1
    23     9    10    1
    24    10    31    1
    25    31    33    1
    26    33    34    1
    27    33    35    1
    28    35    36    1
    29    36    37    1
    30    10    11    1
    31     4    12    1
    32    20    21   ar
    33    21    22   ar
    34    26    27   ar
    35    27    28   ar
    36    28    23   ar
    37    22    17   ar
    38    12     1    1
    39    11     7    1
    40    31    32    1
@<TRIPOS>MOLECULE
*****
 37 40 0 0 0
SMALL
GASTEIGER

@<TRIPOS>ATOM
      1 C           3.9407    1.8338   34.0434 C.3     1  UNL1        0.0972
      2 C           4.8315    2.4648   33.0147 C.3     1  UNL1        0.0431
      3 C           4.0293    2.6565   31.7618 C.3     1  UNL1        0.0968
      4 N           2.6427    2.1440   32.0162 N.am    1  UNL1       -0.2623
      5 C           1.5098    2.1406   31.0331 C.2     1  UNL1        0.3073
      6 O           0.1719    1.5925   31.4325 O.2     1  UNL1       -0.2523
      7 N           1.7148    2.6853   29.6506 N.am    1  UNL1       -0.2626
      8 C           2.9895    3.2631   29.1107 C.3     1  UNL1        0.0964
      9 C           2.7436    3.6828   27.6917 C.3     1  UNL1        0.0390
     10 C           1.3171    3.3643   27.3547 C.3     1  UNL1        0.0759
     11 C           0.6812    2.7479   28.5654 C.3     1  UNL1        0.1106
     12 C           2.5879    1.6356   33.4263 C.3     1  UNL1        0.1147
     13 C           5.0663    0.1831   35.7042 C.2     1  UNL1        0.2491
     14 O           5.4592   -0.1850   37.1043 O.2     1  UNL1       -0.2699
     15 N           4.3336    1.4657   35.4435 N.am    1  UNL1       -0.2742
     16 C           3.9938    2.3803   36.5829 C.3     1  UNL1        0.1152
     17 C           6.0856   -2.5607   32.2862 C.ar    1  UNL1        0.0000
     18 C           4.7277   -2.6247   32.9201 C.ar    1  UNL1        0.0001
     19 C           4.3879   -1.7101   34.0594 C.ar    1  UNL1        0.0045
     20 C           5.4061   -0.7315   34.5649 C.ar    1  UNL1        0.0536
     21 C           6.7640   -0.6674   33.9310 C.ar    1  UNL1        0.0045
     22 C           7.1038   -1.5820   32.7917 C.ar    1  UNL1        0.0001
     23 C           7.1050   -5.3044   28.8682 C.ar    1  UNL1       -0.0222
     24 C           6.6732   -3.8942   28.5948 C.ar    1  UNL1       -0.0043
     25 C           6.3334   -2.9796   29.7341 C.ar    1  UNL1       -0.0003
     26 C           6.4254   -3.4752   31.1469 C.ar    1  UNL1       -0.0000
     27 C           6.8572   -4.8855   31.4202 C.ar    1  UNL1       -0.0003
     28 C           7.1970   -5.8000   30.2809 C.ar    1  UNL1       -0.0043
     29 C           7.0167   -5.8706   26.3341 C.3     1  UNL1        0.0050
     30 C           7.4448   -6.2190   27.7288 C.3     1  UNL1        0.0264
     31 N           0.6444    3.6178   26.0382 N.3     1  UNL1       -0.2962
     32 H           1.3844    3.7073   25.3419 H       1  UNL1        0.1233
     33 C          -0.3420    2.6260   25.4968 C.3     1  UNL1        0.0841
     34 C          -1.7610    3.0414   25.2436 C.3     1  UNL1        0.0197
     35 C           0.0903    1.2190   25.2084 C.3     1  UNL1        0.1578
     36 O           1.1782    0.9584   24.2091 O.3     1  UNL1       -0.3497
     37 C           2.6129    0.9524   24.6468 C.3     1  UNL1        0.1742
@<TRIPOS>BOND
     1    29    30    1
     2    30    23    1
     3    23    24   ar
     4    24    25   ar
     5    25    26   ar
     6    26    17    1
     7    17    18   ar
     8    18    19   ar
     9    19    20   ar
    10    20    13    1
    11    13    14    2
    12    13    15   am
    13    15    16    1
    14     1    15    1
    15     1     2    1
    16     2     3    1
    17     3     4    1
    18     4     5   am
    19     5     6    2
    20     5     7   am
    21     7     8    1
    22     8     9    1
    23     9    10    1
    24    10    31    1
    25    31    33    1
    26    33    34    1
    27    33    35    1
    28    35    36    1
    29    36    37    1
    30    10    11    1
    31     4    12    1
    32    20    21   ar
    33    21    22   ar
    34    26    27   ar
    35    27    28   ar
    36    28    23   ar
    37    22    17   ar
    38    12     1    1
    39    11     7    1
    40    31    32    1
@<TRIPOS>MOLECULE
*****
 37 40 0 0 0
SMALL
GASTEIGER

@<TRIPOS>ATOM
      1 C           5.3822   -2.2191   21.6534 C.3     1  UNL1        0.0972
      2 C           4.6613   -3.0363   22.6842 C.3     1  UNL1        0.0431
      3 C           4.3692   -2.1491   23.8578 C.3     1  UNL1        0.0968
      4 N           4.9096   -0.7835   23.5524 N.am    1  UNL1       -0.2623
      5 C           4.8367    0.4150   24.4515 C.2     1  UNL1        0.3073
      6 O           5.4246    1.7219   24.0084 O.2     1  UNL1       -0.2523
      7 N           4.1760    0.3065   25.7938 N.am    1  UNL1       -0.2626
      8 C           3.5471   -0.9276   26.3698 C.3     1  UNL1        0.0964
      9 C           3.0105   -0.5838   27.7277 C.3     1  UNL1        0.0390
     10 C           3.3079    0.8627   27.9909 C.3     1  UNL1        0.0759
     11 C           4.0281    1.4129   26.7958 C.3     1  UNL1        0.1106
     12 C           5.5356   -0.8268   22.1900 C.3     1  UNL1        0.1147
     13 C           5.2105   -2.2221   19.0610 C.2     1  UNL1        0.2491
     14 O           5.6932   -2.7113   17.7277 O.2     1  UNL1       -0.2699
     15 N           5.8649   -2.7083   20.3201 N.am    1  UNL1       -0.2742
     16 C           7.0020   -3.6838   20.2459 C.3     1  UNL1        0.1152
     17 C           1.7992    0.7042   19.2835 C.ar    1  UNL1        0.0000
     18 C           1.6445   -0.6731   19.8571 C.ar    1  UNL1        0.0001
     19 C           2.7816   -1.6485   19.7830 C.ar    1  UNL1        0.0045
     20 C           4.0734   -1.2467   19.1352 C.ar    1  UNL1        0.0536
     21 C           4.2281    0.1306   18.5616 C.ar    1  UNL1        0.0045
     22 C           3.0910    1.1061   18.6357 C.ar    1  UNL1        0.0001
     23 C          -1.6121    3.6305   19.5060 C.ar    1  UNL1       -0.0222
     24 C          -1.3466    2.6996   20.6518 C.ar    1  UNL1       -0.0043
     25 C          -0.2095    1.7242   20.5776 C.ar    1  UNL1       -0.0003
     26 C           0.6621    1.6797   19.3577 C.ar    1  UNL1       -0.0000
     27 C           0.3966    2.6106   18.2119 C.ar    1  UNL1       -0.0003
     28 C          -0.7406    3.5860   18.2861 C.ar    1  UNL1       -0.0043
     29 C          -3.7072    4.7299   18.4327 C.3     1  UNL1        0.0050
     30 C          -2.7492    4.6060   19.5802 C.3     1  UNL1        0.0264
     31 N           2.9481    1.6252   29.2316 N.3     1  UNL1       -0.2962
     32 H           3.5802    2.4243   29.2798 H       1  UNL1        0.1233
     33 C           1.5581    2.1614   29.4057 C.3     1  UNL1        0.0841
     34 C           1.2111    3.5270   28.8908 C.3     1  UNL1        0.0197
     35 C           0.5151    1.3323   30.0945 C.3     1  UNL1        0.1578
     36 O           0.0705    0.0331   29.4910 O.3     1  UNL1       -0.3497
     37 C          -1.3384   -0.1228   29.0003 C.3     1  UNL1        0.1742
@<TRIPOS>BOND
     1    29    30    1
     2    30    23    1
     3    23    24   ar
     4    24    25   ar
     5    25    26   ar
     6    26    17    1
     7    17    18   ar
     8    18    19   ar
     9    19    20   ar
    10    20    13    1
    11    13    14    2
    12    13    15   am
    13    15    16    1
    14     1    15    1
    15     1     2    1
    16     2     3    1
    17     3     4    1
    18     4     5   am
    19     5     6    2
    20     5     7   am
    21     7     8    1
    22     8     9    1
    23     9    10    1
    24    10    31    1
    25    31    33    1
    26    33    34    1
    27    33    35    1
    28    35    36    1
    29    36    37    1
    30    10    11    1
    31     4    12    1
    32    20    21   ar
    33    21    22   ar
    34    26    27   ar
    35    27    28   ar
    36    28    23   ar
    37    22    17   ar
    38    12     1    1
    39    11     7    1
    40    31    32    1
@<TRIPOS>MOLECULE
*****
 37 40 0 0 0
SMALL
GASTEIGER

@<TRIPOS>ATOM
      1 C           3.5620   -0.0740   28.4415 C.3     1  UNL1        0.0972
      2 C           3.1597   -1.2885   27.6585 C.3     1  UNL1        0.0431
      3 C           3.5764   -1.0799   26.2328 C.3     1  UNL1        0.0968
      4 N           4.2363    0.2636   26.1345 N.am    1  UNL1       -0.2623
      5 C           4.8051    0.8776   24.8898 C.2     1  UNL1        0.3073
      6 O           5.4380    2.2365   24.9456 O.2     1  UNL1       -0.2523
      7 N           4.7412    0.1328   23.5894 N.am    1  UNL1       -0.2626
      8 C           4.1422   -1.2265   23.3804 C.3     1  UNL1        0.0964
      9 C           4.2958   -1.5829   21.9315 C.3     1  UNL1        0.0390
     10 C           4.9896   -0.4439   21.2450 C.3     1  UNL1        0.0759
     11 C           5.2649    0.6165   22.2696 C.3     1  UNL1        0.1106
     12 C           4.2273    0.8853   27.4996 C.3     1  UNL1        0.1147
     13 C           2.1248    0.8884   30.3802 C.2     1  UNL1        0.2491
     14 O           1.9011    1.1055   31.8474 O.2     1  UNL1       -0.2699
     15 N           3.3382    0.1432   29.9088 N.am    1  UNL1       -0.2742
     16 C           4.3279   -0.3849   30.9046 C.3     1  UNL1        0.1152
     17 C          -0.8442    2.4726   27.3927 C.ar    1  UNL1        0.0000
     18 C          -0.9737    1.0696   27.9070 C.ar    1  UNL1        0.0001
     19 C           0.0160    0.5415   28.9028 C.ar    1  UNL1        0.0045
     20 C           1.1351    1.4165   29.3844 C.ar    1  UNL1        0.0536
     21 C           1.2646    2.8195   28.8700 C.ar    1  UNL1        0.0045
     22 C           0.2749    3.3476   27.8742 C.ar    1  UNL1        0.0001
     23 C          -3.8133    4.0569   24.4053 C.ar    1  UNL1       -0.0222
     24 C          -2.4658    3.5850   23.9455 C.ar    1  UNL1       -0.0043
     25 C          -1.4761    3.0569   24.9413 C.ar    1  UNL1       -0.0003
     26 C          -1.8339    3.0007   26.3969 C.ar    1  UNL1       -0.0000
     27 C          -3.1814    3.4727   26.8567 C.ar    1  UNL1       -0.0003
     28 C          -4.1711    4.0008   25.8608 C.ar    1  UNL1       -0.0043
     29 C          -6.2688    4.3316   23.6021 C.3     1  UNL1        0.0050
     30 C          -4.8030    4.5850   23.4095 C.3     1  UNL1        0.0264
     31 N           5.3457   -0.3769   19.7894 N.3     1  UNL1       -0.2962
     32 H           6.2107   -0.9049   19.6733 H       1  UNL1        0.1233
     33 C           4.3844   -0.8885   18.7579 C.3     1  UNL1        0.0841
     34 C           3.0739   -0.1910   18.5427 C.3     1  UNL1        0.0197
     35 C           4.7334   -2.0975   17.9415 C.3     1  UNL1        0.1578
     36 O           4.7652   -3.4526   18.5838 O.3     1  UNL1       -0.3497
     37 C           3.5359   -3.9959   19.2500 C.3     1  UNL1        0.1742
@<TRIPOS>BOND
     1    29    30    1
     2    30    23    1
     3    23    24   ar
     4    24    25   ar
     5    25    26   ar
     6    26    17    1
     7    17    18   ar
     8    18    19   ar
     9    19    20   ar
    10    20    13    1
    11    13    14    2
    12    13    15   am
    13    15    16    1
    14     1    15    1
    15     1     2    1
    16     2     3    1
    17     3     4    1
    18     4     5   am
    19     5     6    2
    20     5     7   am
    21     7     8    1
    22     8     9    1
    23     9    10    1
    24    10    31    1
    25    31    33    1
    26    33    34    1
    27    33    35    1
    28    35    36    1
    29    36    37    1
    30    10    11    1
    31     4    12    1
    32    20    21   ar
    33    21    22   ar
    34    26    27   ar
    35    27    28   ar
    36    28    23   ar
    37    22    17   ar
    38    12     1    1
    39    11     7    1
    40    31    32    1
@<TRIPOS>MOLECULE
*****
 37 40 0 0 0
SMALL
GASTEIGER

@<TRIPOS>ATOM
      1 C           3.1390    1.9598   27.4620 C.3     1  UNL1        0.0972
      2 C           2.9097    0.4957   27.2300 C.3     1  UNL1        0.0431
      3 C           3.0506    0.2317   25.7602 C.3     1  UNL1        0.0968
      4 N           3.3671    1.5326   25.0838 N.am    1  UNL1       -0.2623
      5 C           3.5898    1.7307   23.6137 C.2     1  UNL1        0.3073
      6 O           3.8998    3.0977   23.0796 O.2     1  UNL1       -0.2523
      7 N           3.5026    0.5618   22.6777 N.am    1  UNL1       -0.2626
      8 C           3.2025   -0.8564   23.0637 C.3     1  UNL1        0.0964
      9 C           3.2146   -1.6888   21.8160 C.3     1  UNL1        0.0390
     10 C           3.5221   -0.7852   20.6589 C.3     1  UNL1        0.0759
     11 C           3.7001    0.6057   21.1914 C.3     1  UNL1        0.1106
     12 C           3.4217    2.6006   26.1356 C.3     1  UNL1        0.1147
     13 C           1.8687    3.4272   29.1892 C.2     1  UNL1        0.2491
     14 O           1.8233    4.1275   30.5149 O.2     1  UNL1       -0.2699
     15 N           3.0936    2.6601   28.7878 N.am    1  UNL1       -0.2742
     16 C           4.2731    2.5933   29.7121 C.3     1  UNL1        0.1152
     17 C          -1.6699    3.6276   26.4164 C.ar    1  UNL1        0.0000
     18 C          -0.7632    4.8136   26.5622 C.ar    1  UNL1        0.0001
     19 C           0.4163    4.7468   27.4864 C.ar    1  UNL1        0.0045
     20 C           0.6892    3.4940   28.2649 C.ar    1  UNL1        0.0536
     21 C          -0.2176    2.3081   28.1192 C.ar    1  UNL1        0.0045
     22 C          -1.3971    2.3748   27.1949 C.ar    1  UNL1        0.0001
     23 C          -5.2085    3.8280   23.6436 C.ar    1  UNL1       -0.0222
     24 C          -3.8309    3.6198   23.0878 C.ar    1  UNL1       -0.0043
     25 C          -2.6514    3.5530   24.0121 C.ar    1  UNL1       -0.0003
     26 C          -2.8494    3.6944   25.4922 C.ar    1  UNL1       -0.0000
     27 C          -4.2270    3.9026   26.0480 C.ar    1  UNL1       -0.0003
     28 C          -5.4065    3.9694   25.1237 C.ar    1  UNL1       -0.0043
     29 C          -7.2786    5.1017   22.7260 C.3     1  UNL1        0.0050
     30 C          -6.3880    3.8948   22.7194 C.3     1  UNL1        0.0264
     31 N           3.6323   -1.1997   19.2215 N.3     1  UNL1       -0.2962
     32 H           4.1176   -0.4464   18.7342 H       1  UNL1        0.1233
     33 C           4.3369   -2.4737   18.8603 C.3     1  UNL1        0.0841
     34 C           3.6245   -3.7874   18.9897 C.3     1  UNL1        0.0197
     35 C           5.7538   -2.4341   18.3697 C.3     1  UNL1        0.1578
     36 O           6.8757   -2.1935   19.3359 O.3     1  UNL1       -0.3497
     37 C           6.7912   -2.7334   20.7328 C.3     1  UNL1        0.1742
@<TRIPOS>BOND
     1    29    30    1
     2    30    23    1
     3    23    24   ar
     4    24    25   ar
     5    25    26   ar
     6    26    17    1
     7    17    18   ar
     8    18    19   ar
     9    19    20   ar
    10    20    13    1
    11    13    14    2
    12    13    15   am
    13    15    16    1
    14     1    15    1
    15     1     2    1
    16     2     3    1
    17     3     4    1
    18     4     5   am
    19     5     6    2
    20     5     7   am
    21     7     8    1
    22     8     9    1
    23     9    10    1
    24    10    31    1
    25    31    33    1
    26    33    34    1
    27    33    35    1
    28    35    36    1
    29    36    37    1
    30    10    11    1
    31     4    12    1
    32    20    21   ar
    33    21    22   ar
    34    26    27   ar
    35    27    28   ar
    36    28    23   ar
    37    22    17   ar
    38    12     1    1
    39    11     7    1
    40    31    32    1
