@<TRIPOS>MOLECULE
*****
 31 34 0 0 0
SMALL
GASTEIGER

@<TRIPOS>ATOM
      1 C          -8.8118  -19.3352   20.0862 C.3     1  UNL1        0.1528
      2 C          -7.3484  -19.6556   20.1631 C.ar    1  UNL1        0.2480
      3 N          -6.2246  -18.6639   20.1044 N.ar    1  UNL1       -0.1900
      4 C          -4.9335  -19.4193   20.2171 C.ar    1  UNL1        0.2034
      5 N          -5.2596  -20.8778   20.3455 N.ar    1  UNL1       -0.0560
      6 O          -6.7521  -21.0238   20.3121 O.2     1  UNL1       -0.3361
      7 C          -3.5580  -18.8212   20.2038 C.ar    1  UNL1        0.0423
      8 C          -2.8851  -18.4589   21.4945 C.ar    1  UNL1        0.0065
      9 C          -1.5096  -17.8608   21.4813 C.ar    1  UNL1        0.0401
     10 C          -0.8070  -17.6249   20.1772 C.ar    1  UNL1        0.1724
     11 C          -1.4798  -17.9871   18.8864 C.ar    1  UNL1        0.1725
     12 C          -2.8553  -18.5852   18.8997 C.ar    1  UNL1        0.0432
     13 O           0.5686  -17.0268   20.1639 O.3     1  UNL1       -0.4684
     14 C           1.7175  -17.7746   20.7727 C.3     1  UNL1        0.2526
     15 O          -0.7771  -17.7511   17.5824 O.3     1  UNL1       -0.4684
     16 C          -1.5624  -17.7025   16.3053 C.3     1  UNL1        0.2526
     17 S          -9.6717  -19.4579   21.3091 S.3     1  UNL1       -0.0653
     18 N         -10.8496  -17.2439   22.2339 N.ar    1  UNL1       -0.2724
     19 C         -12.2345  -16.6717   22.1657 C.ar    1  UNL1        0.1479
     20 C         -12.6845  -15.3767   22.7746 C.3     1  UNL1        0.0742
     21 N         -13.0906  -17.6218   21.3818 N.ar    1  UNL1       -0.1325
     22 N         -12.2347  -18.7812   20.9655 N.ar    1  UNL1       -0.1221
     23 C         -10.8497  -18.5476   21.4921 C.ar    1  UNL1        0.1973
     24 C          -7.3152  -15.3770   24.3010 C.ar    1  UNL1        0.1388
     25 C          -7.4232  -15.3248   22.8058 C.ar    1  UNL1        0.0384
     26 C          -8.6014  -15.9471   22.1168 C.ar    1  UNL1        0.0207
     27 C          -9.6715  -16.6216   22.9229 C.ar    1  UNL1        0.0671
     28 C          -9.5635  -16.6737   24.4181 C.ar    1  UNL1        0.0207
     29 C          -8.3853  -16.0514   25.1071 C.ar    1  UNL1        0.0384
     30 C          -5.4282  -15.4987   26.0826 C.3     1  UNL1        0.2525
     31 O          -6.1371  -14.7547   24.9900 O.3     1  UNL1       -0.4714
@<TRIPOS>BOND
     1    30    31    1
     2    31    24    1
     3    24    25   ar
     4    25    26   ar
     5    26    27   ar
     6    27    18    1
     7    18    19   ar
     8    19    20    1
     9    19    21   ar
    10    21    22   ar
    11    22    23   ar
    12    23    17    1
    13    17     1    1
    14     1     2    1
    15     2     3   ar
    16     3     4   ar
    17     4     7    1
    18     7     8   ar
    19     8     9   ar
    20     9    10   ar
    21    10    13    1
    22    13    14    1
    23    10    11   ar
    24    11    15    1
    25    15    16    1
    26    11    12   ar
    27     4     5   ar
    28     5     6   ar
    29    27    28   ar
    30    28    29   ar
    31    29    24   ar
    32    23    18   ar
    33     6     2   ar
    34    12     7   ar
@<TRIPOS>MOLECULE
*****
 31 34 0 0 0
SMALL
GASTEIGER

@<TRIPOS>ATOM
      1 C           4.0776   -3.7485   19.9751 C.3     1  UNL1        0.1528
      2 C           5.1975   -4.0045   20.9397 C.ar    1  UNL1        0.2480
      3 N           5.0915   -3.9970   22.4359 N.ar    1  UNL1       -0.1900
      4 C           6.4486   -4.3008   22.9983 C.ar    1  UNL1        0.2034
      5 N           7.3932   -4.4960   21.8495 N.ar    1  UNL1       -0.0560
      6 O           6.6201   -4.3129   20.5772 O.2     1  UNL1       -0.3361
      7 C           6.7993   -4.3932   24.4537 C.ar    1  UNL1        0.0423
      8 C           6.4268   -3.2797   25.3871 C.ar    1  UNL1        0.0065
      9 C           6.7776   -3.3720   26.8426 C.ar    1  UNL1        0.0401
     10 C           7.5009   -4.5780   27.3647 C.ar    1  UNL1        0.1724
     11 C           7.8734   -5.6915   26.4313 C.ar    1  UNL1        0.1725
     12 C           7.5227   -5.5992   24.9758 C.ar    1  UNL1        0.0432
     13 O           7.8516   -4.6703   28.8202 O.3     1  UNL1       -0.4684
     14 C           6.9605   -5.4272   29.7598 C.3     1  UNL1        0.2526
     15 O           8.5967   -6.8974   26.9535 O.3     1  UNL1       -0.4684
     16 C           7.9254   -8.2388   26.9400 C.3     1  UNL1        0.2526
     17 S           4.3790   -3.4743   18.5316 S.3     1  UNL1       -0.0653
     18 N           4.7549   -0.8360   18.3239 N.ar    1  UNL1       -0.2724
     19 C           5.8567    0.0409   17.8073 C.ar    1  UNL1        0.1479
     20 C           5.8543    1.5408   17.7883 C.3     1  UNL1        0.0742
     21 N           6.9614   -0.8453   17.3131 N.ar    1  UNL1       -0.1325
     22 N           6.5423   -2.2700   17.5242 N.ar    1  UNL1       -0.1221
     23 C           5.1786   -2.2642   18.1490 C.ar    1  UNL1        0.1973
     24 C           0.8618    0.5708   20.0888 C.ar    1  UNL1        0.1388
     25 C           1.0959    0.6739   18.6108 C.ar    1  UNL1        0.0384
     26 C           2.3936    0.2049   18.0225 C.ar    1  UNL1        0.0207
     27 C           3.4572   -0.3671   18.9122 C.ar    1  UNL1        0.0671
     28 C           3.2230   -0.4701   20.3902 C.ar    1  UNL1        0.0207
     29 C           1.9253   -0.0011   20.9785 C.ar    1  UNL1        0.0384
     30 C          -0.7937    2.4960   20.6394 C.3     1  UNL1        0.2525
     31 O          -0.4359    1.0398   20.6771 O.3     1  UNL1       -0.4714
@<TRIPOS>BOND
     1    30    31    1
     2    31    24    1
     3    24    25   ar
     4    25    26   ar
     5    26    27   ar
     6    27    18    1
     7    18    19   ar
     8    19    20    1
     9    19    21   ar
    10    21    22   ar
    11    22    23   ar
    12    23    17    1
    13    17     1    1
    14     1     2    1
    15     2     3   ar
    16     3     4   ar
    17     4     7    1
    18     7     8   ar
    19     8     9   ar
    20     9    10   ar
    21    10    13    1
    22    13    14    1
    23    10    11   ar
    24    11    15    1
    25    15    16    1
    26    11    12   ar
    27     4     5   ar
    28     5     6   ar
    29    27    28   ar
    30    28    29   ar
    31    29    24   ar
    32    23    18   ar
    33     6     2   ar
    34    12     7   ar
@<TRIPOS>MOLECULE
*****
 31 34 0 0 0
SMALL
GASTEIGER

@<TRIPOS>ATOM
      1 C          -0.6163    4.3917   21.0213 C.3     1  UNL1        0.1528
      2 C          -0.2363    2.9784   20.6922 C.ar    1  UNL1        0.2480
      3 N           1.0468    2.5363   20.0534 N.ar    1  UNL1       -0.1900
      4 C           1.0034    1.0437   19.9105 C.ar    1  UNL1        0.2034
      5 N          -0.3067    0.5634   20.4611 N.ar    1  UNL1       -0.0560
      6 O          -1.0728    1.7591   20.9442 O.2     1  UNL1       -0.3361
      7 C           2.0807    0.1828   19.3207 C.ar    1  UNL1        0.0423
      8 C           2.8235    0.6411   18.1008 C.ar    1  UNL1        0.0065
      9 C           3.9009   -0.2199   17.5109 C.ar    1  UNL1        0.0401
     10 C           4.2355   -1.5393   18.1410 C.ar    1  UNL1        0.1724
     11 C           3.4929   -1.9977   19.3610 C.ar    1  UNL1        0.1725
     12 C           2.4155   -1.1368   19.9508 C.ar    1  UNL1        0.0432
     13 O           5.3129   -2.4003   17.5512 O.3     1  UNL1       -0.4684
     14 C           6.7167   -2.3067   18.0714 C.3     1  UNL1        0.2526
     15 O           3.8276   -3.3172   19.9910 O.3     1  UNL1       -0.4684
     16 C           3.4003   -4.5939   19.3297 C.3     1  UNL1        0.2526
     17 S          -1.3383    5.2295   20.0082 S.3     1  UNL1       -0.0653
     18 N          -3.8317    4.2802   19.8438 N.ar    1  UNL1       -0.2724
     19 C          -4.6953    3.7539   18.7361 C.ar    1  UNL1        0.1479
     20 C          -6.1051    3.2608   18.8756 C.3     1  UNL1        0.0742
     21 N          -3.9017    3.8071   17.4643 N.ar    1  UNL1       -0.1325
     22 N          -2.5476    4.3664   17.7861 N.ar    1  UNL1       -0.1221
     23 C          -2.5043    4.6588   19.2567 C.ar    1  UNL1        0.1973
     24 C          -5.0151    4.6572   24.1690 C.ar    1  UNL1        0.1388
     25 C          -5.0702    5.8560   23.2691 C.ar    1  UNL1        0.0384
     26 C          -4.6757    5.7303   21.8274 C.ar    1  UNL1        0.0207
     27 C          -4.2262    4.4059   21.2856 C.ar    1  UNL1        0.0671
     28 C          -4.1711    3.2071   22.1854 C.ar    1  UNL1        0.0207
     29 C          -4.5655    3.3328   23.6272 C.ar    1  UNL1        0.0384
     30 C          -4.4857    4.2937   26.6865 C.3     1  UNL1        0.2525
     31 O          -5.4095    4.7829   25.6108 O.3     1  UNL1       -0.4714
@<TRIPOS>BOND
     1    30    31    1
     2    31    24    1
     3    24    25   ar
     4    25    26   ar
     5    26    27   ar
     6    27    18    1
     7    18    19   ar
     8    19    20    1
     9    19    21   ar
    10    21    22   ar
    11    22    23   ar
    12    23    17    1
    13    17     1    1
    14     1     2    1
    15     2     3   ar
    16     3     4   ar
    17     4     7    1
    18     7     8   ar
    19     8     9   ar
    20     9    10   ar
    21    10    13    1
    22    13    14    1
    23    10    11   ar
    24    11    15    1
    25    15    16    1
    26    11    12   ar
    27     4     5   ar
    28     5     6   ar
    29    27    28   ar
    30    28    29   ar
    31    29    24   ar
    32    23    18   ar
    33     6     2   ar
    34    12     7   ar
@<TRIPOS>MOLECULE
*****
 31 34 0 0 0
SMALL
GASTEIGER

@<TRIPOS>ATOM
      1 C          -0.7307    4.3531   20.1058 C.3     1  UNL1        0.1528
      2 C          -0.2630    2.9280   20.1209 C.ar    1  UNL1        0.2480
      3 N           0.9770    2.4000   19.4625 N.ar    1  UNL1       -0.1900
      4 C           1.0532    0.9262   19.7317 C.ar    1  UNL1        0.2034
      5 N          -0.1398    0.5435   20.5565 N.ar    1  UNL1       -0.0560
      6 O          -0.9532    1.7806   20.7970 O.2     1  UNL1       -0.3361
      7 C           2.1327   -0.0017   19.2591 C.ar    1  UNL1        0.0423
      8 C           2.3634   -1.3052   19.9646 C.ar    1  UNL1        0.0065
      9 C           3.4430   -2.2332   19.4920 C.ar    1  UNL1        0.0401
     10 C           4.2920   -1.8576   18.3138 C.ar    1  UNL1        0.1724
     11 C           4.0614   -0.5542   17.6082 C.ar    1  UNL1        0.1725
     12 C           2.9818    0.3738   18.0808 C.ar    1  UNL1        0.0432
     13 O           5.3715   -2.7856   17.8412 O.3     1  UNL1       -0.4684
     14 C           6.8028   -2.5155   18.1998 C.3     1  UNL1        0.2526
     15 O           4.9105   -0.1787   16.4300 O.3     1  UNL1       -0.4684
     16 C           6.0901    0.7292   16.6146 C.3     1  UNL1        0.2526
     17 S          -1.3827    4.9156   18.8777 S.3     1  UNL1       -0.0653
     18 N          -3.9201    4.1614   19.2493 N.ar    1  UNL1       -0.2724
     19 C          -4.9963    3.5915   18.3734 C.ar    1  UNL1        0.1479
     20 C          -6.3873    3.2334   18.8057 C.3     1  UNL1        0.0742
     21 N          -4.4373    3.4427   16.9895 N.ar    1  UNL1       -0.1325
     22 N          -3.0156    3.9206   17.0099 N.ar    1  UNL1       -0.1221
     23 C          -2.6960    4.3648   18.4065 C.ar    1  UNL1        0.1973
     24 C          -4.2976    5.0967   23.6348 C.ar    1  UNL1        0.1388
     25 C          -4.1017    3.6794   23.1843 C.ar    1  UNL1        0.0384
     26 C          -3.9759    3.3677   21.7225 C.ar    1  UNL1        0.0207
     27 C          -4.0459    4.4732   20.7111 C.ar    1  UNL1        0.0671
     28 C          -4.2418    5.8904   21.1616 C.ar    1  UNL1        0.0207
     29 C          -4.3676    6.2022   22.6234 C.ar    1  UNL1        0.0384
     30 C          -5.0523    4.4119   26.0246 C.3     1  UNL1        0.2525
     31 O          -4.4234    5.4085   25.0966 O.3     1  UNL1       -0.4714
@<TRIPOS>BOND
     1    30    31    1
     2    31    24    1
     3    24    25   ar
     4    25    26   ar
     5    26    27   ar
     6    27    18    1
     7    18    19   ar
     8    19    20    1
     9    19    21   ar
    10    21    22   ar
    11    22    23   ar
    12    23    17    1
    13    17     1    1
    14     1     2    1
    15     2     3   ar
    16     3     4   ar
    17     4     7    1
    18     7     8   ar
    19     8     9   ar
    20     9    10   ar
    21    10    13    1
    22    13    14    1
    23    10    11   ar
    24    11    15    1
    25    15    16    1
    26    11    12   ar
    27     4     5   ar
    28     5     6   ar
    29    27    28   ar
    30    28    29   ar
    31    29    24   ar
    32    23    18   ar
    33     6     2   ar
    34    12     7   ar
@<TRIPOS>MOLECULE
*****
 31 34 0 0 0
SMALL
GASTEIGER

@<TRIPOS>ATOM
      1 C           3.9561   -3.6989   20.0372 C.3     1  UNL1        0.1528
      2 C           5.0053   -3.8803   21.0938 C.ar    1  UNL1        0.2480
      3 N           4.8036   -3.7268   22.5722 N.ar    1  UNL1       -0.1900
      4 C           6.1140   -3.9988   23.2496 C.ar    1  UNL1        0.2034
      5 N           7.1256   -4.3204   22.1897 N.ar    1  UNL1       -0.0560
      6 O           6.4404   -4.2472   20.8574 O.2     1  UNL1       -0.3361
      7 C           6.3682   -3.9565   24.7272 C.ar    1  UNL1        0.0423
      8 C           6.9796   -5.1397   25.4173 C.ar    1  UNL1        0.0065
      9 C           7.2338   -5.0975   26.8950 C.ar    1  UNL1        0.0401
     10 C           6.8766   -3.8720   27.6827 C.ar    1  UNL1        0.1724
     11 C           6.2652   -2.6887   26.9927 C.ar    1  UNL1        0.1725
     12 C           6.0110   -2.7309   25.5150 C.ar    1  UNL1        0.0432
     13 O           7.1308   -3.8298   29.1604 O.3     1  UNL1       -0.4684
     14 C           7.0253   -5.0844   29.9757 C.3     1  UNL1        0.2526
     15 O           5.9080   -1.4633   27.7805 O.3     1  UNL1       -0.4684
     16 C           4.4739   -1.0399   27.8996 C.3     1  UNL1        0.2526
     17 S           4.3592   -3.5034   18.6057 S.3     1  UNL1       -0.0653
     18 N           4.7525   -0.8701   18.3691 N.ar    1  UNL1       -0.2724
     19 C           5.8611   -0.0062   17.8451 C.ar    1  UNL1        0.1479
     20 C           5.8685    1.4933   17.8091 C.3     1  UNL1        0.0742
     21 N           6.9611   -0.9051   17.3633 N.ar    1  UNL1       -0.1325
     22 N           6.5324   -2.3246   17.5897 N.ar    1  UNL1       -0.1221
     23 C           5.1674   -2.3029   18.2113 C.ar    1  UNL1        0.1973
     24 C           0.8648    0.5816   20.1093 C.ar    1  UNL1        0.1388
     25 C           1.9248    0.0177   21.0083 C.ar    1  UNL1        0.0384
     26 C           3.2207   -0.4662   20.4283 C.ar    1  UNL1        0.0207
     27 C           3.4566   -0.3862   18.9492 C.ar    1  UNL1        0.0671
     28 C           2.3966    0.1777   18.0501 C.ar    1  UNL1        0.0207
     29 C           1.1007    0.6616   18.6301 C.ar    1  UNL1        0.0384
     30 C          -0.8236    2.5065   20.5497 C.3     1  UNL1        0.2525
     31 O          -0.4311    1.0655   20.6893 O.3     1  UNL1       -0.4714
@<TRIPOS>BOND
     1    30    31    1
     2    31    24    1
     3    24    25   ar
     4    25    26   ar
     5    26    27   ar
     6    27    18    1
     7    18    19   ar
     8    19    20    1
     9    19    21   ar
    10    21    22   ar
    11    22    23   ar
    12    23    17    1
    13    17     1    1
    14     1     2    1
    15     2     3   ar
    16     3     4   ar
    17     4     7    1
    18     7     8   ar
    19     8     9   ar
    20     9    10   ar
    21    10    13    1
    22    13    14    1
    23    10    11   ar
    24    11    15    1
    25    15    16    1
    26    11    12   ar
    27     4     5   ar
    28     5     6   ar
    29    27    28   ar
    30    28    29   ar
    31    29    24   ar
    32    23    18   ar
    33     6     2   ar
    34    12     7   ar
@<TRIPOS>MOLECULE
*****
 31 34 0 0 0
SMALL
GASTEIGER

@<TRIPOS>ATOM
      1 C           4.4051   -4.3516   20.0411 C.3     1  UNL1        0.1528
      2 C           4.7333   -3.8439   21.4139 C.ar    1  UNL1        0.2480
      3 N           3.9880   -2.7782   22.1614 N.ar    1  UNL1       -0.1900
      4 C           4.6586   -2.5885   23.4897 C.ar    1  UNL1        0.2034
      5 N           5.8184   -3.5370   23.5631 N.ar    1  UNL1       -0.0560
      6 O           5.8646   -4.3129   22.2802 O.2     1  UNL1       -0.3361
      7 C           4.2425   -1.6204   24.5571 C.ar    1  UNL1        0.0423
      8 C           4.8338   -1.7200   25.9321 C.ar    1  UNL1        0.0065
      9 C           4.4177   -0.7519   26.9995 C.ar    1  UNL1        0.0401
     10 C           3.4102    0.3160   26.6921 C.ar    1  UNL1        0.1724
     11 C           2.8188    0.4157   25.3172 C.ar    1  UNL1        0.1725
     12 C           3.2349   -0.5525   24.2497 C.ar    1  UNL1        0.0432
     13 O           2.9940    1.2841   27.7596 O.3     1  UNL1       -0.4684
     14 C           1.7589    1.0224   28.5694 C.3     1  UNL1        0.2526
     15 O           1.8112    1.4836   25.0098 O.3     1  UNL1       -0.4684
     16 C           0.3507    1.1451   24.9614 C.3     1  UNL1        0.2526
     17 S           3.8446   -3.4174   19.0101 S.3     1  UNL1       -0.0653
     18 N           4.3862   -0.8608   18.4484 N.ar    1  UNL1       -0.2724
     19 C           5.5159   -0.1390   17.7756 C.ar    1  UNL1        0.1479
     20 C           5.6137    1.3428   17.5638 C.3     1  UNL1        0.0742
     21 N           6.5307   -1.1591   17.3517 N.ar    1  UNL1       -0.1325
     22 N           6.0282   -2.5113   17.7626 N.ar    1  UNL1       -0.1221
     23 C           4.7028   -2.3270   18.4404 C.ar    1  UNL1        0.1973
     24 C           0.6953    1.0388   20.1859 C.ar    1  UNL1        0.1388
     25 C           1.7637    0.5070   21.0945 C.ar    1  UNL1        0.0384
     26 C           2.9940   -0.1262   20.5153 C.ar    1  UNL1        0.0207
     27 C           3.1559   -0.2276   19.0276 C.ar    1  UNL1        0.0671
     28 C           2.0874    0.3042   18.1190 C.ar    1  UNL1        0.0207
     29 C           0.8571    0.9374   18.6981 C.ar    1  UNL1        0.0384
     30 C          -1.0334    2.9780   20.2210 C.3     1  UNL1        0.2525
     31 O          -0.5350    1.6720   20.7650 O.3     1  UNL1       -0.4714
@<TRIPOS>BOND
     1    30    31    1
     2    31    24    1
     3    24    25   ar
     4    25    26   ar
     5    26    27   ar
     6    27    18    1
     7    18    19   ar
     8    19    20    1
     9    19    21   ar
    10    21    22   ar
    11    22    23   ar
    12    23    17    1
    13    17     1    1
    14     1     2    1
    15     2     3   ar
    16     3     4   ar
    17     4     7    1
    18     7     8   ar
    19     8     9   ar
    20     9    10   ar
    21    10    13    1
    22    13    14    1
    23    10    11   ar
    24    11    15    1
    25    15    16    1
    26    11    12   ar
    27     4     5   ar
    28     5     6   ar
    29    27    28   ar
    30    28    29   ar
    31    29    24   ar
    32    23    18   ar
    33     6     2   ar
    34    12     7   ar
@<TRIPOS>MOLECULE
*****
 31 34 0 0 0
SMALL
GASTEIGER

@<TRIPOS>ATOM
      1 C           4.5303   -4.3972   19.9709 C.3     1  UNL1        0.1528
      2 C           4.8771   -3.8894   21.3391 C.ar    1  UNL1        0.2480
      3 N           4.1333   -2.8340   22.1025 N.ar    1  UNL1       -0.1900
      4 C           4.8250   -2.6402   23.4194 C.ar    1  UNL1        0.2034
      5 N           5.9963   -3.5760   23.4697 N.ar    1  UNL1       -0.0560
      6 O           6.0285   -4.3480   22.1840 O.2     1  UNL1       -0.3361
      7 C           4.4171   -1.6795   24.4966 C.ar    1  UNL1        0.0423
      8 C           3.2636   -0.7472   24.2727 C.ar    1  UNL1        0.0065
      9 C           2.8556    0.2136   25.3500 C.ar    1  UNL1        0.0401
     10 C           3.6012    0.2421   26.6512 C.ar    1  UNL1        0.1724
     11 C           4.7548   -0.6902   26.8751 C.ar    1  UNL1        0.1725
     12 C           5.1628   -1.6510   25.7979 C.ar    1  UNL1        0.0432
     13 O           3.1933    1.2029   27.7284 O.3     1  UNL1       -0.4684
     14 C           1.7698    1.2410   28.1997 C.3     1  UNL1        0.2526
     15 O           5.5004   -0.6617   28.1764 O.3     1  UNL1       -0.4684
     16 C           5.7539   -1.9374   28.9236 C.3     1  UNL1        0.2526
     17 S           3.9526   -3.4639   18.9486 S.3     1  UNL1       -0.0653
     18 N           4.4367   -0.8910   18.4092 N.ar    1  UNL1       -0.2724
     19 C           5.5539   -0.1374   17.7505 C.ar    1  UNL1        0.1479
     20 C           5.6176    1.3478   17.5498 C.3     1  UNL1        0.0742
     21 N           6.5964   -1.1296   17.3278 N.ar    1  UNL1       -0.1325
     22 N           6.1234   -2.4965   17.7251 N.ar    1  UNL1       -0.1221
     23 C           4.7886   -2.3490   18.3934 C.ar    1  UNL1        0.1973
     24 C           0.6874    0.9066   20.1300 C.ar    1  UNL1        0.1388
     25 C           1.6997    0.2724   21.0370 C.ar    1  UNL1        0.0384
     26 C           2.9495   -0.3268   20.4634 C.ar    1  UNL1        0.0207
     27 C           3.1869   -0.2918   18.9828 C.ar    1  UNL1        0.0671
     28 C           2.1745    0.3425   18.0757 C.ar    1  UNL1        0.0207
     29 C           0.9248    0.9417   18.6493 C.ar    1  UNL1        0.0384
     30 C          -0.4709    2.6510   21.6680 C.3     1  UNL1        0.2525
     31 O          -0.5624    1.5058   20.7036 O.3     1  UNL1       -0.4714
@<TRIPOS>BOND
     1    30    31    1
     2    31    24    1
     3    24    25   ar
     4    25    26   ar
     5    26    27   ar
     6    27    18    1
     7    18    19   ar
     8    19    20    1
     9    19    21   ar
    10    21    22   ar
    11    22    23   ar
    12    23    17    1
    13    17     1    1
    14     1     2    1
    15     2     3   ar
    16     3     4   ar
    17     4     7    1
    18     7     8   ar
    19     8     9   ar
    20     9    10   ar
    21    10    13    1
    22    13    14    1
    23    10    11   ar
    24    11    15    1
    25    15    16    1
    26    11    12   ar
    27     4     5   ar
    28     5     6   ar
    29    27    28   ar
    30    28    29   ar
    31    29    24   ar
    32    23    18   ar
    33     6     2   ar
    34    12     7   ar
@<TRIPOS>MOLECULE
*****
 31 34 0 0 0
SMALL
GASTEIGER

@<TRIPOS>ATOM
      1 C           9.5220   -2.8618   20.0984 C.3     1  UNL1        0.1528
      2 C           9.1188   -3.9589   21.0385 C.ar    1  UNL1        0.2480
      3 N           8.9182   -3.8222   22.5188 N.ar    1  UNL1       -0.1900
      4 C           8.5207   -5.1641   23.0586 C.ar    1  UNL1        0.2034
      5 N           8.4757   -6.1301   21.9119 N.ar    1  UNL1       -0.0560
      6 O           8.8453   -5.3852   20.6634 O.2     1  UNL1       -0.3361
      7 C           8.2210   -5.4838   24.4930 C.ar    1  UNL1        0.0423
      8 C           8.1131   -4.3784   25.5012 C.ar    1  UNL1        0.0065
      9 C           7.8133   -4.6982   26.9358 C.ar    1  UNL1        0.0401
     10 C           7.6214   -6.1234   27.3621 C.ar    1  UNL1        0.1724
     11 C           7.7293   -7.2289   26.3541 C.ar    1  UNL1        0.1725
     12 C           8.0290   -6.9092   24.9195 C.ar    1  UNL1        0.0432
     13 O           7.3216   -6.4431   28.7967 O.3     1  UNL1       -0.4684
     14 C           7.5938   -5.4255   29.8646 C.3     1  UNL1        0.2526
     15 O           7.5373   -8.6541   26.7805 O.3     1  UNL1       -0.4684
     16 C           8.6273   -9.3678   27.5238 C.3     1  UNL1        0.2526
     17 S           8.5780   -1.7307   19.8167 S.3     1  UNL1       -0.0653
     18 N           5.9450   -2.1900   19.8496 N.ar    1  UNL1       -0.2724
     19 C           4.8981   -2.4358   18.8039 C.ar    1  UNL1        0.1479
     20 C           3.4391   -2.6763   19.0563 C.3     1  UNL1        0.0742
     21 N           5.5662   -2.3990   17.4614 N.ar    1  UNL1       -0.1325
     22 N           7.0260   -2.1304   17.6774 N.ar    1  UNL1       -0.1221
     23 C           7.2601   -2.0012   19.1534 C.ar    1  UNL1        0.1973
     24 C           5.2604   -2.0442   24.2948 C.ar    1  UNL1        0.1388
     25 C           5.5038   -0.7762   23.5315 C.ar    1  UNL1        0.0384
     26 C           5.7320   -0.8247   22.0498 C.ar    1  UNL1        0.0207
     27 C           5.7168   -2.1414   21.3313 C.ar    1  UNL1        0.0671
     28 C           5.4734   -3.4095   22.0947 C.ar    1  UNL1        0.0207
     29 C           5.2453   -3.3609   23.5764 C.ar    1  UNL1        0.0384
     30 C           4.1764   -0.9154   26.3686 C.3     1  UNL1        0.2525
     31 O           5.0323   -1.9957   25.7766 O.3     1  UNL1       -0.4714
@<TRIPOS>BOND
     1    30    31    1
     2    31    24    1
     3    24    25   ar
     4    25    26   ar
     5    26    27   ar
     6    27    18    1
     7    18    19   ar
     8    19    20    1
     9    19    21   ar
    10    21    22   ar
    11    22    23   ar
    12    23    17    1
    13    17     1    1
    14     1     2    1
    15     2     3   ar
    16     3     4   ar
    17     4     7    1
    18     7     8   ar
    19     8     9   ar
    20     9    10   ar
    21    10    13    1
    22    13    14    1
    23    10    11   ar
    24    11    15    1
    25    15    16    1
    26    11    12   ar
    27     4     5   ar
    28     5     6   ar
    29    27    28   ar
    30    28    29   ar
    31    29    24   ar
    32    23    18   ar
    33     6     2   ar
    34    12     7   ar
@<TRIPOS>MOLECULE
*****
 31 34 0 0 0
SMALL
GASTEIGER

@<TRIPOS>ATOM
      1 C           5.2932   -0.2509   22.7796 C.3     1  UNL1        0.1528
      2 C           5.3309   -0.8183   24.1677 C.ar    1  UNL1        0.2480
      3 N           4.5727   -0.2991   25.3532 N.ar    1  UNL1       -0.1900
      4 C           4.9066   -1.1644   26.5322 C.ar    1  UNL1        0.2034
      5 N           5.8711   -2.2184   26.0751 N.ar    1  UNL1       -0.0560
      6 O           6.1334   -2.0045   24.6138 O.2     1  UNL1       -0.3361
      7 C           4.3702   -1.0040   27.9237 C.ar    1  UNL1        0.0423
      8 C           5.2865   -1.1497   29.1023 C.ar    1  UNL1        0.0065
      9 C           4.7501   -0.9892   30.4939 C.ar    1  UNL1        0.0401
     10 C           3.2972   -0.6830   30.7068 C.ar    1  UNL1        0.1724
     11 C           2.3808   -0.5373   29.5283 C.ar    1  UNL1        0.1725
     12 C           2.9172   -0.6977   28.1367 C.ar    1  UNL1        0.0432
     13 O           2.7608   -0.5226   32.0984 O.3     1  UNL1       -0.4684
     14 C           3.4973    0.3249   33.0931 C.3     1  UNL1        0.2526
     15 O           0.9279   -0.2311   29.7414 O.3     1  UNL1       -0.4684
     16 C           0.4735    1.1920   29.8773 C.3     1  UNL1        0.2526
     17 S           6.2541   -0.7470   21.7402 S.3     1  UNL1       -0.0653
     18 N           4.9748   -2.4939   20.1727 N.ar    1  UNL1       -0.2724
     19 C           5.1658   -3.9389   19.8186 C.ar    1  UNL1        0.1479
     20 C           4.3022   -4.7408   18.8906 C.3     1  UNL1        0.0742
     21 N           6.3718   -4.4414   20.5556 N.ar    1  UNL1       -0.1325
     22 N           6.9263   -3.3068   21.3651 N.ar    1  UNL1       -0.1221
     23 C           6.0629   -2.1032   21.1284 C.ar    1  UNL1        0.1973
     24 C           1.7111    0.1968   18.6372 C.ar    1  UNL1        0.1388
     25 C           1.5244   -0.5489   19.9251 C.ar    1  UNL1        0.0384
     26 C           2.6123   -1.4458   20.4370 C.ar    1  UNL1        0.0207
     27 C           3.8869   -1.5970   19.6608 C.ar    1  UNL1        0.0671
     28 C           4.0736   -0.8512   18.3729 C.ar    1  UNL1        0.0207
     29 C           2.9857    0.0457   17.8610 C.ar    1  UNL1        0.0384
     30 C           0.6394    2.5567   18.4563 C.3     1  UNL1        0.2525
     31 O           0.6231    1.0938   18.1253 O.3     1  UNL1       -0.4714
@<TRIPOS>BOND
     1    30    31    1
     2    31    24    1
     3    24    25   ar
     4    25    26   ar
     5    26    27   ar
     6    27    18    1
     7    18    19   ar
     8    19    20    1
     9    19    21   ar
    10    21    22   ar
    11    22    23   ar
    12    23    17    1
    13    17     1    1
    14     1     2    1
    15     2     3   ar
    16     3     4   ar
    17     4     7    1
    18     7     8   ar
    19     8     9   ar
    20     9    10   ar
    21    10    13    1
    22    13    14    1
    23    10    11   ar
    24    11    15    1
    25    15    16    1
    26    11    12   ar
    27     4     5   ar
    28     5     6   ar
    29    27    28   ar
    30    28    29   ar
    31    29    24   ar
    32    23    18   ar
    33     6     2   ar
    34    12     7   ar
