@<TRIPOS>MOLECULE
*****
 38 40 0 0 0
SMALL
GASTEIGER

@<TRIPOS>ATOM
      1 C           4.2660   -5.3998   18.9853 C.3     1  UNL1        0.0310
      2 C           4.1972   -4.1492   19.8107 C.ar    1  UNL1       -0.0220
      3 C           4.4598   -4.2090   21.2863 C.ar    1  UNL1       -0.0030
      4 C           4.3910   -2.9584   22.1116 C.ar    1  UNL1        0.0139
      5 C           4.0596   -1.6480   21.4614 C.ar    1  UNL1        0.0454
      6 C           3.7970   -1.5881   19.9858 C.ar    1  UNL1        0.0085
      7 C           3.8658   -2.8387   19.1605 C.ar    1  UNL1       -0.0057
      8 N           3.9908   -0.3973   22.2868 N.pl3   1  UNL1       -0.3043
      9 C           2.7674   -0.1041   23.1035 C.3     1  UNL1        0.1123
     10 C           2.6986    1.1465   23.9289 C.3     1  UNL1        0.1148
     11 N           3.8533    2.1039   23.9375 N.am    1  UNL1       -0.2760
     12 C           3.7845    3.3545   24.7629 C.2     1  UNL1        0.2256
     13 O           4.9391    4.3119   24.7715 O.2     1  UNL1       -0.2749
     14 C           5.0767    1.8107   23.1207 C.3     1  UNL1        0.1148
     15 C           5.1455    0.5600   22.2954 C.3     1  UNL1        0.1123
     16 C           2.5610    3.6477   25.5796 C.3     1  UNL1        0.0811
     17 C           1.3917    4.3484   24.9539 C.3     1  UNL1        0.0099
     18 C           2.5069    3.2402   27.0223 C.3     1  UNL1        0.0354
     19 C           1.5013    2.2247   27.4775 C.ar    1  UNL1       -0.0217
     20 C           0.0348    2.4984   27.3202 C.ar    1  UNL1       -0.0034
     21 C          -0.9707    1.4828   27.7755 C.ar    1  UNL1        0.0111
     22 C          -0.5100    0.1934   28.3880 C.ar    1  UNL1        0.0577
     23 CL         -1.5156   -0.8221   28.8433 Cl      1  UNL1       -0.0822
     24 C           0.9564   -0.0803   28.5453 C.ar    1  UNL1        0.0111
     25 C           1.9621    0.9353   28.0900 C.ar    1  UNL1       -0.0034
     26 C           3.4655   -0.2776   19.3355 C.3     1  UNL1        0.0951
     27 N           4.5534    0.5481   18.7152 N.am    1  UNL1       -0.3021
     28 C           4.9785    0.2877   17.3005 C.2     1  UNL1        0.2241
     29 O           4.3159   -0.7985   16.5061 O.2     1  UNL1       -0.2750
     30 H           4.9883    1.2610   19.2366 H       1  UNL1        0.1497
     31 C           6.0663    1.1135   16.6802 C.3     1  UNL1        0.1023
     32 C           7.4820    0.9671   17.1542 C.3     1  UNL1        0.0818
     33 N           7.7748    0.8663   18.6219 N.3     1  UNL1       -0.2699
     34 C           8.1008   -0.4647   19.2319 C.3     1  UNL1        0.0897
     35 C           7.7417    2.0965   19.4795 C.3     1  UNL1        0.0897
     36 C           2.0464    0.2071   19.3056 C.3     1  UNL1        0.0223
     37 C           1.6862    1.4242   18.5062 C.3     1  UNL1        0.0020
     38 C           0.9873   -0.5254   20.0749 C.3     1  UNL1        0.0020
@<TRIPOS>BOND
     1     1     2    1
     2     2     3   ar
     3     3     4   ar
     4     4     5   ar
     5     5     8    1
     6     8     9    1
     7     9    10    1
     8    10    11    1
     9    11    12   am
    10    12    13    2
    11    12    16    1
    12    16    17    1
    13    16    18    1
    14    18    19    1
    15    19    20   ar
    16    20    21   ar
    17    21    22   ar
    18    22    23    1
    19    22    24   ar
    20    24    25   ar
    21    11    14    1
    22    14    15    1
    23     5     6   ar
    24     6    26    1
    25    26    27    1
    26    27    28   am
    27    28    29    2
    28    28    31    1
    29    31    32    1
    30    32    33    1
    31    33    34    1
    32    33    35    1
    33    26    36    1
    34    36    37    1
    35    36    38    1
    36     6     7   ar
    37     7     2   ar
    38    15     8    1
    39    25    19   ar
    40    27    30    1
@<TRIPOS>MOLECULE
*****
 38 40 0 0 0
SMALL
GASTEIGER

@<TRIPOS>ATOM
      1 C           6.8220   -5.0684   29.7396 C.3     1  UNL1        0.0310
      2 C           6.7984   -4.7538   28.2731 C.ar    1  UNL1       -0.0220
      3 C           7.0356   -5.8422   27.2686 C.ar    1  UNL1       -0.0030
      4 C           7.0119   -5.5275   25.8022 C.ar    1  UNL1        0.0139
      5 C           6.7511   -4.1245   25.3403 C.ar    1  UNL1        0.0454
      6 C           6.5139   -3.0361   26.3448 C.ar    1  UNL1        0.0085
      7 C           6.5376   -3.3508   27.8112 C.ar    1  UNL1       -0.0057
      8 N           6.7275   -3.8098   23.8738 N.pl3   1  UNL1       -0.3043
      9 C           5.4438   -3.9139   23.1050 C.3     1  UNL1        0.1123
     10 C           5.4201   -3.5992   21.6386 C.3     1  UNL1        0.1148
     11 N           6.6803   -3.1805   20.9410 N.am    1  UNL1       -0.2760
     12 C           6.6567   -2.8658   19.4745 C.2     1  UNL1        0.2256
     13 O           7.9168   -2.4471   18.7769 O.2     1  UNL1       -0.2749
     14 C           7.9640   -3.0765   21.7098 C.3     1  UNL1        0.1148
     15 C           7.9876   -3.3911   23.1762 C.3     1  UNL1        0.1123
     16 C           5.3729   -2.9699   18.7057 C.3     1  UNL1        0.0811
     17 C           4.6635   -4.2877   18.6052 C.3     1  UNL1        0.0099
     18 C           4.7985   -1.7560   18.0373 C.3     1  UNL1        0.0354
     19 C           3.5755   -1.0968   18.6026 C.ar    1  UNL1       -0.0217
     20 C           3.0124   -1.5590   19.9139 C.ar    1  UNL1       -0.0034
     21 C           1.7894   -0.8997   20.4791 C.ar    1  UNL1        0.0111
     22 C           1.1294    0.2218   19.7331 C.ar    1  UNL1        0.0577
     23 CL         -0.0936    0.8811   20.2983 Cl      1  UNL1       -0.0822
     24 C           1.6923    0.6841   18.4219 C.ar    1  UNL1        0.0111
     25 C           2.9154    0.0248   17.8566 C.ar    1  UNL1       -0.0034
     26 C           6.2531   -1.6330   25.8829 C.3     1  UNL1        0.0951
     27 N           4.8435   -1.1448   25.7263 N.am    1  UNL1       -0.3021
     28 C           4.2191   -0.2999   26.7969 C.2     1  UNL1        0.2241
     29 O           5.0043    0.0568   28.0242 O.2     1  UNL1       -0.2750
     30 H           4.3281   -1.3789   24.9208 H       1  UNL1        0.1497
     31 C           2.8094    0.1883   26.6404 C.3     1  UNL1        0.1023
     32 C           2.1244    0.8806   27.7812 C.3     1  UNL1        0.0818
     33 N           1.4178    0.0758   28.8314 N.3     1  UNL1       -0.2699
     34 C          -0.0645   -0.1360   28.7429 C.3     1  UNL1        0.0897
     35 C           2.1935   -0.5172   29.9702 C.3     1  UNL1        0.0897
     36 C           7.4019   -0.7181   25.5776 C.3     1  UNL1        0.0223
     37 C           7.1938    0.4799   24.6992 C.3     1  UNL1        0.0020
     38 C           8.7589   -1.0011   26.1508 C.3     1  UNL1        0.0020
@<TRIPOS>BOND
     1     1     2    1
     2     2     3   ar
     3     3     4   ar
     4     4     5   ar
     5     5     8    1
     6     8     9    1
     7     9    10    1
     8    10    11    1
     9    11    12   am
    10    12    13    2
    11    12    16    1
    12    16    17    1
    13    16    18    1
    14    18    19    1
    15    19    20   ar
    16    20    21   ar
    17    21    22   ar
    18    22    23    1
    19    22    24   ar
    20    24    25   ar
    21    11    14    1
    22    14    15    1
    23     5     6   ar
    24     6    26    1
    25    26    27    1
    26    27    28   am
    27    28    29    2
    28    28    31    1
    29    31    32    1
    30    32    33    1
    31    33    34    1
    32    33    35    1
    33    26    36    1
    34    36    37    1
    35    36    38    1
    36     6     7   ar
    37     7     2   ar
    38    15     8    1
    39    25    19   ar
    40    27    30    1
@<TRIPOS>MOLECULE
*****
 38 40 0 0 0
SMALL
GASTEIGER

@<TRIPOS>ATOM
      1 C           7.0540   -5.7886   29.6131 C.3     1  UNL1        0.0310
      2 C           6.9973   -5.3727   28.1730 C.ar    1  UNL1       -0.0220
      3 C           7.3427   -6.3560   27.0942 C.ar    1  UNL1       -0.0030
      4 C           7.2860   -5.9401   25.6542 C.ar    1  UNL1        0.0139
      5 C           6.8840   -4.5409   25.2929 C.ar    1  UNL1        0.0454
      6 C           6.5387   -3.5576   26.3717 C.ar    1  UNL1        0.0085
      7 C           6.5953   -3.9735   27.8117 C.ar    1  UNL1       -0.0057
      8 N           6.8274   -4.1250   23.8528 N.pl3   1  UNL1       -0.3043
      9 C           5.5427   -4.2439   23.0878 C.3     1  UNL1        0.1123
     10 C           5.4860   -3.8280   21.6477 C.3     1  UNL1        0.1148
     11 N           6.7141   -3.2931   20.9727 N.am    1  UNL1       -0.2760
     12 C           6.6574   -2.8772   19.5326 C.2     1  UNL1        0.2256
     13 O           7.8855   -2.3424   18.8576 O.2     1  UNL1       -0.2749
     14 C           7.9988   -3.1742   21.7377 C.3     1  UNL1        0.1148
     15 C           8.0554   -3.5901   23.1778 C.3     1  UNL1        0.1123
     16 C           5.3727   -2.9962   18.7676 C.3     1  UNL1        0.0811
     17 C           4.6631   -4.3157   18.6939 C.3     1  UNL1        0.0099
     18 C           4.7975   -1.7956   18.0762 C.3     1  UNL1        0.0354
     19 C           3.5692   -1.1315   18.6241 C.ar    1  UNL1       -0.0217
     20 C           2.9122   -0.0212   17.8587 C.ar    1  UNL1       -0.0034
     21 C           1.6839    0.6429   18.4066 C.ar    1  UNL1        0.0111
     22 C           1.1126    0.1968   19.7199 C.ar    1  UNL1        0.0577
     23 CL         -0.1157    0.8609   20.2677 Cl      1  UNL1       -0.0822
     24 C           1.7696   -0.9134   20.4852 C.ar    1  UNL1        0.0111
     25 C           2.9979   -1.5776   19.9374 C.ar    1  UNL1       -0.0034
     26 C           6.1367   -2.1583   26.0104 C.3     1  UNL1        0.0951
     27 N           4.7493   -1.8817   25.5116 N.am    1  UNL1       -0.3021
     28 C           4.5494   -1.1875   24.1971 C.2     1  UNL1        0.2241
     29 O           5.7369   -0.7698   23.3813 O.2     1  UNL1       -0.2750
     30 H           3.9700   -2.1558   26.0471 H       1  UNL1        0.1497
     31 C           3.1621   -0.9109   23.6983 C.3     1  UNL1        0.1023
     32 C           2.4078    0.2834   24.2033 C.3     1  UNL1        0.0818
     33 N           2.8975    1.0235   25.4125 N.3     1  UNL1       -0.2699
     34 C           2.4724    0.5858   26.7828 C.3     1  UNL1        0.0897
     35 C           3.8124    2.2012   25.2516 C.3     1  UNL1        0.0897
     36 C           7.1220   -1.0357   26.1479 C.3     1  UNL1        0.0223
     37 C           8.5526   -1.2400   25.7460 C.3     1  UNL1        0.0020
     38 C           6.6766    0.2912   26.6874 C.3     1  UNL1        0.0020
@<TRIPOS>BOND
     1     1     2    1
     2     2     3   ar
     3     3     4   ar
     4     4     5   ar
     5     5     8    1
     6     8     9    1
     7     9    10    1
     8    10    11    1
     9    11    12   am
    10    12    13    2
    11    12    16    1
    12    16    17    1
    13    16    18    1
    14    18    19    1
    15    19    20   ar
    16    20    21   ar
    17    21    22   ar
    18    22    23    1
    19    22    24   ar
    20    24    25   ar
    21    11    14    1
    22    14    15    1
    23     5     6   ar
    24     6    26    1
    25    26    27    1
    26    27    28   am
    27    28    29    2
    28    28    31    1
    29    31    32    1
    30    32    33    1
    31    33    34    1
    32    33    35    1
    33    26    36    1
    34    36    37    1
    35    36    38    1
    36     6     7   ar
    37     7     2   ar
    38    15     8    1
    39    25    19   ar
    40    27    30    1
@<TRIPOS>MOLECULE
*****
 38 40 0 0 0
SMALL
GASTEIGER

@<TRIPOS>ATOM
      1 C           5.0798   -1.0568   30.4403 C.3     1  UNL1        0.0310
      2 C           5.1859   -1.2440   28.9559 C.ar    1  UNL1       -0.0220
      3 C           6.0529   -2.3332   28.3974 C.ar    1  UNL1       -0.0030
      4 C           6.1590   -2.5205   26.9129 C.ar    1  UNL1        0.0139
      5 C           5.3981   -1.6186   25.9869 C.ar    1  UNL1        0.0454
      6 C           4.5311   -0.5294   26.5454 C.ar    1  UNL1        0.0085
      7 C           4.4250   -0.3421   28.0298 C.ar    1  UNL1       -0.0057
      8 N           5.5042   -1.8059   24.5024 N.pl3   1  UNL1       -0.3043
      9 C           4.3002   -2.2234   23.7112 C.3     1  UNL1        0.1123
     10 C           4.4063   -2.4106   22.2267 C.3     1  UNL1        0.1148
     11 N           5.7164   -2.1804   21.5335 N.am    1  UNL1       -0.2760
     12 C           5.8225   -2.3677   20.0490 C.2     1  UNL1        0.2256
     13 O           7.1326   -2.1374   19.3557 O.2     1  UNL1       -0.2749
     14 C           6.9204   -1.7629   22.3247 C.3     1  UNL1        0.1148
     15 C           6.8143   -1.5756   23.8092 C.3     1  UNL1        0.1123
     16 C           4.6185   -2.7852   19.2578 C.3     1  UNL1        0.0811
     17 C           4.0568   -4.1666   19.4196 C.3     1  UNL1        0.0099
     18 C           3.9763   -1.8213   18.3046 C.3     1  UNL1        0.0354
     19 C           2.9295   -0.8659   18.7958 C.ar    1  UNL1       -0.0217
     20 C           2.7593    0.4676   18.1301 C.ar    1  UNL1       -0.0034
     21 C           1.7125    1.4230   18.6214 C.ar    1  UNL1        0.0111
     22 C           0.8358    1.0450   19.7783 C.ar    1  UNL1        0.0577
     23 CL         -0.2110    2.0004   20.2696 Cl      1  UNL1       -0.0822
     24 C           1.0059   -0.2883   20.4440 C.ar    1  UNL1        0.0111
     25 C           2.0527   -1.2438   19.9528 C.ar    1  UNL1       -0.0034
     26 C           3.7702    0.3726   25.6193 C.3     1  UNL1        0.0951
     27 N           2.2728    0.3011   25.5652 N.am    1  UNL1       -0.3021
     28 C           1.4468    1.3588   26.2352 C.2     1  UNL1        0.2241
     29 O           2.1181    2.4880   26.9594 O.2     1  UNL1       -0.2750
     30 H           1.8323   -0.4400   25.0900 H       1  UNL1        0.1497
     31 C          -0.0505    1.2873   26.1811 C.3     1  UNL1        0.1023
     32 C          -0.8619    1.6243   27.3970 C.3     1  UNL1        0.0818
     33 N          -0.6724    0.8453   28.6647 N.3     1  UNL1       -0.2699
     34 C          -1.3148   -0.5011   28.8207 C.3     1  UNL1        0.0897
     35 C           0.1596    1.4127   29.7764 C.3     1  UNL1        0.0897
     36 C           4.5065    1.3460   24.7475 C.3     1  UNL1        0.0223
     37 C           4.0863    1.5420   23.3209 C.3     1  UNL1        0.0020
     38 C           5.6632    2.1235   25.3021 C.3     1  UNL1        0.0020
@<TRIPOS>BOND
     1     1     2    1
     2     2     3   ar
     3     3     4   ar
     4     4     5   ar
     5     5     8    1
     6     8     9    1
     7     9    10    1
     8    10    11    1
     9    11    12   am
    10    12    13    2
    11    12    16    1
    12    16    17    1
    13    16    18    1
    14    18    19    1
    15    19    20   ar
    16    20    21   ar
    17    21    22   ar
    18    22    23    1
    19    22    24   ar
    20    24    25   ar
    21    11    14    1
    22    14    15    1
    23     5     6   ar
    24     6    26    1
    25    26    27    1
    26    27    28   am
    27    28    29    2
    28    28    31    1
    29    31    32    1
    30    32    33    1
    31    33    34    1
    32    33    35    1
    33    26    36    1
    34    36    37    1
    35    36    38    1
    36     6     7   ar
    37     7     2   ar
    38    15     8    1
    39    25    19   ar
    40    27    30    1
@<TRIPOS>MOLECULE
*****
 38 40 0 0 0
SMALL
GASTEIGER

@<TRIPOS>ATOM
      1 C           0.4251    1.4047   19.7746 C.3     1  UNL1        0.0310
      2 C           1.5003    0.6236   20.4702 C.ar    1  UNL1       -0.0220
      3 C           1.4978    0.5119   21.9660 C.ar    1  UNL1       -0.0030
      4 C           2.5731   -0.2692   22.6615 C.ar    1  UNL1        0.0139
      5 C           3.6508   -0.9385   21.8612 C.ar    1  UNL1        0.0454
      6 C           3.6533   -0.8268   20.3654 C.ar    1  UNL1        0.0085
      7 C           2.5780   -0.0457   19.6699 C.ar    1  UNL1       -0.0057
      8 N           4.7261   -1.7196   22.5567 N.pl3   1  UNL1       -0.3043
      9 C           4.5353   -3.1829   22.8259 C.3     1  UNL1        0.1123
     10 C           5.6106   -3.9639   23.5214 C.3     1  UNL1        0.1148
     11 N           6.8766   -3.2818   23.9478 N.am    1  UNL1       -0.2760
     12 C           7.9518   -4.0629   24.6433 C.2     1  UNL1        0.2256
     13 O           9.2178   -3.3807   25.0696 O.2     1  UNL1       -0.2749
     14 C           7.0673   -1.8185   23.6786 C.3     1  UNL1        0.1148
     15 C           5.9921   -1.0375   22.9831 C.3     1  UNL1        0.1123
     16 C           7.7611   -5.5261   24.9124 C.3     1  UNL1        0.0811
     17 C           8.3164   -6.5427   23.9595 C.3     1  UNL1        0.0099
     18 C           7.0149   -5.9729   26.1347 C.3     1  UNL1        0.0354
     19 C           7.4175   -5.4640   27.4870 C.ar    1  UNL1       -0.0217
     20 C           8.8274   -5.6435   27.9667 C.ar    1  UNL1       -0.0034
     21 C           9.2301   -5.1347   29.3190 C.ar    1  UNL1        0.0111
     22 C           8.2229   -4.4462   30.1917 C.ar    1  UNL1        0.0577
     23 CL          8.6256   -3.9373   31.5441 Cl      1  UNL1       -0.0822
     24 C           6.8131   -4.2666   29.7121 C.ar    1  UNL1        0.0111
     25 C           6.4104   -4.7755   28.3597 C.ar    1  UNL1       -0.0034
     26 C           4.7310   -1.4961   19.5650 C.3     1  UNL1        0.0951
     27 N           5.7798   -0.6702   18.8810 N.am    1  UNL1       -0.3021
     28 C           5.6319   -0.3224   17.4294 C.2     1  UNL1        0.2241
     29 O           4.4351   -0.8006   16.6618 O.2     1  UNL1       -0.2750
     30 H           6.5653   -0.3564   19.3848 H       1  UNL1        0.1497
     31 C           6.6807    0.5035   16.7454 C.3     1  UNL1        0.1023
     32 C           7.8308    1.0574   17.5330 C.3     1  UNL1        0.0818
     33 N           7.5731    1.9609   18.7023 N.3     1  UNL1       -0.2699
     34 C           8.2826    1.7254   20.0027 C.3     1  UNL1        0.0897
     35 C           6.6058    3.0999   18.5712 C.3     1  UNL1        0.0897
     36 C           4.7600   -2.9913   19.4488 C.3     1  UNL1        0.0223
     37 C           3.4908   -3.7483   19.1913 C.3     1  UNL1        0.0020
     38 C           6.0581   -3.7296   19.5899 C.3     1  UNL1        0.0020
@<TRIPOS>BOND
     1     1     2    1
     2     2     3   ar
     3     3     4   ar
     4     4     5   ar
     5     5     8    1
     6     8     9    1
     7     9    10    1
     8    10    11    1
     9    11    12   am
    10    12    13    2
    11    12    16    1
    12    16    17    1
    13    16    18    1
    14    18    19    1
    15    19    20   ar
    16    20    21   ar
    17    21    22   ar
    18    22    23    1
    19    22    24   ar
    20    24    25   ar
    21    11    14    1
    22    14    15    1
    23     5     6   ar
    24     6    26    1
    25    26    27    1
    26    27    28   am
    27    28    29    2
    28    28    31    1
    29    31    32    1
    30    32    33    1
    31    33    34    1
    32    33    35    1
    33    26    36    1
    34    36    37    1
    35    36    38    1
    36     6     7   ar
    37     7     2   ar
    38    15     8    1
    39    25    19   ar
    40    27    30    1
@<TRIPOS>MOLECULE
*****
 38 40 0 0 0
SMALL
GASTEIGER

@<TRIPOS>ATOM
      1 C           3.6482   -0.9094   16.8799 C.3     1  UNL1        0.0310
      2 C           3.3113   -0.4727   18.2748 C.ar    1  UNL1       -0.0220
      3 C           3.3136   -1.4709   19.3943 C.ar    1  UNL1       -0.0030
      4 C           2.9767   -1.0342   20.7892 C.ar    1  UNL1        0.0139
      5 C           2.6375    0.4007   21.0646 C.ar    1  UNL1        0.0454
      6 C           2.6353    1.3990   19.9451 C.ar    1  UNL1        0.0085
      7 C           2.9722    0.9623   18.5501 C.ar    1  UNL1       -0.0057
      8 N           2.3006    0.8374   22.4595 N.pl3   1  UNL1       -0.3043
      9 C           0.8664    0.9567   22.8823 C.3     1  UNL1        0.1123
     10 C           0.5295    1.3934   24.2772 C.3     1  UNL1        0.1148
     11 N           1.6268    1.7108   25.2494 N.am    1  UNL1       -0.2760
     12 C           1.2900    2.1475   26.6443 C.2     1  UNL1        0.2256
     13 O           2.3873    2.4649   27.6164 O.2     1  UNL1       -0.2749
     14 C           3.0610    1.5915   24.8266 C.3     1  UNL1        0.1148
     15 C           3.3979    1.1548   23.4317 C.3     1  UNL1        0.1123
     16 C          -0.1443    2.2668   27.0671 C.3     1  UNL1        0.0811
     17 C          -0.8685    1.0702   27.6087 C.3     1  UNL1        0.0099
     18 C          -0.8543    3.5828   26.9482 C.3     1  UNL1        0.0354
     19 C          -2.1277    3.6796   26.1614 C.ar    1  UNL1       -0.0217
     20 C          -3.4202    3.9809   26.8605 C.ar    1  UNL1       -0.0034
     21 C          -4.6936    4.0777   26.0738 C.ar    1  UNL1        0.0111
     22 C          -4.6745    3.8732   24.5879 C.ar    1  UNL1        0.0577
     23 CL         -5.9479    3.9700   23.8011 Cl      1  UNL1       -0.0822
     24 C          -3.3821    3.5720   23.8888 C.ar    1  UNL1        0.0111
     25 C          -2.1086    3.4752   24.6755 C.ar    1  UNL1       -0.0034
     26 C           2.2961    2.8340   20.2204 C.3     1  UNL1        0.0951
     27 N           0.9674    3.3854   19.7956 N.am    1  UNL1       -0.3021
     28 C           0.8564    4.1834   18.5304 C.2     1  UNL1        0.2241
     29 O           2.0741    4.4301   17.6899 O.2     1  UNL1       -0.2750
     30 H           0.1682    3.2236   20.3472 H       1  UNL1        0.1497
     31 C          -0.4724    4.7349   18.1056 C.3     1  UNL1        0.1023
     32 C          -1.7343    4.0021   18.4532 C.3     1  UNL1        0.0818
     33 N          -2.3754    4.2067   19.7937 N.3     1  UNL1       -0.2699
     34 C          -1.9699    5.3701   20.6492 C.3     1  UNL1        0.0897
     35 C          -3.4222    3.2480   20.2786 C.3     1  UNL1        0.0897
     36 C           3.2857    3.7175   20.9204 C.3     1  UNL1        0.0223
     37 C           2.8529    4.5460   22.0937 C.3     1  UNL1        0.0020
     38 C           4.7080    3.7727   20.4473 C.3     1  UNL1        0.0020
@<TRIPOS>BOND
     1     1     2    1
     2     2     3   ar
     3     3     4   ar
     4     4     5   ar
     5     5     8    1
     6     8     9    1
     7     9    10    1
     8    10    11    1
     9    11    12   am
    10    12    13    2
    11    12    16    1
    12    16    17    1
    13    16    18    1
    14    18    19    1
    15    19    20   ar
    16    20    21   ar
    17    21    22   ar
    18    22    23    1
    19    22    24   ar
    20    24    25   ar
    21    11    14    1
    22    14    15    1
    23     5     6   ar
    24     6    26    1
    25    26    27    1
    26    27    28   am
    27    28    29    2
    28    28    31    1
    29    31    32    1
    30    32    33    1
    31    33    34    1
    32    33    35    1
    33    26    36    1
    34    36    37    1
    35    36    38    1
    36     6     7   ar
    37     7     2   ar
    38    15     8    1
    39    25    19   ar
    40    27    30    1
@<TRIPOS>MOLECULE
*****
 38 40 0 0 0
SMALL
GASTEIGER

@<TRIPOS>ATOM
      1 C          -1.4929    2.6476   25.0006 C.3     1  UNL1        0.0310
      2 C          -0.5643    2.2142   26.0960 C.ar    1  UNL1       -0.0220
      3 C          -1.0078    2.2857   27.5272 C.ar    1  UNL1       -0.0030
      4 C          -0.0792    1.8523   28.6226 C.ar    1  UNL1        0.0139
      5 C           1.2927    1.3474   28.2869 C.ar    1  UNL1        0.0454
      6 C           1.7362    1.2760   26.8558 C.ar    1  UNL1        0.0085
      7 C           0.8076    1.7094   25.7603 C.ar    1  UNL1       -0.0057
      8 N           2.2213    0.9140   29.3823 N.pl3   1  UNL1       -0.3043
      9 C           2.5137   -0.5432   29.5849 C.3     1  UNL1        0.1123
     10 C           3.4422   -0.9766   30.6804 C.3     1  UNL1        0.1148
     11 N           4.0783    0.0472   31.5732 N.am    1  UNL1       -0.2760
     12 C           5.0069   -0.3862   32.6686 C.2     1  UNL1        0.2256
     13 O           5.6430    0.6376   33.5615 O.2     1  UNL1       -0.2749
     14 C           3.7859    1.5044   31.3706 C.3     1  UNL1        0.1148
     15 C           2.8574    1.9378   30.2752 C.3     1  UNL1        0.1123
     16 C           5.2993   -1.8434   32.8712 C.3     1  UNL1        0.0811
     17 C           4.2871   -2.7256   33.5399 C.3     1  UNL1        0.0099
     18 C           6.6040   -2.4184   32.4051 C.3     1  UNL1        0.0354
     19 C           6.6442   -3.3012   31.1931 C.ar    1  UNL1       -0.0217
     20 C           6.4526   -2.7100   29.8279 C.ar    1  UNL1       -0.0034
     21 C           6.4928   -3.5929   28.6159 C.ar    1  UNL1        0.0111
     22 C           6.7246   -5.0669   28.7691 C.ar    1  UNL1        0.0577
     23 CL          6.7648   -5.9497   27.5571 Cl      1  UNL1       -0.0822
     24 C           6.9163   -5.6581   30.1342 C.ar    1  UNL1        0.0111
     25 C           6.8761   -4.7753   31.3463 C.ar    1  UNL1       -0.0034
     26 C           3.1082    0.7711   26.5200 C.3     1  UNL1        0.0951
     27 N           3.2695   -0.4995   25.7392 N.am    1  UNL1       -0.3021
     28 C           3.5607   -0.4443   24.2688 C.2     1  UNL1        0.2241
     29 O           3.6906    0.8815   23.5791 O.2     1  UNL1       -0.2750
     30 H           3.1843   -1.3696   26.1918 H       1  UNL1        0.1497
     31 C           3.7220   -1.7149   23.4879 C.3     1  UNL1        0.1023
     32 C           4.8340   -2.6645   23.8222 C.3     1  UNL1        0.0818
     33 N           5.4380   -3.5200   22.7482 N.3     1  UNL1       -0.2699
     34 C           4.6150   -3.9267   21.5620 C.3     1  UNL1        0.0897
     35 C           6.8649   -3.9687   22.8605 C.3     1  UNL1        0.0897
     36 C           4.3188    1.5367   26.9650 C.3     1  UNL1        0.0223
     37 C           5.5056    0.8067   27.5207 C.3     1  UNL1        0.0020
     38 C           4.3428    3.0325   26.8545 C.3     1  UNL1        0.0020
@<TRIPOS>BOND
     1     1     2    1
     2     2     3   ar
     3     3     4   ar
     4     4     5   ar
     5     5     8    1
     6     8     9    1
     7     9    10    1
     8    10    11    1
     9    11    12   am
    10    12    13    2
    11    12    16    1
    12    16    17    1
    13    16    18    1
    14    18    19    1
    15    19    20   ar
    16    20    21   ar
    17    21    22   ar
    18    22    23    1
    19    22    24   ar
    20    24    25   ar
    21    11    14    1
    22    14    15    1
    23     5     6   ar
    24     6    26    1
    25    26    27    1
    26    27    28   am
    27    28    29    2
    28    28    31    1
    29    31    32    1
    30    32    33    1
    31    33    34    1
    32    33    35    1
    33    26    36    1
    34    36    37    1
    35    36    38    1
    36     6     7   ar
    37     7     2   ar
    38    15     8    1
    39    25    19   ar
    40    27    30    1
@<TRIPOS>MOLECULE
*****
 38 40 0 0 0
SMALL
GASTEIGER

@<TRIPOS>ATOM
      1 C           4.5648    4.3699   17.4751 C.3     1  UNL1        0.0310
      2 C           4.8328    3.4724   18.6467 C.ar    1  UNL1       -0.0220
      3 C           5.9452    3.7951   19.5997 C.ar    1  UNL1       -0.0030
      4 C           6.2132    2.8976   20.7713 C.ar    1  UNL1        0.0139
      5 C           5.3687    1.6773   20.9899 C.ar    1  UNL1        0.0454
      6 C           4.2563    1.3546   20.0369 C.ar    1  UNL1        0.0085
      7 C           3.9883    2.2522   18.8653 C.ar    1  UNL1       -0.0057
      8 N           5.6367    0.7798   22.1615 N.pl3   1  UNL1       -0.3043
      9 C           6.5942   -0.3667   22.0244 C.3     1  UNL1        0.1123
     10 C           6.8621   -1.2642   23.1960 C.3     1  UNL1        0.1148
     11 N           6.1727   -1.0153   24.5046 N.am    1  UNL1       -0.2760
     12 C           6.4407   -1.9128   25.6762 C.2     1  UNL1        0.2256
     13 O           5.7513   -1.6638   26.9849 O.2     1  UNL1       -0.2749
     14 C           5.2153    0.1312   24.6417 C.3     1  UNL1        0.1148
     15 C           4.9473    1.0288   23.4701 C.3     1  UNL1        0.1123
     16 C           7.3981   -3.0593   25.5392 C.3     1  UNL1        0.0811
     17 C           8.8392   -2.8822   25.9160 C.3     1  UNL1        0.0099
     18 C           6.9145   -4.3830   25.0252 C.3     1  UNL1        0.0354
     19 C           7.3808   -5.6540   25.6710 C.ar    1  UNL1       -0.0217
     20 C           7.1940   -5.8587   27.1452 C.ar    1  UNL1       -0.0034
     21 C           7.6603   -7.1297   27.7910 C.ar    1  UNL1        0.0111
     22 C           8.3134   -8.1960   26.9626 C.ar    1  UNL1        0.0577
     23 CL          8.7797   -9.4670   27.6084 Cl      1  UNL1       -0.0822
     24 C           8.5003   -7.9914   25.4885 C.ar    1  UNL1        0.0111
     25 C           8.0340   -6.7204   24.8426 C.ar    1  UNL1       -0.0034
     26 C           3.4117    0.1343   20.2555 C.3     1  UNL1        0.0951
     27 N           3.9825   -1.2287   19.9980 N.am    1  UNL1       -0.3021
     28 C           4.0447   -1.7635   18.5980 C.2     1  UNL1        0.2241
     29 O           3.5361   -0.9353   17.4554 O.2     1  UNL1       -0.2750
     30 H           4.3163   -1.7723   20.7479 H       1  UNL1        0.1497
     31 C           4.6155   -3.1266   18.3405 C.3     1  UNL1        0.1023
     32 C           4.5642   -4.1757   19.4114 C.3     1  UNL1        0.0818
     33 N           5.3605   -4.0017   20.6705 N.3     1  UNL1       -0.2699
     34 C           6.8566   -3.9159   20.6059 C.3     1  UNL1        0.0897
     35 C           4.6607   -3.9136   21.9944 C.3     1  UNL1        0.0897
     36 C           1.9965    0.2771   20.7315 C.3     1  UNL1        0.0223
     37 C           0.9084   -0.5451   20.1068 C.3     1  UNL1        0.0020
     38 C           1.6692    1.2421   21.8323 C.3     1  UNL1        0.0020
@<TRIPOS>BOND
     1     1     2    1
     2     2     3   ar
     3     3     4   ar
     4     4     5   ar
     5     5     8    1
     6     8     9    1
     7     9    10    1
     8    10    11    1
     9    11    12   am
    10    12    13    2
    11    12    16    1
    12    16    17    1
    13    16    18    1
    14    18    19    1
    15    19    20   ar
    16    20    21   ar
    17    21    22   ar
    18    22    23    1
    19    22    24   ar
    20    24    25   ar
    21    11    14    1
    22    14    15    1
    23     5     6   ar
    24     6    26    1
    25    26    27    1
    26    27    28   am
    27    28    29    2
    28    28    31    1
    29    31    32    1
    30    32    33    1
    31    33    34    1
    32    33    35    1
    33    26    36    1
    34    36    37    1
    35    36    38    1
    36     6     7   ar
    37     7     2   ar
    38    15     8    1
    39    25    19   ar
    40    27    30    1
@<TRIPOS>MOLECULE
*****
 38 40 0 0 0
SMALL
GASTEIGER

@<TRIPOS>ATOM
      1 C           0.0557    1.3674   29.8698 C.3     1  UNL1        0.0310
      2 C           0.3368    1.5767   28.4113 C.ar    1  UNL1       -0.0220
      3 C           1.4301    0.8003   27.7393 C.ar    1  UNL1       -0.0030
      4 C           1.7112    1.0097   26.2808 C.ar    1  UNL1        0.0139
      5 C           0.8990    1.9954   25.4943 C.ar    1  UNL1        0.0454
      6 C          -0.1944    2.7718   26.1664 C.ar    1  UNL1        0.0085
      7 C          -0.4755    2.5624   27.6249 C.ar    1  UNL1       -0.0057
      8 N           1.1801    2.2047   24.0359 N.pl3   1  UNL1       -0.3043
      9 C           0.2303    1.6710   23.0049 C.3     1  UNL1        0.1123
     10 C           0.5114    1.8803   21.5464 C.3     1  UNL1        0.1148
     11 N           1.7423    2.6233   21.1189 N.am    1  UNL1       -0.2760
     12 C           2.0234    2.8327   19.6604 C.2     1  UNL1        0.2256
     13 O           3.2542    3.5757   19.2329 O.2     1  UNL1       -0.2749
     14 C           2.6920    3.1571   22.1499 C.3     1  UNL1        0.1148
     15 C           2.4109    2.9477   23.6084 C.3     1  UNL1        0.1123
     16 C           1.0736    2.2989   18.6294 C.3     1  UNL1        0.0811
     17 C           0.1152    3.2254   17.9415 C.3     1  UNL1        0.0099
     18 C           1.0822    0.8387   18.2862 C.3     1  UNL1        0.0354
     19 C           2.2757   -0.0043   18.6250 C.ar    1  UNL1       -0.0217
     20 C           2.2321   -0.9249   19.8086 C.ar    1  UNL1       -0.0034
     21 C           3.4256   -1.7679   20.1474 C.ar    1  UNL1        0.0111
     22 C           4.6627   -1.6905   19.3026 C.ar    1  UNL1        0.0577
     23 CL          5.8562   -2.5335   19.6414 Cl      1  UNL1       -0.0822
     24 C           4.7063   -0.7700   18.1191 C.ar    1  UNL1        0.0111
     25 C           3.5128    0.0731   17.7802 C.ar    1  UNL1       -0.0034
     26 C          -1.0068    3.7575   25.3800 C.3     1  UNL1        0.0951
     27 N          -2.3960    3.4026   24.9395 N.am    1  UNL1       -0.3021
     28 C          -3.5804    3.9597   25.6722 C.2     1  UNL1        0.2241
     29 O          -3.3756    4.8718   26.8453 O.2     1  UNL1       -0.2750
     30 H          -2.5305    2.8039   24.1696 H       1  UNL1        0.1497
     31 C          -4.9697    3.6047   25.2318 C.3     1  UNL1        0.1023
     32 C          -5.6983    4.4887   24.2634 C.3     1  UNL1        0.0818
     33 N          -5.7794    4.1078   22.8149 N.3     1  UNL1       -0.2699
     34 C          -4.8890    3.0297   22.2720 C.3     1  UNL1        0.0897
     35 C          -6.7507    4.8052   21.9092 C.3     1  UNL1        0.0897
     36 C          -0.4298    5.0982   25.0340 C.3     1  UNL1        0.0223
     37 C          -0.3246    5.5217   23.5988 C.3     1  UNL1        0.0020
     38 C           0.0418    6.0154   26.1231 C.3     1  UNL1        0.0020
@<TRIPOS>BOND
     1     1     2    1
     2     2     3   ar
     3     3     4   ar
     4     4     5   ar
     5     5     8    1
     6     8     9    1
     7     9    10    1
     8    10    11    1
     9    11    12   am
    10    12    13    2
    11    12    16    1
    12    16    17    1
    13    16    18    1
    14    18    19    1
    15    19    20   ar
    16    20    21   ar
    17    21    22   ar
    18    22    23    1
    19    22    24   ar
    20    24    25   ar
    21    11    14    1
    22    14    15    1
    23     5     6   ar
    24     6    26    1
    25    26    27    1
    26    27    28   am
    27    28    29    2
    28    28    31    1
    29    31    32    1
    30    32    33    1
    31    33    34    1
    32    33    35    1
    33    26    36    1
    34    36    37    1
    35    36    38    1
    36     6     7   ar
    37     7     2   ar
    38    15     8    1
    39    25    19   ar
    40    27    30    1
