@<TRIPOS>MOLECULE
*****
 65 71 0 0 0
SMALL
GASTEIGER

@<TRIPOS>ATOM
      1 C           4.1829    0.1851   19.4419 C.3     1  UNL1        0.1175
      2 O           3.4844    0.9383   20.5350 O.3     1  UNL1       -0.3367
      3 C           2.0461    1.3322   20.3737 C.3     1  UNL1        0.1902
      4 C           1.3061    0.9728   19.1194 C.3     1  UNL1        0.0564
      5 C           2.0046    0.2195   18.0264 C.3     1  UNL1        0.0074
      6 C           3.4429   -0.1743   18.1876 C.3     1  UNL1        0.0275
      7 C           4.1414   -0.9276   17.0945 C.3     1  UNL1        0.0025
      8 C           0.6077    1.7260   20.2125 C.3     1  UNL1        0.0998
      9 C          -0.0907    2.4793   21.3056 C.3     1  UNL1        0.1762
     10 C           0.6492    2.8387   22.5599 C.3     1  UNL1        0.0737
     11 C           2.0876    2.4449   22.7211 C.3     1  UNL1        0.1255
     12 C           3.0339    2.8423   24.1955 C.3     1  UNL1        0.0552
     13 C           3.1519    3.4576   25.5585 C.2     1  UNL1       -0.0298
     14 C           2.7122    4.1925   26.7899 C.2     1  UNL1       -0.0211
     15 C           3.9699    4.1726   27.6071 C.3     1  UNL1        0.0285
     16 C           1.7819    4.9352   27.7025 C.3     1  UNL1        0.1397
     17 C           0.5024    5.5725   28.1573 C.3     1  UNL1        0.0532
     18 C           0.5465    6.1444   29.3794 C.3     1  UNL1        0.0075
     19 C          -0.9313    6.0075   28.0850 C.2     1  UNL1       -0.0237
     20 C          -2.3010    6.1740   27.4968 C.2     1  UNL1       -0.0050
     21 C          -3.3982    6.0465   26.4820 C.2     1  UNL1       -0.0041
     22 C          -4.0559    5.6445   25.1951 C.2     1  UNL1        0.0122
     23 C          -5.3830    6.2484   25.5476 C.3     1  UNL1        0.1668
     24 O          -6.3211    6.0062   24.4024 O.3     1  UNL1       -0.3462
     25 C          -5.5739    5.2528   23.3423 C.3     1  UNL1        0.1749
     26 C          -6.6112    5.0480   22.2073 C.3     1  UNL1        0.1582
     27 O          -8.0498    5.4250   22.0107 O.3     1  UNL1       -0.3778
     28 C          -5.8801    4.2945   21.1361 C.2     1  UNL1       -0.0188
     29 C          -6.5875    3.9179   19.8681 C.3     1  UNL1        0.0285
     30 C          -4.4417    3.9176   21.3327 C.2     1  UNL1       -0.0188
     31 C          -3.7342    4.2943   22.6007 C.3     1  UNL1        0.1510
     32 C          -2.8039    3.5516   21.6881 C.2     1  UNL1        0.3232
     33 O          -3.6985    3.2817   20.5148 O.2     1  UNL1       -0.2497
     34 O          -1.5245    2.9143   21.2333 O.3     1  UNL1       -0.4517
     35 C          -4.1739    5.0292   23.8322 C.3     1  UNL1        0.1467
     36 O          -4.8813    4.6525   22.5642 O.3     1  UNL1       -0.3795
     37 O           2.7860    1.6916   21.6281 O.3     1  UNL1       -0.3362
     38 H          -8.3515    5.1084   21.1449 H       1  UNL1        0.2109
     39 H          -4.2700    4.1735   21.9831 H       1  UNL1        0.2108
     40 C           5.6212   -0.2087   19.6032 C.3     1  UNL1        0.0273
     41 C           6.7080    0.7089   19.1270 C.3     1  UNL1        0.0025
     42 C           4.8935   -2.5109   20.5626 C.3     1  UNL1        0.0001
     43 C           5.9728   -1.5202   20.2406 C.3     1  UNL1        0.0024
     44 O           2.6766    5.2051   28.8759 O.3     1  UNL1       -0.3284
     45 C           2.4506    4.4853   30.1725 C.3     1  UNL1        0.2379
     46 C           2.1126    3.0239   30.1699 C.3     1  UNL1        0.0934
     47 C           1.8867    2.3041   31.4665 C.3     1  UNL1        0.1498
     48 C           1.9989    3.0459   32.7655 C.3     1  UNL1        0.1718
     49 C           2.3369    4.5072   32.7679 C.3     1  UNL1        0.1473
     50 C           2.4491    5.2490   34.0668 C.3     1  UNL1        0.0348
     51 O           2.5628    5.2270   31.4714 O.3     1  UNL1       -0.3304
     52 O           1.5487    0.8428   31.4641 O.3     1  UNL1       -0.3508
     53 C           2.4537   -0.1353   30.7754 C.3     1  UNL1        0.1741
     54 O           1.7730    2.3262   34.0620 O.3     1  UNL1       -0.3279
     55 C           2.9078    1.6054   34.7273 C.3     1  UNL1        0.2377
     56 C           3.2792    1.9355   36.1426 C.3     1  UNL1        0.0934
     57 C           4.4140    1.2147   36.8079 C.3     1  UNL1        0.1494
     58 C           5.1774    0.1637   36.0579 C.3     1  UNL1        0.1647
     59 O           6.3122   -0.5571   36.7231 O.3     1  UNL1       -0.3795
     60 C           4.8060   -0.1665   34.6426 C.3     1  UNL1        0.1469
     61 C           5.5695   -1.2175   33.8926 C.3     1  UNL1        0.0348
     62 O           3.6713    0.5543   33.9773 O.3     1  UNL1       -0.3304
     63 H           6.4188   -0.2263   37.6287 H       1  UNL1        0.2105
     64 O           4.7853    1.5449   38.2232 O.3     1  UNL1       -0.3508
     65 C           4.0631    2.6388   38.9524 C.3     1  UNL1        0.1741
@<TRIPOS>BOND
     1    42    43    1
     2    43    40    1
     3    40    41    1
     4    40     1    1
     5     1     2    1
     6     2     3    1
     7     3     4    1
     8     4     5    1
     9     5     6    1
    10     6     7    1
    11     3     8    1
    12     9     8    1
    13     9    10    1
    14    10    11    1
    15    11    12    1
    16    12    13    1
    17    13    14    2
    18    14    15    1
    19    14    16    1
    20    16    44    1
    21    45    44    1
    22    45    46    1
    23    46    47    1
    24    47    52    1
    25    52    53    1
    26    47    48    1
    27    48    54    1
    28    55    54    1
    29    55    56    1
    30    56    57    1
    31    57    64    1
    32    64    65    1
    33    57    58    1
    34    58    59    1
    35    58    60    1
    36    60    61    1
    37    60    62    1
    38    48    49    1
    39    49    50    1
    40    49    51    1
    41    16    17    1
    42    17    18    1
    43    17    19    1
    44    19    20    2
    45    20    21    1
    46    21    22    2
    47    22    23    1
    48    23    24    1
    49    25    24    1
    50    25    26    1
    51    26    27    1
    52    26    28    1
    53    28    29    1
    54    28    30    2
    55    31    30    1
    56    31    32    1
    57    32    33    2
    58    32    34    1
    59    31    35    1
    60    35    36    1
    61    11    37    1
    62     6     1    1
    63    34     9    1
    64    37     3    1
    65    51    45    1
    66    35    22    1
    67    62    55    1
    68    35    25    1
    69    59    63    1
    70    27    38    1
    71    36    39    1
@<TRIPOS>MOLECULE
*****
 65 71 0 0 0
SMALL
GASTEIGER

@<TRIPOS>ATOM
      1 C           4.2203   -0.9317   20.7954 C.3     1  UNL1        0.1175
      2 O           3.4954    0.0623   21.6536 O.3     1  UNL1       -0.3367
      3 C           2.1137    0.5099   21.2789 C.3     1  UNL1        0.1902
      4 C           1.4568   -0.0364   20.0460 C.3     1  UNL1        0.0564
      5 C           2.1817   -1.0304   19.1878 C.3     1  UNL1        0.0074
      6 C           3.5635   -1.4780   19.5625 C.3     1  UNL1        0.0275
      7 C           4.2884   -2.4721   18.7043 C.3     1  UNL1        0.0025
      8 C           0.7319    0.9575   20.9042 C.3     1  UNL1        0.0998
      9 C           0.0071    1.9516   21.7625 C.3     1  UNL1        0.1762
     10 C           0.6639    2.4979   22.9953 C.3     1  UNL1        0.0737
     11 C           2.0457    2.0502   23.3700 C.3     1  UNL1        0.1255
     12 C           2.8917    2.6630   24.8316 C.3     1  UNL1        0.0552
     13 C           2.9429    3.5211   26.0608 C.2     1  UNL1       -0.0298
     14 C           2.4615    4.5070   27.0835 C.2     1  UNL1       -0.0211
     15 C           3.6386    4.5640   28.0117 C.3     1  UNL1        0.0285
     16 C           1.5209    5.4708   27.7442 C.3     1  UNL1        0.1397
     17 C           0.2643    6.2656   27.9421 C.3     1  UNL1        0.0532
     18 C           0.2506    7.0589   29.0344 C.3     1  UNL1        0.0075
     19 C          -1.1170    6.7705   27.6472 C.2     1  UNL1       -0.0237
     20 C          -2.4128    6.9085   26.9044 C.2     1  UNL1       -0.0050
     21 C          -3.4257    6.6587   25.8267 C.2     1  UNL1       -0.0041
     22 C          -4.0017    6.0591   24.5781 C.2     1  UNL1        0.0122
     23 C          -5.2996    6.8044   24.6775 C.3     1  UNL1        0.1668
     24 O          -6.1529    6.4069   23.5096 O.3     1  UNL1       -0.3462
     25 C          -5.3824    5.4159   22.6885 C.3     1  UNL1        0.1749
     26 C          -6.3320    5.0634   21.5137 C.3     1  UNL1        0.1582
     27 O          -7.7123    5.4876   21.1076 O.3     1  UNL1       -0.3778
     28 C          -5.5765    4.0712   20.6802 C.2     1  UNL1       -0.0188
     29 C          -6.2014    3.5033   19.4404 C.3     1  UNL1        0.0285
     30 C          -4.1963    3.6470   21.0863 C.2     1  UNL1       -0.0188
     31 C          -3.5715    4.2150   22.3261 C.3     1  UNL1        0.1510
     32 C          -2.6309    3.2512   21.6654 C.2     1  UNL1        0.3232
     33 O          -3.4409    2.8182   20.4795 O.2     1  UNL1       -0.2497
     34 O          -1.3743    2.4564   21.4675 O.3     1  UNL1       -0.4517
     35 C          -4.0529    5.2010   23.3489 C.3     1  UNL1        0.1467
     36 O          -4.6776    4.6330   22.1091 O.3     1  UNL1       -0.3795
     37 O           2.7705    1.0563   22.5118 O.3     1  UNL1       -0.3362
     38 H          -7.9638    5.0299   20.2902 H       1  UNL1        0.2109
     39 H          -4.0605    4.0120   21.6914 H       1  UNL1        0.2108
     40 C           5.6021   -1.3794   21.1701 C.3     1  UNL1        0.0273
     41 C           6.7904   -0.5515   20.7795 C.3     1  UNL1        0.0025
     42 C           4.6611   -3.2333   22.7281 C.3     1  UNL1        0.0001
     43 C           5.7955   -2.6548   21.9353 C.3     1  UNL1        0.0024
     44 O           2.3310    5.9038   28.9301 O.3     1  UNL1       -0.3284
     45 C           2.0942    5.2735   30.2706 C.3     1  UNL1        0.2379
     46 C           2.6642    5.9034   31.5068 C.3     1  UNL1        0.0934
     47 C           2.4274    5.2731   32.8472 C.3     1  UNL1        0.1498
     48 C           1.6207    4.0128   32.9513 C.3     1  UNL1        0.1718
     49 C           1.0507    3.3829   31.7151 C.3     1  UNL1        0.1473
     50 C           0.2440    2.1226   31.8192 C.3     1  UNL1        0.0348
     51 O           1.2875    4.0132   30.3747 O.3     1  UNL1       -0.3304
     52 O           2.9974    5.9030   34.0835 O.3     1  UNL1       -0.3508
     53 C           2.0954    6.6191   35.0445 C.3     1  UNL1        0.1741
     54 O           1.3839    3.3825   34.2917 O.3     1  UNL1       -0.3279
     55 C           2.4091    2.4571   34.8769 C.3     1  UNL1        0.2377
     56 C           3.3635    1.7295   33.9770 C.3     1  UNL1        0.0934
     57 C           4.3887    0.8041   34.5622 C.3     1  UNL1        0.1494
     58 C           4.4595    0.6063   36.0475 C.3     1  UNL1        0.1647
     59 O           5.4847   -0.3191   36.6327 O.3     1  UNL1       -0.3795
     60 C           3.5052    1.3339   36.9474 C.3     1  UNL1        0.1469
     61 C           3.5761    1.1361   38.4326 C.3     1  UNL1        0.0348
     62 O           2.4800    2.2592   36.3621 O.3     1  UNL1       -0.3304
     63 H           6.0167   -0.7050   35.9193 H       1  UNL1        0.2105
     64 O           5.3430    0.0765   33.6624 O.3     1  UNL1       -0.3508
     65 C           6.4498    0.8251   32.9807 C.3     1  UNL1        0.1741
@<TRIPOS>BOND
     1    42    43    1
     2    43    40    1
     3    40    41    1
     4    40     1    1
     5     1     2    1
     6     2     3    1
     7     3     4    1
     8     4     5    1
     9     5     6    1
    10     6     7    1
    11     3     8    1
    12     9     8    1
    13     9    10    1
    14    10    11    1
    15    11    12    1
    16    12    13    1
    17    13    14    2
    18    14    15    1
    19    14    16    1
    20    16    44    1
    21    45    44    1
    22    45    46    1
    23    46    47    1
    24    47    52    1
    25    52    53    1
    26    47    48    1
    27    48    54    1
    28    55    54    1
    29    55    56    1
    30    56    57    1
    31    57    64    1
    32    64    65    1
    33    57    58    1
    34    58    59    1
    35    58    60    1
    36    60    61    1
    37    60    62    1
    38    48    49    1
    39    49    50    1
    40    49    51    1
    41    16    17    1
    42    17    18    1
    43    17    19    1
    44    19    20    2
    45    20    21    1
    46    21    22    2
    47    22    23    1
    48    23    24    1
    49    25    24    1
    50    25    26    1
    51    26    27    1
    52    26    28    1
    53    28    29    1
    54    28    30    2
    55    31    30    1
    56    31    32    1
    57    32    33    2
    58    32    34    1
    59    31    35    1
    60    35    36    1
    61    11    37    1
    62     6     1    1
    63    34     9    1
    64    37     3    1
    65    51    45    1
    66    35    22    1
    67    62    55    1
    68    35    25    1
    69    59    63    1
    70    27    38    1
    71    36    39    1
@<TRIPOS>MOLECULE
*****
 65 71 0 0 0
SMALL
GASTEIGER

@<TRIPOS>ATOM
      1 C          -4.2847    5.4142   21.6579 C.3     1  UNL1        0.1175
      2 O          -3.2318    4.5504   22.2866 O.3     1  UNL1       -0.3367
      3 C          -2.2650    3.7971   21.4218 C.3     1  UNL1        0.1902
      4 C          -2.3510    3.9076   19.9284 C.3     1  UNL1        0.0564
      5 C          -3.4039    4.7714   19.2997 C.3     1  UNL1        0.0074
      6 C          -4.3708    5.5247   20.1645 C.3     1  UNL1        0.0275
      7 C          -5.4237    6.3885   19.5358 C.3     1  UNL1        0.0025
      8 C          -1.2981    3.0438   20.5570 C.3     1  UNL1        0.0998
      9 C          -0.2452    2.1800   21.1857 C.3     1  UNL1        0.1762
     10 C          -0.1591    2.0695   22.6791 C.3     1  UNL1        0.0737
     11 C          -1.1260    2.8227   23.5439 C.3     1  UNL1        0.1255
     12 C          -1.0805    2.7365   25.3378 C.3     1  UNL1        0.0552
     13 C          -0.4875    2.2244   26.6169 C.2     1  UNL1       -0.0298
     14 C           0.4460    1.4496   27.4990 C.2     1  UNL1       -0.0211
     15 C          -0.0626    1.8208   28.8606 C.3     1  UNL1        0.0285
     16 C           1.5778    0.5300   27.8500 C.3     1  UNL1        0.1397
     17 C           2.7358   -0.3943   27.6163 C.3     1  UNL1        0.0532
     18 C           3.3124   -0.8887   28.7324 C.3     1  UNL1        0.0075
     19 C           3.7436   -1.1828   26.8335 C.2     1  UNL1       -0.0237
     20 C           4.4477   -1.7153   25.6208 C.2     1  UNL1       -0.0050
     21 C           4.7410   -1.9107   24.1629 C.2     1  UNL1       -0.0041
     22 C           4.5789   -1.7393   22.6815 C.2     1  UNL1        0.0122
     23 C           5.7205   -2.6474   22.3323 C.3     1  UNL1        0.1668
     24 O           5.8331   -2.6965   20.8373 O.3     1  UNL1       -0.3462
     25 C           4.7610   -1.8188   20.2626 C.3     1  UNL1        0.1749
     26 C           4.9509   -1.9290   18.7270 C.3     1  UNL1        0.1582
     27 O           5.9003   -2.6673   17.8305 O.3     1  UNL1       -0.3778
     28 C           3.8851   -1.0557   18.1343 C.2     1  UNL1       -0.0188
     29 C           3.7685   -0.9208   16.6449 C.3     1  UNL1        0.0285
     30 C           2.9358   -0.3175   19.0307 C.2     1  UNL1       -0.0188
     31 C           3.0524   -0.4524   20.5202 C.3     1  UNL1        0.1510
     32 C           1.9205    0.4672   20.1692 C.2     1  UNL1        0.3232
     33 O           1.9874    0.4549   18.6708 O.2     1  UNL1       -0.2497
     34 O           0.7626    1.3916   20.4029 O.3     1  UNL1       -0.4517
     35 C           3.9859   -1.2273   21.4024 C.3     1  UNL1        0.1467
     36 O           3.8693   -1.0923   19.9130 O.3     1  UNL1       -0.3795
     37 O          -2.1788    3.6865   22.9153 O.3     1  UNL1       -0.3362
     38 H           5.6887   -2.4716   16.9043 H       1  UNL1        0.2109
     39 H           3.1348   -0.4959   19.6989 H       1  UNL1        0.2108
     40 C          -5.2515    6.1674   22.5227 C.3     1  UNL1        0.0273
     41 C          -4.9705    7.5927   22.8963 C.3     1  UNL1        0.0025
     42 C          -6.7817    4.0710   22.6381 C.3     1  UNL1        0.0001
     43 C          -6.4993    5.4954   23.0139 C.3     1  UNL1        0.0024
     44 O           1.5109    0.5423   29.3485 O.3     1  UNL1       -0.3284
     45 C           2.4207    1.4412   30.1325 C.3     1  UNL1        0.2379
     46 C           2.7139    1.1402   31.5723 C.3     1  UNL1        0.0934
     47 C           3.6237    2.0391   32.3563 C.3     1  UNL1        0.1498
     48 C           4.2401    3.2389   31.7002 C.3     1  UNL1        0.1718
     49 C           3.9468    3.5399   30.2603 C.3     1  UNL1        0.1473
     50 C           4.5632    4.7397   29.6042 C.3     1  UNL1        0.0348
     51 O           3.0371    2.6411   29.4764 O.3     1  UNL1       -0.3304
     52 O           3.9170    1.7381   33.7961 O.3     1  UNL1       -0.3508
     53 C           2.9393    2.1394   34.8606 C.3     1  UNL1        0.1741
     54 O           5.1498    4.1378   32.4840 O.3     1  UNL1       -0.3279
     55 C           4.5862    5.0309   33.5491 C.3     1  UNL1        0.2377
     56 C           3.2381    5.6620   33.3629 C.3     1  UNL1        0.0934
     57 C           2.6745    6.5552   34.4280 C.3     1  UNL1        0.1494
     58 C           3.4589    6.8174   35.6794 C.3     1  UNL1        0.1647
     59 O           2.8953    7.7106   36.7445 O.3     1  UNL1       -0.3795
     60 C           4.8069    6.1864   35.8657 C.3     1  UNL1        0.1469
     61 C           5.5913    6.4486   37.1171 C.3     1  UNL1        0.0348
     62 O           5.3705    5.2932   34.8006 O.3     1  UNL1       -0.3304
     63 H           2.0232    8.0329   36.4680 H       1  UNL1        0.2105
     64 O           1.3265    7.1862   34.2418 O.3     1  UNL1       -0.3508
     65 C           0.0860    6.3492   34.3446 C.3     1  UNL1        0.1741
@<TRIPOS>BOND
     1    42    43    1
     2    43    40    1
     3    40    41    1
     4    40     1    1
     5     1     2    1
     6     2     3    1
     7     3     4    1
     8     4     5    1
     9     5     6    1
    10     6     7    1
    11     3     8    1
    12     9     8    1
    13     9    10    1
    14    10    11    1
    15    11    12    1
    16    12    13    1
    17    13    14    2
    18    14    15    1
    19    14    16    1
    20    16    44    1
    21    45    44    1
    22    45    46    1
    23    46    47    1
    24    47    52    1
    25    52    53    1
    26    47    48    1
    27    48    54    1
    28    55    54    1
    29    55    56    1
    30    56    57    1
    31    57    64    1
    32    64    65    1
    33    57    58    1
    34    58    59    1
    35    58    60    1
    36    60    61    1
    37    60    62    1
    38    48    49    1
    39    49    50    1
    40    49    51    1
    41    16    17    1
    42    17    18    1
    43    17    19    1
    44    19    20    2
    45    20    21    1
    46    21    22    2
    47    22    23    1
    48    23    24    1
    49    25    24    1
    50    25    26    1
    51    26    27    1
    52    26    28    1
    53    28    29    1
    54    28    30    2
    55    31    30    1
    56    31    32    1
    57    32    33    2
    58    32    34    1
    59    31    35    1
    60    35    36    1
    61    11    37    1
    62     6     1    1
    63    34     9    1
    64    37     3    1
    65    51    45    1
    66    35    22    1
    67    62    55    1
    68    35    25    1
    69    59    63    1
    70    27    38    1
    71    36    39    1
@<TRIPOS>MOLECULE
*****
 65 71 0 0 0
SMALL
GASTEIGER

@<TRIPOS>ATOM
      1 C           4.4029    0.3776   32.4111 C.3     1  UNL1        0.1175
      2 O           4.5738    0.3547   30.9210 O.3     1  UNL1       -0.3367
      3 C           5.2082   -0.8313   30.2570 C.3     1  UNL1        0.1902
      4 C           5.6717   -1.9944   31.0830 C.3     1  UNL1        0.0564
      5 C           5.5008   -1.9714   32.5731 C.3     1  UNL1        0.0074
      6 C           4.8664   -0.7854   33.2371 C.3     1  UNL1        0.0275
      7 C           4.6955   -0.7626   34.7272 C.3     1  UNL1        0.0025
      8 C           5.8426   -2.0173   29.5930 C.3     1  UNL1        0.0998
      9 C           6.0135   -2.0402   28.1029 C.3     1  UNL1        0.1762
     10 C           5.5500   -0.8771   27.2769 C.3     1  UNL1        0.0737
     11 C           4.9155    0.3089   27.9409 C.3     1  UNL1        0.1255
     12 C           4.3379    1.7352   27.0138 C.3     1  UNL1        0.0552
     13 C           4.1278    2.4697   25.7229 C.2     1  UNL1       -0.0298
     14 C           4.1718    2.7117   24.2433 C.2     1  UNL1       -0.0211
     15 C           3.5379    4.0680   24.1497 C.3     1  UNL1        0.0285
     16 C           4.4630    2.4247   22.8000 C.3     1  UNL1        0.1397
     17 C           4.9573    1.6521   21.6131 C.3     1  UNL1        0.0532
     18 C           4.7953    2.2631   20.4202 C.3     1  UNL1        0.0075
     19 C           5.5793    0.5117   20.8631 C.2     1  UNL1       -0.0237
     20 C           6.2343   -0.8229   20.6641 C.2     1  UNL1       -0.0050
     21 C           6.8227   -2.1486   21.0465 C.2     1  UNL1       -0.0041
     22 C           7.2548   -3.2636   21.9521 C.2     1  UNL1        0.0122
     23 C           7.7815   -4.1213   20.8399 C.3     1  UNL1        0.1668
     24 O           8.3170   -5.3857   21.4434 O.3     1  UNL1       -0.3462
     25 C           8.1214   -5.3096   22.9287 C.3     1  UNL1        0.1749
     26 C           8.6982   -6.6459   23.4652 C.3     1  UNL1        0.1582
     27 O           9.3369   -7.8487   22.8363 O.3     1  UNL1       -0.3778
     28 C           8.5108   -6.5874   24.9523 C.2     1  UNL1       -0.0188
     29 C           8.9620   -7.7319   25.8105 C.3     1  UNL1        0.0285
     30 C           7.8722   -5.3847   25.5811 C.2     1  UNL1       -0.0188
     31 C           7.4210   -4.2402   24.7227 C.3     1  UNL1        0.1510
     32 C           7.1297   -3.9531   26.1659 C.2     1  UNL1        0.3232
     33 O           7.6500   -5.1973   26.8225 O.2     1  UNL1       -0.2497
     34 O           6.6355   -3.1806   27.3528 O.3     1  UNL1       -0.4517
     35 C           7.4649   -3.9981   23.2430 C.3     1  UNL1        0.1467
     36 O           7.9161   -5.1425   24.1014 O.3     1  UNL1       -0.3795
     37 O           4.7447    0.3318   29.4309 O.3     1  UNL1       -0.3362
     38 H           9.5674   -8.4903   23.5264 H       1  UNL1        0.2109
     39 H           7.7226   -4.9452   25.0312 H       1  UNL1        0.2108
     40 C           3.7685    1.5637   33.0751 C.3     1  UNL1        0.0273
     41 C           2.2762    1.6408   33.2059 C.3     1  UNL1        0.0025
     42 C           6.1199    2.5823   33.5029 C.3     1  UNL1        0.0001
     43 C           4.6263    2.6726   33.6083 C.3     1  UNL1        0.0024
     44 O           3.9428    3.6690   22.1435 O.3     1  UNL1       -0.3284
     45 C           2.5750    3.6761   21.5274 C.3     1  UNL1        0.2379
     46 C           1.8205    2.3904   21.3615 C.3     1  UNL1        0.0934
     47 C           0.4528    2.3975   20.7455 C.3     1  UNL1        0.1498
     48 C          -0.1603    3.6905   20.2955 C.3     1  UNL1        0.1718
     49 C           0.5942    4.9761   20.4615 C.3     1  UNL1        0.1473
     50 C          -0.0189    6.2691   20.0115 C.3     1  UNL1        0.0348
     51 O           1.9619    4.9690   21.0775 O.3     1  UNL1       -0.3304
     52 O          -0.3017    1.1119   20.5795 O.3     1  UNL1       -0.3508
     53 C           0.4433   -0.1830   20.4439 C.3     1  UNL1        0.1741
     54 O          -1.5279    3.6976   19.6795 O.3     1  UNL1       -0.3279
     55 C          -2.7452    3.6853   20.5558 C.3     1  UNL1        0.2377
     56 C          -4.1119    3.7648   19.9425 C.3     1  UNL1        0.0934
     57 C          -5.3292    3.7525   20.8187 C.3     1  UNL1        0.1494
     58 C          -5.1799    3.6606   22.3085 C.3     1  UNL1        0.1647
     59 O          -6.3972    3.6483   23.1848 O.3     1  UNL1       -0.3795
     60 C          -3.8134    3.5811   22.9219 C.3     1  UNL1        0.1469
     61 C          -3.6642    3.4893   24.4116 C.3     1  UNL1        0.0348
     62 O          -2.5961    3.5935   22.0456 O.3     1  UNL1       -0.3304
     63 H          -7.1932    3.7059   22.6334 H       1  UNL1        0.2105
     64 O          -6.6957    3.8320   20.2054 O.3     1  UNL1       -0.3508
     65 C          -6.8454    3.9077   18.7147 C.3     1  UNL1        0.1741
@<TRIPOS>BOND
     1    42    43    1
     2    43    40    1
     3    40    41    1
     4    40     1    1
     5     1     2    1
     6     2     3    1
     7     3     4    1
     8     4     5    1
     9     5     6    1
    10     6     7    1
    11     3     8    1
    12     9     8    1
    13     9    10    1
    14    10    11    1
    15    11    12    1
    16    12    13    1
    17    13    14    2
    18    14    15    1
    19    14    16    1
    20    16    44    1
    21    45    44    1
    22    45    46    1
    23    46    47    1
    24    47    52    1
    25    52    53    1
    26    47    48    1
    27    48    54    1
    28    55    54    1
    29    55    56    1
    30    56    57    1
    31    57    64    1
    32    64    65    1
    33    57    58    1
    34    58    59    1
    35    58    60    1
    36    60    61    1
    37    60    62    1
    38    48    49    1
    39    49    50    1
    40    49    51    1
    41    16    17    1
    42    17    18    1
    43    17    19    1
    44    19    20    2
    45    20    21    1
    46    21    22    2
    47    22    23    1
    48    23    24    1
    49    25    24    1
    50    25    26    1
    51    26    27    1
    52    26    28    1
    53    28    29    1
    54    28    30    2
    55    31    30    1
    56    31    32    1
    57    32    33    2
    58    32    34    1
    59    31    35    1
    60    35    36    1
    61    11    37    1
    62     6     1    1
    63    34     9    1
    64    37     3    1
    65    51    45    1
    66    35    22    1
    67    62    55    1
    68    35    25    1
    69    59    63    1
    70    27    38    1
    71    36    39    1
@<TRIPOS>MOLECULE
*****
 65 71 0 0 0
SMALL
GASTEIGER

@<TRIPOS>ATOM
      1 C          -4.2681    5.4427   21.5916 C.3     1  UNL1        0.1175
      2 O          -3.2253    4.5717   22.2271 O.3     1  UNL1       -0.3367
      3 C          -2.2537    3.8171   21.3689 C.3     1  UNL1        0.1902
      4 C          -2.3248    3.9335   19.8752 C.3     1  UNL1        0.0564
      5 C          -3.3676    4.8045   19.2396 C.3     1  UNL1        0.0074
      6 C          -4.3392    5.5591   20.0979 C.3     1  UNL1        0.0275
      7 C          -5.3820    6.4301   19.4622 C.3     1  UNL1        0.0025
      8 C          -1.2820    3.0625   20.5107 C.3     1  UNL1        0.0998
      9 C          -0.2392    2.1915   21.1463 C.3     1  UNL1        0.1762
     10 C          -0.1681    2.0751   22.6401 C.3     1  UNL1        0.0737
     11 C          -1.1397    2.8297   23.4983 C.3     1  UNL1        0.1255
     12 C          -1.1120    2.7366   25.2922 C.3     1  UNL1        0.0552
     13 C          -0.5338    2.2171   26.5751 C.2     1  UNL1       -0.0298
     14 C           0.3876    1.4348   27.4633 C.2     1  UNL1       -0.0211
     15 C          -0.1324    1.8032   28.8212 C.3     1  UNL1        0.0285
     16 C           1.5117    0.5086   27.8217 C.3     1  UNL1        0.1397
     17 C           2.6676   -0.4203   27.5958 C.3     1  UNL1        0.0532
     18 C           3.2311   -0.9215   28.7155 C.3     1  UNL1        0.0075
     19 C           3.6792   -1.2105   26.8198 C.2     1  UNL1       -0.0237
     20 C           4.3926   -1.7418   25.6120 C.2     1  UNL1       -0.0050
     21 C           4.6990   -1.9333   24.1562 C.2     1  UNL1       -0.0041
     22 C           4.5520   -1.7557   22.6740 C.2     1  UNL1        0.0122
     23 C           5.6928   -2.6678   22.3324 C.3     1  UNL1        0.1668
     24 O           5.8196   -2.7120   20.8384 O.3     1  UNL1       -0.3462
     25 C           4.7572   -1.8272   20.2567 C.3     1  UNL1        0.1749
     26 C           4.9614   -1.9326   18.7226 C.3     1  UNL1        0.1582
     27 O           5.9159   -2.6720   17.8325 O.3     1  UNL1       -0.3778
     28 C           3.9054   -1.0522   18.1229 C.2     1  UNL1       -0.0188
     29 C           3.8038   -0.9113   16.6329 C.3     1  UNL1        0.0285
     30 C           2.9509   -0.3128   19.0129 C.2     1  UNL1       -0.0188
     31 C           3.0525   -0.4538   20.5029 C.3     1  UNL1        0.1510
     32 C           1.9283    0.4724   20.1444 C.2     1  UNL1        0.3232
     33 O           2.0095    0.4653   18.6466 O.2     1  UNL1       -0.2497
     34 O           0.7724    1.4012   20.3704 O.3     1  UNL1       -0.4517
     35 C           3.9738   -1.2362   21.3911 C.3     1  UNL1        0.1467
     36 O           3.8722   -1.0952   19.9012 O.3     1  UNL1       -0.3795
     37 O          -2.1825    3.7006   22.8628 O.3     1  UNL1       -0.3362
     38 H           5.7142   -2.4719   16.9051 H       1  UNL1        0.2109
     39 H           3.1426   -0.4947   19.6822 H       1  UNL1        0.2108
     40 C          -5.2397    6.1972   22.4498 C.3     1  UNL1        0.0273
     41 C          -4.9073    7.5826   22.9190 C.3     1  UNL1        0.0025
     42 C          -6.7247    4.0823   22.7179 C.3     1  UNL1        0.0001
     43 C          -6.5438    5.5664   22.8388 C.3     1  UNL1        0.0024
     44 O           1.4304    0.5157   29.3195 O.3     1  UNL1       -0.3284
     45 C           2.3842    1.3538   30.1184 C.3     1  UNL1        0.2379
     46 C           2.4521    1.1983   31.6087 C.3     1  UNL1        0.0934
     47 C           3.4059    2.0364   32.4076 C.3     1  UNL1        0.1498
     48 C           4.2916    3.0300   31.7159 C.3     1  UNL1        0.1718
     49 C           4.2236    3.1854   30.2256 C.3     1  UNL1        0.1473
     50 C           5.1093    4.1790   29.5340 C.3     1  UNL1        0.0348
     51 O           3.2699    2.3474   29.4268 O.3     1  UNL1       -0.3304
     52 O           3.4738    1.8809   33.8979 O.3     1  UNL1       -0.3508
     53 C           2.5108    2.6254   34.7744 C.3     1  UNL1        0.1741
     54 O           5.2453    3.8680   32.5147 O.3     1  UNL1       -0.3279
     55 C           6.2499    3.2104   33.4136 C.3     1  UNL1        0.2377
     56 C           7.2077    2.1997   32.8555 C.3     1  UNL1        0.0934
     57 C           8.2123    1.5421   33.7544 C.3     1  UNL1        0.1494
     58 C           8.2593    1.8950   35.2115 C.3     1  UNL1        0.1647
     59 O           9.2639    1.2373   36.1105 O.3     1  UNL1       -0.3795
     60 C           7.3016    2.9055   35.7697 C.3     1  UNL1        0.1469
     61 C           7.3485    3.2585   37.2269 C.3     1  UNL1        0.0348
     62 O           6.2970    3.5632   34.8708 O.3     1  UNL1       -0.3304
     63 H           9.8010    0.6156   35.5948 H       1  UNL1        0.2105
     64 O           9.1700    0.5315   33.1962 O.3     1  UNL1       -0.3508
     65 C           8.8732   -0.9333   33.3235 C.3     1  UNL1        0.1741
@<TRIPOS>BOND
     1    42    43    1
     2    43    40    1
     3    40    41    1
     4    40     1    1
     5     1     2    1
     6     2     3    1
     7     3     4    1
     8     4     5    1
     9     5     6    1
    10     6     7    1
    11     3     8    1
    12     9     8    1
    13     9    10    1
    14    10    11    1
    15    11    12    1
    16    12    13    1
    17    13    14    2
    18    14    15    1
    19    14    16    1
    20    16    44    1
    21    45    44    1
    22    45    46    1
    23    46    47    1
    24    47    52    1
    25    52    53    1
    26    47    48    1
    27    48    54    1
    28    55    54    1
    29    55    56    1
    30    56    57    1
    31    57    64    1
    32    64    65    1
    33    57    58    1
    34    58    59    1
    35    58    60    1
    36    60    61    1
    37    60    62    1
    38    48    49    1
    39    49    50    1
    40    49    51    1
    41    16    17    1
    42    17    18    1
    43    17    19    1
    44    19    20    2
    45    20    21    1
    46    21    22    2
    47    22    23    1
    48    23    24    1
    49    25    24    1
    50    25    26    1
    51    26    27    1
    52    26    28    1
    53    28    29    1
    54    28    30    2
    55    31    30    1
    56    31    32    1
    57    32    33    2
    58    32    34    1
    59    31    35    1
    60    35    36    1
    61    11    37    1
    62     6     1    1
    63    34     9    1
    64    37     3    1
    65    51    45    1
    66    35    22    1
    67    62    55    1
    68    35    25    1
    69    59    63    1
    70    27    38    1
    71    36    39    1
@<TRIPOS>MOLECULE
*****
 65 71 0 0 0
SMALL
GASTEIGER

@<TRIPOS>ATOM
      1 C          -4.3126    5.3182   21.7121 C.3     1  UNL1        0.1175
      2 O          -3.2486    4.4654   22.3371 O.3     1  UNL1       -0.3367
      3 C          -2.2765    3.7228   21.4691 C.3     1  UNL1        0.1902
      4 C          -2.3684    3.8328   19.9760 C.3     1  UNL1        0.0564
      5 C          -3.4324    4.6855   19.3509 C.3     1  UNL1        0.0074
      6 C          -4.4045    5.4282   20.2190 C.3     1  UNL1        0.0275
      7 C          -5.4685    6.2810   19.5938 C.3     1  UNL1        0.0025
      8 C          -1.3044    2.9801   20.6010 C.3     1  UNL1        0.0998
      9 C          -0.2404    2.1273   21.2261 C.3     1  UNL1        0.1762
     10 C          -0.1484    2.0173   22.7192 C.3     1  UNL1        0.0737
     11 C          -1.1205    2.7600   23.5873 C.3     1  UNL1        0.1255
     12 C          -1.0685    2.6737   25.3810 C.3     1  UNL1        0.0552
     13 C          -0.4661    2.1676   26.6581 C.2     1  UNL1       -0.0298
     14 C           0.4783    1.4025   27.5370 C.2     1  UNL1       -0.0211
     15 C          -0.0299    1.7678   28.9003 C.3     1  UNL1        0.0285
     16 C           1.6210    0.4949   27.8841 C.3     1  UNL1        0.1397
     17 C           2.7880   -0.4170   27.6465 C.3     1  UNL1        0.0532
     18 C           3.3734   -0.9056   28.7606 C.3     1  UNL1        0.0075
     19 C           3.8017   -1.1944   26.8603 C.2     1  UNL1       -0.0237
     20 C           4.5076   -1.7190   25.6452 C.2     1  UNL1       -0.0050
     21 C           4.7984   -1.9109   24.1863 C.2     1  UNL1       -0.0041
     22 C           4.6298   -1.7408   22.7055 C.2     1  UNL1        0.0122
     23 C           5.7800   -2.6366   22.3524 C.3     1  UNL1        0.1668
     24 O           5.8884   -2.6841   20.8571 O.3     1  UNL1       -0.3462
     25 C           4.8052   -1.8177   20.2860 C.3     1  UNL1        0.1749
     26 C           4.9915   -1.9253   18.7498 C.3     1  UNL1        0.1582
     27 O           5.9458   -2.6532   17.8501 O.3     1  UNL1       -0.3778
     28 C           3.9145   -1.0633   18.1607 C.2     1  UNL1       -0.0188
     29 C           3.7919   -0.9293   16.6717 C.3     1  UNL1        0.0285
     30 C           2.9603   -0.3355   19.0604 C.2     1  UNL1       -0.0188
     31 C           3.0830   -0.4696   20.5494 C.3     1  UNL1        0.1510
     32 C           1.9402    0.4380   20.2022 C.2     1  UNL1        0.3232
     33 O           2.0025    0.4269   18.7036 O.2     1  UNL1       -0.2497
     34 O           0.7733    1.3499   20.4399 O.3     1  UNL1       -0.4517
     35 C           4.0274   -1.2347   21.4284 C.3     1  UNL1        0.1467
     36 O           3.9047   -1.1006   19.9394 O.3     1  UNL1       -0.3795
     37 O          -2.1845    3.6127   22.9622 O.3     1  UNL1       -0.3362
     38 H           5.7292   -2.4595   16.9246 H       1  UNL1        0.2109
     39 H           3.1632   -0.5120   19.7278 H       1  UNL1        0.2108
     40 C          -5.2846    6.0608   22.5801 C.3     1  UNL1        0.0273
     41 C          -4.9160    7.4021   23.1415 C.3     1  UNL1        0.0025
     42 C          -6.8372    3.9842   22.7442 C.3     1  UNL1        0.0001
     43 C          -6.6254    5.4623   22.8868 C.3     1  UNL1        0.0024
     44 O           1.5587    0.5061   29.3828 O.3     1  UNL1       -0.3284
     45 C           2.4801    1.3945   30.1652 C.3     1  UNL1        0.2379
     46 C           2.7919    1.0762   31.5974 C.3     1  UNL1        0.0934
     47 C           3.7133    1.9645   32.3797 C.3     1  UNL1        0.1498
     48 C           4.3229    3.1711   31.7296 C.3     1  UNL1        0.1718
     49 C           4.0111    3.4893   30.2974 C.3     1  UNL1        0.1473
     50 C           4.6206    4.6959   29.6473 C.3     1  UNL1        0.0348
     51 O           3.0897    2.6010   29.5151 O.3     1  UNL1       -0.3304
     52 O           4.0251    1.6463   33.8120 O.3     1  UNL1       -0.3508
     53 C           4.3299    0.2347   34.2175 C.3     1  UNL1        0.1741
     54 O           5.2442    4.0595   32.5119 O.3     1  UNL1       -0.3279
     55 C           4.7062    4.8939   33.6361 C.3     1  UNL1        0.2377
     56 C           5.2825    4.7570   35.0143 C.3     1  UNL1        0.0934
     57 C           4.7444    5.5915   36.1386 C.3     1  UNL1        0.1494
     58 C           3.6300    6.5629   35.8848 C.3     1  UNL1        0.1647
     59 O           3.0919    7.3974   37.0091 O.3     1  UNL1       -0.3795
     60 C           3.0537    6.6998   34.5067 C.3     1  UNL1        0.1469
     61 C           1.9392    7.6713   34.2530 C.3     1  UNL1        0.0348
     62 O           3.5917    5.8654   33.3825 O.3     1  UNL1       -0.3304
     63 H           3.5711    7.1871   37.8258 H       1  UNL1        0.2105
     64 O           5.3207    5.4546   37.5166 O.3     1  UNL1       -0.3508
     65 C           4.7771    4.4206   38.4576 C.3     1  UNL1        0.1741
@<TRIPOS>BOND
     1    42    43    1
     2    43    40    1
     3    40    41    1
     4    40     1    1
     5     1     2    1
     6     2     3    1
     7     3     4    1
     8     4     5    1
     9     5     6    1
    10     6     7    1
    11     3     8    1
    12     9     8    1
    13     9    10    1
    14    10    11    1
    15    11    12    1
    16    12    13    1
    17    13    14    2
    18    14    15    1
    19    14    16    1
    20    16    44    1
    21    45    44    1
    22    45    46    1
    23    46    47    1
    24    47    52    1
    25    52    53    1
    26    47    48    1
    27    48    54    1
    28    55    54    1
    29    55    56    1
    30    56    57    1
    31    57    64    1
    32    64    65    1
    33    57    58    1
    34    58    59    1
    35    58    60    1
    36    60    61    1
    37    60    62    1
    38    48    49    1
    39    49    50    1
    40    49    51    1
    41    16    17    1
    42    17    18    1
    43    17    19    1
    44    19    20    2
    45    20    21    1
    46    21    22    2
    47    22    23    1
    48    23    24    1
    49    25    24    1
    50    25    26    1
    51    26    27    1
    52    26    28    1
    53    28    29    1
    54    28    30    2
    55    31    30    1
    56    31    32    1
    57    32    33    2
    58    32    34    1
    59    31    35    1
    60    35    36    1
    61    11    37    1
    62     6     1    1
    63    34     9    1
    64    37     3    1
    65    51    45    1
    66    35    22    1
    67    62    55    1
    68    35    25    1
    69    59    63    1
    70    27    38    1
    71    36    39    1
@<TRIPOS>MOLECULE
*****
 65 71 0 0 0
SMALL
GASTEIGER

@<TRIPOS>ATOM
      1 C           4.5615    2.9583   36.7723 C.3     1  UNL1        0.1175
      2 O           4.5769    2.6515   35.3042 O.3     1  UNL1       -0.3367
      3 C           5.0625    1.3167   34.8220 C.3     1  UNL1        0.1902
      4 C           5.5325    0.2887   35.8080 C.3     1  UNL1        0.0564
      5 C           5.5171    0.5955   37.2762 C.3     1  UNL1        0.0074
      6 C           5.0316    1.9304   37.7583 C.3     1  UNL1        0.0275
      7 C           5.0161    2.2372   39.2266 C.3     1  UNL1        0.0025
      8 C           5.5480   -0.0182   34.3399 C.3     1  UNL1        0.0998
      9 C           5.5634   -0.3250   32.8716 C.3     1  UNL1        0.1762
     10 C           5.0933    0.7030   31.8856 C.3     1  UNL1        0.0737
     11 C           4.6078    2.0378   32.3678 C.3     1  UNL1        0.1255
     12 C           4.0310    3.3147   31.2434 C.3     1  UNL1        0.0552
     13 C           3.7373    3.8175   29.8610 C.2     1  UNL1       -0.0298
     14 C           3.6449    3.7826   28.3643 C.2     1  UNL1       -0.0211
     15 C           3.0931    5.1468   28.0734 C.3     1  UNL1        0.0285
     16 C           3.7676    3.2155   26.9810 C.3     1  UNL1        0.1397
     17 C           4.0870    2.2025   25.9219 C.3     1  UNL1        0.0532
     18 C           3.8432    2.5980   24.6544 C.3     1  UNL1        0.0075
     19 C           4.5543    0.8977   25.3481 C.2     1  UNL1       -0.0237
     20 C           5.0984   -0.5001   25.3470 C.2     1  UNL1       -0.0050
     21 C           5.6365   -1.7781   25.9187 C.2     1  UNL1       -0.0041
     22 C           6.0867   -2.7420   26.9763 C.2     1  UNL1        0.0122
     23 C           6.4404   -3.8275   26.0034 C.3     1  UNL1        0.1668
     24 O           6.9527   -5.0011   26.7846 O.3     1  UNL1       -0.3462
     25 C           6.9156   -4.6410   28.2402 C.3     1  UNL1        0.1749
     26 C           7.4574   -5.9005   28.9657 C.3     1  UNL1        0.1582
     27 O           7.9496   -7.2457   28.5207 O.3     1  UNL1       -0.3778
     28 C           7.4275   -5.5580   30.4257 C.2     1  UNL1       -0.0188
     29 C           7.8898   -6.5608   31.4409 C.3     1  UNL1        0.0285
     30 C           6.9353   -4.2128   30.8707 C.2     1  UNL1       -0.0188
     31 C           6.4729   -3.2099   29.8554 C.3     1  UNL1        0.1510
     32 C           6.3501   -2.6428   31.2387 C.2     1  UNL1        0.3232
     33 O           6.8539   -3.7857   32.0693 O.2     1  UNL1       -0.2497
     34 O           6.0307   -1.6298   32.2978 O.3     1  UNL1       -0.4517
     35 C           6.3804   -3.2447   28.3587 C.3     1  UNL1        0.1467
     36 O           6.8428   -4.2475   29.3739 O.3     1  UNL1       -0.3795
     37 O           4.5924    2.3447   33.8359 O.3     1  UNL1       -0.3362
     38 H           8.2079   -7.7682   29.2961 H       1  UNL1        0.2109
     39 H           6.7586   -3.8696   30.2633 H       1  UNL1        0.2108
     40 C           4.0760    4.2932   37.2545 C.3     1  UNL1        0.0273
     41 C           5.0513    5.4113   37.4744 C.3     1  UNL1        0.0025
     42 C           1.7118    3.3345   37.7461 C.3     1  UNL1        0.0001
     43 C           2.6151    4.5099   37.5168 C.3     1  UNL1        0.0024
     44 O           3.2638    4.3585   26.1505 O.3     1  UNL1       -0.3284
     45 C           1.7917    4.5205   25.9121 C.3     1  UNL1        0.2379
     46 C           1.2795    5.7200   25.1713 C.3     1  UNL1        0.0934
     47 C          -0.1927    5.8821   24.9329 C.3     1  UNL1        0.1498
     48 C          -1.1524    4.8445   25.4354 C.3     1  UNL1        0.1718
     49 C          -0.6401    3.6451   26.1761 C.3     1  UNL1        0.1473
     50 C          -1.5999    2.6076   26.6786 C.3     1  UNL1        0.0348
     51 O           0.8319    3.4830   26.4145 O.3     1  UNL1       -0.3304
     52 O          -0.7049    7.0815   24.1921 O.3     1  UNL1       -0.3508
     53 C          -0.6610    7.1125   22.6931 C.3     1  UNL1        0.1741
     54 O          -2.6244    5.0065   25.1970 O.3     1  UNL1       -0.3279
     55 C          -3.2374    4.5064   23.9226 C.3     1  UNL1        0.2377
     56 C          -2.3873    3.8010   22.9077 C.3     1  UNL1        0.0934
     57 C          -3.0002    3.3009   21.6334 C.3     1  UNL1        0.1494
     58 C          -4.4633    3.5061   21.3738 C.3     1  UNL1        0.1647
     59 O          -5.0762    3.0060   20.0994 O.3     1  UNL1       -0.3795
     60 C          -5.3133    4.2114   22.3886 C.3     1  UNL1        0.1469
     61 C          -6.7764    4.4167   22.1290 C.3     1  UNL1        0.0348
     62 O          -4.7004    4.7116   23.6629 O.3     1  UNL1       -0.3304
     63 H          -4.3941    2.5776   19.5589 H       1  UNL1        0.2105
     64 O          -2.1502    2.5955   20.6186 O.3     1  UNL1       -0.3508
     65 C          -0.6591    2.7566   20.6471 C.3     1  UNL1        0.1741
@<TRIPOS>BOND
     1    42    43    1
     2    43    40    1
     3    40    41    1
     4    40     1    1
     5     1     2    1
     6     2     3    1
     7     3     4    1
     8     4     5    1
     9     5     6    1
    10     6     7    1
    11     3     8    1
    12     9     8    1
    13     9    10    1
    14    10    11    1
    15    11    12    1
    16    12    13    1
    17    13    14    2
    18    14    15    1
    19    14    16    1
    20    16    44    1
    21    45    44    1
    22    45    46    1
    23    46    47    1
    24    47    52    1
    25    52    53    1
    26    47    48    1
    27    48    54    1
    28    55    54    1
    29    55    56    1
    30    56    57    1
    31    57    64    1
    32    64    65    1
    33    57    58    1
    34    58    59    1
    35    58    60    1
    36    60    61    1
    37    60    62    1
    38    48    49    1
    39    49    50    1
    40    49    51    1
    41    16    17    1
    42    17    18    1
    43    17    19    1
    44    19    20    2
    45    20    21    1
    46    21    22    2
    47    22    23    1
    48    23    24    1
    49    25    24    1
    50    25    26    1
    51    26    27    1
    52    26    28    1
    53    28    29    1
    54    28    30    2
    55    31    30    1
    56    31    32    1
    57    32    33    2
    58    32    34    1
    59    31    35    1
    60    35    36    1
    61    11    37    1
    62     6     1    1
    63    34     9    1
    64    37     3    1
    65    51    45    1
    66    35    22    1
    67    62    55    1
    68    35    25    1
    69    59    63    1
    70    27    38    1
    71    36    39    1
@<TRIPOS>MOLECULE
*****
 65 71 0 0 0
SMALL
GASTEIGER

@<TRIPOS>ATOM
      1 C          -4.4392    5.4607   22.9648 C.3     1  UNL1        0.1175
      2 O          -3.3607    4.5983   23.5504 O.3     1  UNL1       -0.3367
      3 C          -2.3197    3.9899   22.6581 C.3     1  UNL1        0.1902
      4 C          -2.3572    4.2439   21.1803 C.3     1  UNL1        0.0564
      5 C          -3.4357    5.1064   20.5947 C.3     1  UNL1        0.0074
      6 C          -4.4767    5.7148   21.4870 C.3     1  UNL1        0.0275
      7 C          -5.5552    6.5773   20.9013 C.3     1  UNL1        0.0025
      8 C          -1.2787    3.3815   21.7659 C.3     1  UNL1        0.0998
      9 C          -0.2001    2.5189   22.3515 C.3     1  UNL1        0.1762
     10 C          -0.1626    2.2649   23.8293 C.3     1  UNL1        0.0737
     11 C          -1.2037    2.8733   24.7216 C.3     1  UNL1        0.1255
     12 C          -1.2192    2.6111   26.4988 C.3     1  UNL1        0.0552
     13 C          -0.6443    2.0076   27.7460 C.2     1  UNL1       -0.0298
     14 C           0.3004    1.2017   28.5872 C.2     1  UNL1       -0.0211
     15 C          -0.2790    1.4063   29.9556 C.3     1  UNL1        0.0285
     16 C           1.4712    0.3158   28.8946 C.3     1  UNL1        0.1397
     17 C           2.6899   -0.5149   28.6212 C.3     1  UNL1        0.0532
     18 C           3.2534   -1.0855   29.7073 C.3     1  UNL1        0.0075
     19 C           3.7708   -1.1642   27.8088 C.2     1  UNL1       -0.0237
     20 C           4.5495   -1.5331   26.5810 C.2     1  UNL1       -0.0050
     21 C           4.9073   -1.5655   25.1247 C.2     1  UNL1       -0.0041
     22 C           4.7899   -1.2564   23.6616 C.2     1  UNL1        0.0122
     23 C           5.9956   -2.0604   23.2743 C.3     1  UNL1        0.1668
     24 O           6.1658   -1.9537   21.7878 O.3     1  UNL1       -0.3462
     25 C           5.0654   -1.0839   21.2564 C.3     1  UNL1        0.1749
     26 C           5.3179   -1.0295   19.7268 C.3     1  UNL1        0.1582
     27 O           6.3417   -1.6209   18.8038 O.3     1  UNL1       -0.3778
     28 C           4.2245   -0.1620   19.1773 C.2     1  UNL1       -0.0188
     29 C           4.1551    0.1142   17.7046 C.3     1  UNL1        0.0285
     30 C           3.2008    0.4293   20.1004 C.2     1  UNL1       -0.0188
     31 C           3.2703    0.1531   21.5732 C.3     1  UNL1        0.1510
     32 C           2.0994    1.0389   21.2657 C.2     1  UNL1        0.3232
     33 O           2.2220    1.1800   19.7775 O.2     1  UNL1       -0.2497
     34 O           0.8808    1.8697   21.5391 O.3     1  UNL1       -0.4517
     35 C           4.2151   -0.6529   22.4145 C.3     1  UNL1        0.1467
     36 O           4.1455   -0.3767   20.9417 O.3     1  UNL1       -0.3795
     37 O          -2.2822    3.7357   24.1360 O.3     1  UNL1       -0.3362
     38 H           6.1531   -1.3458   17.8929 H       1  UNL1        0.2109
     39 H           3.3853    0.1964   20.7558 H       1  UNL1        0.2108
     40 C          -5.4802    6.0691   23.8571 C.3     1  UNL1        0.0273
     41 C          -5.2969    7.4622   24.3819 C.3     1  UNL1        0.0025
     42 C          -7.3317    4.3604   23.2230 C.3     1  UNL1        0.0001
     43 C          -6.7046    5.2844   24.2244 C.3     1  UNL1        0.0024
     44 O           1.3486    0.1748   30.3829 O.3     1  UNL1       -0.3284
     45 C           2.4103    0.7395   31.2797 C.3     1  UNL1        0.2379
     46 C           2.7232    2.2059   31.2403 C.3     1  UNL1        0.0934
     47 C           3.7849    2.7707   32.1371 C.3     1  UNL1        0.1498
     48 C           4.5334    1.8688   33.0733 C.3     1  UNL1        0.1718
     49 C           4.2204    0.4024   33.1127 C.3     1  UNL1        0.1473
     50 C           4.9689   -0.4994   34.0489 C.3     1  UNL1        0.0348
     51 O           3.1588   -0.1623   32.2159 O.3     1  UNL1       -0.3304
     52 O           4.0979    4.2370   32.0977 O.3     1  UNL1       -0.3508
     53 C           4.0562    4.9782   30.7942 C.3     1  UNL1        0.1741
     54 O           5.5950    2.4335   33.9700 O.3     1  UNL1       -0.3279
     55 C           5.4215    2.3868   35.4592 C.3     1  UNL1        0.2377
     56 C           4.0461    2.4333   36.0560 C.3     1  UNL1        0.0934
     57 C           3.8726    2.3867   37.5451 C.3     1  UNL1        0.1494
     58 C           5.0746    2.2936   38.4377 C.3     1  UNL1        0.1647
     59 O           4.9012    2.2469   39.9268 O.3     1  UNL1       -0.3795
     60 C           6.4500    2.2471   37.8409 C.3     1  UNL1        0.1469
     61 C           7.6520    2.1539   38.7335 C.3     1  UNL1        0.0348
     62 O           6.6235    2.2937   36.3518 O.3     1  UNL1       -0.3304
     63 H           3.9566    2.2860   40.1437 H       1  UNL1        0.2105
     64 O           2.4972    2.4332   38.1419 O.3     1  UNL1       -0.3508
     65 C           1.8714    1.1816   38.6822 C.3     1  UNL1        0.1741
@<TRIPOS>BOND
     1    42    43    1
     2    43    40    1
     3    40    41    1
     4    40     1    1
     5     1     2    1
     6     2     3    1
     7     3     4    1
     8     4     5    1
     9     5     6    1
    10     6     7    1
    11     3     8    1
    12     9     8    1
    13     9    10    1
    14    10    11    1
    15    11    12    1
    16    12    13    1
    17    13    14    2
    18    14    15    1
    19    14    16    1
    20    16    44    1
    21    45    44    1
    22    45    46    1
    23    46    47    1
    24    47    52    1
    25    52    53    1
    26    47    48    1
    27    48    54    1
    28    55    54    1
    29    55    56    1
    30    56    57    1
    31    57    64    1
    32    64    65    1
    33    57    58    1
    34    58    59    1
    35    58    60    1
    36    60    61    1
    37    60    62    1
    38    48    49    1
    39    49    50    1
    40    49    51    1
    41    16    17    1
    42    17    18    1
    43    17    19    1
    44    19    20    2
    45    20    21    1
    46    21    22    2
    47    22    23    1
    48    23    24    1
    49    25    24    1
    50    25    26    1
    51    26    27    1
    52    26    28    1
    53    28    29    1
    54    28    30    2
    55    31    30    1
    56    31    32    1
    57    32    33    2
    58    32    34    1
    59    31    35    1
    60    35    36    1
    61    11    37    1
    62     6     1    1
    63    34     9    1
    64    37     3    1
    65    51    45    1
    66    35    22    1
    67    62    55    1
    68    35    25    1
    69    59    63    1
    70    27    38    1
    71    36    39    1
@<TRIPOS>MOLECULE
*****
 65 71 0 0 0
SMALL
GASTEIGER

@<TRIPOS>ATOM
      1 C           3.7430   -0.7021   21.2474 C.3     1  UNL1        0.1175
      2 O           3.3310    0.2180   22.3581 O.3     1  UNL1       -0.3367
      3 C           1.9343    0.7633   22.4012 C.3     1  UNL1        0.1902
      4 C           0.9496    0.3885   21.3336 C.3     1  UNL1        0.0564
      5 C           1.3616   -0.5316   20.2229 C.3     1  UNL1        0.0074
      6 C           2.7583   -1.0769   20.1798 C.3     1  UNL1        0.0275
      7 C           3.1702   -1.9970   19.0691 C.3     1  UNL1        0.0025
      8 C           0.5376    1.3086   22.4443 C.3     1  UNL1        0.0998
      9 C           0.1256    2.2287   23.5550 C.3     1  UNL1        0.1762
     10 C           1.1104    2.6035   24.6226 C.3     1  UNL1        0.0737
     11 C           2.5071    2.0582   24.5795 C.3     1  UNL1        0.1255
     12 C           3.7370    2.4649   25.8243 C.3     1  UNL1        0.0552
     13 C           4.1583    3.1753   27.0764 C.2     1  UNL1       -0.0298
     14 C           4.0224    4.0585   28.2811 C.2     1  UNL1       -0.0211
     15 C           5.3974    3.9600   28.8727 C.3     1  UNL1        0.0285
     16 C           3.3501    4.9801   29.2551 C.3     1  UNL1        0.1397
     17 C           2.2437    5.7998   29.8500 C.3     1  UNL1        0.0532
     18 C           2.5632    6.4640   30.9811 C.3     1  UNL1        0.0075
     19 C           0.8716    6.3929   29.9752 C.2     1  UNL1       -0.0237
     20 C          -0.5572    6.6690   29.6118 C.2     1  UNL1       -0.0050
     21 C          -1.8253    6.5860   28.8150 C.2     1  UNL1       -0.0041
     22 C          -2.7397    6.1567   27.7061 C.2     1  UNL1        0.0122
     23 C          -3.9144    6.9402   28.2121 C.3     1  UNL1        0.1668
     24 O          -5.0617    6.7141   27.2727 O.3     1  UNL1       -0.3462
     25 C          -4.5961    5.7908   26.1860 C.3     1  UNL1        0.1749
     26 C          -5.8349    5.6142   25.2694 C.3     1  UNL1        0.1582
     27 O          -7.2398    6.1398   25.2796 O.3     1  UNL1       -0.3778
     28 C          -5.3871    4.6918   24.1746 C.2     1  UNL1       -0.0188
     29 C          -6.3442    4.2950   23.0899 C.3     1  UNL1        0.0285
     30 C          -3.9823    4.1663   24.1644 C.2     1  UNL1       -0.0188
     31 C          -3.0251    4.5631   25.2491 C.3     1  UNL1        0.1510
     32 C          -2.3529    3.6415   24.2751 C.2     1  UNL1        0.3232
     33 O          -3.4654    3.3803   23.3036 O.2     1  UNL1       -0.2497
     34 O          -1.2465    2.8217   23.6803 O.3     1  UNL1       -0.4517
     35 C          -3.1610    5.4463   26.4539 C.3     1  UNL1        0.1467
     36 O          -4.1180    5.0495   25.3691 O.3     1  UNL1       -0.3795
     37 O           2.9190    1.1381   23.4689 O.3     1  UNL1       -0.3362
     38 H          -7.7219    5.7887   24.5146 H       1  UNL1        0.2109
     39 H          -3.6721    4.4543   24.7464 H       1  UNL1        0.2108
     40 C           5.1397   -1.2474   21.2043 C.3     1  UNL1        0.0273
     41 C           6.2330   -0.4583   20.5472 C.3     1  UNL1        0.0025
     42 C           4.6315   -3.0752   22.9794 C.3     1  UNL1        0.0001
     43 C           5.4431   -2.5819   21.8184 C.3     1  UNL1        0.0024
     44 O           4.4628    5.2412   30.2267 O.3     1  UNL1       -0.3284
     45 C           4.6133    4.3781   31.4443 C.3     1  UNL1        0.2379
     46 C           5.7528    4.6097   32.3916 C.3     1  UNL1        0.0934
     47 C           5.9033    3.7466   33.6092 C.3     1  UNL1        0.1498
     48 C           4.9141    2.6518   33.8793 C.3     1  UNL1        0.1718
     49 C           3.7745    2.4202   32.9319 C.3     1  UNL1        0.1473
     50 C           2.7852    1.3254   33.2019 C.3     1  UNL1        0.0348
     51 O           3.6240    3.2833   31.7143 O.3     1  UNL1       -0.3304
     52 O           7.0429    3.9782   34.5566 O.3     1  UNL1       -0.3508
     53 C           8.3514    3.2771   34.3416 C.3     1  UNL1        0.1741
     54 O           5.0645    1.7887   35.0968 O.3     1  UNL1       -0.3279
     55 C           4.4950    2.2380   36.4096 C.3     1  UNL1        0.2377
     56 C           3.8996    1.2340   37.3519 C.3     1  UNL1        0.0934
     57 C           3.3302    1.6833   38.6648 C.3     1  UNL1        0.1494
     58 C           3.3559    3.1366   39.0355 C.3     1  UNL1        0.1647
     59 O           2.7865    3.5859   40.3484 O.3     1  UNL1       -0.3795
     60 C           3.9512    4.1405   38.0933 C.3     1  UNL1        0.1469
     61 C           3.9770    5.5938   38.4640 C.3     1  UNL1        0.0348
     62 O           4.5207    3.6912   36.7804 O.3     1  UNL1       -0.3304
     63 H           2.4451    2.8178   40.8326 H       1  UNL1        0.2105
     64 O           2.7349    0.6795   39.6071 O.3     1  UNL1       -0.3508
     65 C           1.2860    0.3088   39.4907 C.3     1  UNL1        0.1741
@<TRIPOS>BOND
     1    42    43    1
     2    43    40    1
     3    40    41    1
     4    40     1    1
     5     1     2    1
     6     2     3    1
     7     3     4    1
     8     4     5    1
     9     5     6    1
    10     6     7    1
    11     3     8    1
    12     9     8    1
    13     9    10    1
    14    10    11    1
    15    11    12    1
    16    12    13    1
    17    13    14    2
    18    14    15    1
    19    14    16    1
    20    16    44    1
    21    45    44    1
    22    45    46    1
    23    46    47    1
    24    47    52    1
    25    52    53    1
    26    47    48    1
    27    48    54    1
    28    55    54    1
    29    55    56    1
    30    56    57    1
    31    57    64    1
    32    64    65    1
    33    57    58    1
    34    58    59    1
    35    58    60    1
    36    60    61    1
    37    60    62    1
    38    48    49    1
    39    49    50    1
    40    49    51    1
    41    16    17    1
    42    17    18    1
    43    17    19    1
    44    19    20    2
    45    20    21    1
    46    21    22    2
    47    22    23    1
    48    23    24    1
    49    25    24    1
    50    25    26    1
    51    26    27    1
    52    26    28    1
    53    28    29    1
    54    28    30    2
    55    31    30    1
    56    31    32    1
    57    32    33    2
    58    32    34    1
    59    31    35    1
    60    35    36    1
    61    11    37    1
    62     6     1    1
    63    34     9    1
    64    37     3    1
    65    51    45    1
    66    35    22    1
    67    62    55    1
    68    35    25    1
    69    59    63    1
    70    27    38    1
    71    36    39    1
