@<TRIPOS>MOLECULE
*****
 30 31 0 0 0
SMALL
GASTEIGER

@<TRIPOS>ATOM
      1 C          -6.3426  -15.3515   24.6503 C.2     1  UNL1        0.1957
      2 O          -5.9226  -14.5512   25.8474 O.2     1  UNL1       -0.2866
      3 C          -4.8293  -17.2173   23.6609 C.2     1  UNL1        0.0035
      4 C          -5.3181  -15.7992   23.6503 C.2     1  UNL1        0.0420
      5 C          -2.8651  -19.4859   21.0637 C.ar    1  UNL1        0.1752
      6 C          -3.8896  -19.0383   22.0637 C.ar    1  UNL1        0.0402
      7 C          -3.8048  -17.6649   22.6608 C.ar    1  UNL1        0.0063
      8 C          -2.6955  -16.7391   22.2580 C.ar    1  UNL1        0.0402
      9 C          -1.6710  -17.1867   21.2580 C.ar    1  UNL1        0.1752
     10 C          -1.7558  -18.5601   20.6609 C.ar    1  UNL1        0.2024
     11 O          -0.7312  -19.0078   19.6608 O.3     1  UNL1       -0.5009
     12 H          -0.0383  -18.4294   19.4092 H       1  UNL1        0.2924
     13 C          -4.1782  -21.2747   19.7125 C.3     1  UNL1        0.2526
     14 O          -2.9499  -20.8593   20.4666 O.3     1  UNL1       -0.4683
     15 O          -0.5616  -16.2609   20.8551 O.3     1  UNL1       -0.4683
     16 C           0.6009  -16.7831   20.0639 C.3     1  UNL1        0.2526
     17 C          -7.7872  -15.7041   24.4531 C.2     1  UNL1        0.0420
     18 C          -8.2058  -16.5139   23.2618 C.2     1  UNL1        0.0035
     19 C          -9.6503  -16.8665   23.0647 C.ar    1  UNL1        0.0063
     20 C         -10.3667  -17.6953   24.0894 C.ar    1  UNL1        0.0402
     21 C         -11.8112  -18.0479   23.8923 C.ar    1  UNL1        0.1752
     22 C         -12.5395  -17.5717   22.6704 C.ar    1  UNL1        0.2024
     23 O         -13.9841  -17.9243   22.4732 O.3     1  UNL1       -0.5009
     24 C         -11.8232  -16.7430   21.6457 C.ar    1  UNL1        0.1752
     25 C         -10.3786  -16.3904   21.8428 C.ar    1  UNL1        0.0402
     26 H         -14.4315  -18.4420   23.1133 H       1  UNL1        0.2924
     27 O         -12.5275  -18.8767   24.9170 O.3     1  UNL1       -0.4683
     28 C         -13.8991  -18.4800   25.3769 C.3     1  UNL1        0.2526
     29 O         -12.5514  -16.2668   20.4239 O.3     1  UNL1       -0.4683
     30 C         -11.7829  -15.7118   19.2613 C.3     1  UNL1        0.2526
@<TRIPOS>BOND
     1    13    14    1
     2    14     5    1
     3     5     6   ar
     4     6     7   ar
     5     7     3    1
     6     3     4    2
     7     4     1    1
     8     1     2    2
     9     1    17    1
    10    17    18    2
    11    18    19    1
    12    19    20   ar
    13    20    21   ar
    14    21    27    1
    15    27    28    1
    16    21    22   ar
    17    22    23    1
    18    22    24   ar
    19    24    29    1
    20    29    30    1
    21    24    25   ar
    22     7     8   ar
    23     8     9   ar
    24     9    15    1
    25    15    16    1
    26     9    10   ar
    27    10    11    1
    28    10     5   ar
    29    25    19   ar
    30    23    26    1
    31    11    12    1
@<TRIPOS>MOLECULE
*****
 30 31 0 0 0
SMALL
GASTEIGER

@<TRIPOS>ATOM
      1 C          -6.3189  -15.2926   24.6578 C.2     1  UNL1        0.1957
      2 O          -5.9201  -14.4718   25.8484 O.2     1  UNL1       -0.2866
      3 C          -8.1575  -16.4766   23.2551 C.2     1  UNL1        0.0035
      4 C          -7.7580  -15.6599   24.4482 C.2     1  UNL1        0.0420
      5 C         -11.7521  -16.7607   21.5972 C.ar    1  UNL1        0.1752
      6 C         -10.3129  -16.3935   21.8068 C.ar    1  UNL1        0.0402
      7 C          -9.5967  -16.8439   23.0455 C.ar    1  UNL1        0.0063
      8 C         -10.3197  -17.6615   24.0744 C.ar    1  UNL1        0.0402
      9 C         -11.7588  -18.0287   23.8648 C.ar    1  UNL1        0.1752
     10 C         -12.4750  -17.5783   22.6261 C.ar    1  UNL1        0.2024
     11 O         -13.9142  -17.9456   22.4165 O.3     1  UNL1       -0.5009
     12 H         -14.3658  -18.4564   23.0593 H       1  UNL1        0.2924
     13 C         -11.7057  -15.6457   19.2510 C.3     1  UNL1        0.2526
     14 O         -12.4683  -16.3103   20.3585 O.3     1  UNL1       -0.4683
     15 O         -12.4818  -18.8464   24.8938 O.3     1  UNL1       -0.4683
     16 C         -13.8776  -18.4767   25.3001 C.3     1  UNL1        0.2526
     17 C          -5.2786  -15.7461   23.6770 C.2     1  UNL1        0.0420
     18 C          -4.8603  -17.1862   23.6395 C.2     1  UNL1        0.0035
     19 C          -3.8200  -17.6397   22.6586 C.ar    1  UNL1        0.0063
     20 C          -3.8895  -19.0203   22.0762 C.ar    1  UNL1        0.0402
     21 C          -2.8492  -19.4738   21.0954 C.ar    1  UNL1        0.1752
     22 C          -1.7393  -18.5467   20.6970 C.ar    1  UNL1        0.2024
     23 O          -0.6989  -19.0002   19.7162 O.3     1  UNL1       -0.5009
     24 C          -1.6698  -17.1661   21.2794 C.ar    1  UNL1        0.1752
     25 C          -2.7102  -16.7127   22.2602 C.ar    1  UNL1        0.0402
     26 H          -0.7423  -19.8626   19.3524 H       1  UNL1        0.2924
     27 O          -2.9186  -20.8544   20.5130 O.3     1  UNL1       -0.4683
     28 C          -4.1131  -21.2686   19.7057 C.3     1  UNL1        0.2526
     29 O          -0.5600  -16.2391   20.8810 O.3     1  UNL1       -0.4683
     30 C           0.5300  -16.7218   19.9704 C.3     1  UNL1        0.2526
@<TRIPOS>BOND
     1    13    14    1
     2    14     5    1
     3     5     6   ar
     4     6     7   ar
     5     7     3    1
     6     3     4    2
     7     4     1    1
     8     1     2    2
     9     1    17    1
    10    17    18    2
    11    18    19    1
    12    19    20   ar
    13    20    21   ar
    14    21    27    1
    15    27    28    1
    16    21    22   ar
    17    22    23    1
    18    22    24   ar
    19    24    29    1
    20    29    30    1
    21    24    25   ar
    22     7     8   ar
    23     8     9   ar
    24     9    15    1
    25    15    16    1
    26     9    10   ar
    27    10    11    1
    28    10     5   ar
    29    25    19   ar
    30    23    26    1
    31    11    12    1
@<TRIPOS>MOLECULE
*****
 30 31 0 0 0
SMALL
GASTEIGER

@<TRIPOS>ATOM
      1 C          -6.3566  -15.3039   24.6359 C.2     1  UNL1        0.1957
      2 O          -5.9438  -14.4954   25.8301 O.2     1  UNL1       -0.2866
      3 C          -8.2072  -16.5012   23.2605 C.2     1  UNL1        0.0035
      4 C          -7.7995  -15.6603   24.4338 C.2     1  UNL1        0.0420
      5 C         -11.8096  -18.0480   23.8768 C.ar    1  UNL1        0.1752
      6 C         -10.3667  -17.6917   24.0787 C.ar    1  UNL1        0.0402
      7 C          -9.6502  -16.8575   23.0585 C.ar    1  UNL1        0.0063
      8 C         -10.3767  -16.3798   21.8362 C.ar    1  UNL1        0.0402
      9 C         -11.8197  -16.7362   21.6343 C.ar    1  UNL1        0.1752
     10 C         -12.5361  -17.5703   22.6545 C.ar    1  UNL1        0.2024
     11 O         -13.9791  -17.9267   22.4525 O.3     1  UNL1       -0.5009
     12 H         -14.4330  -17.6282   21.6890 H       1  UNL1        0.2924
     13 C         -13.8904  -18.4783   25.3718 C.3     1  UNL1        0.2526
     14 O         -12.5261  -18.8822   24.8970 O.3     1  UNL1       -0.4683
     15 O         -12.5462  -16.2584   20.4120 O.3     1  UNL1       -0.4683
     16 C         -11.7778  -15.6808   19.2605 C.3     1  UNL1        0.2526
     17 C          -5.3263  -15.7560   23.6438 C.2     1  UNL1        0.0420
     18 C          -4.8403  -17.1750   23.6612 C.2     1  UNL1        0.0035
     19 C          -3.8101  -17.6271   22.6691 C.ar    1  UNL1        0.0063
     20 C          -3.8839  -19.0080   22.0877 C.ar    1  UNL1        0.0402
     21 C          -2.8536  -19.4601   21.0956 C.ar    1  UNL1        0.1752
     22 C          -1.7496  -18.5313   20.6850 C.ar    1  UNL1        0.2024
     23 O          -0.7193  -18.9834   19.6929 O.3     1  UNL1       -0.5009
     24 C          -1.6758  -17.1506   21.2663 C.ar    1  UNL1        0.1752
     25 C          -2.7060  -16.6985   22.2584 C.ar    1  UNL1        0.0402
     26 H          -0.7654  -19.8459   19.3297 H       1  UNL1        0.2924
     27 O          -2.9274  -20.8408   20.5142 O.3     1  UNL1       -0.4683
     28 C          -4.1408  -21.2652   19.7410 C.3     1  UNL1        0.2526
     29 O          -0.5718  -16.2219   20.8557 O.3     1  UNL1       -0.4683
     30 C           0.5865  -16.7410   20.0561 C.3     1  UNL1        0.2526
@<TRIPOS>BOND
     1    13    14    1
     2    14     5    1
     3     5     6   ar
     4     6     7   ar
     5     7     3    1
     6     3     4    2
     7     4     1    1
     8     1     2    2
     9     1    17    1
    10    17    18    2
    11    18    19    1
    12    19    20   ar
    13    20    21   ar
    14    21    27    1
    15    27    28    1
    16    21    22   ar
    17    22    23    1
    18    22    24   ar
    19    24    29    1
    20    29    30    1
    21    24    25   ar
    22     7     8   ar
    23     8     9   ar
    24     9    15    1
    25    15    16    1
    26     9    10   ar
    27    10    11    1
    28    10     5   ar
    29    25    19   ar
    30    23    26    1
    31    11    12    1
@<TRIPOS>MOLECULE
*****
 30 31 0 0 0
SMALL
GASTEIGER

@<TRIPOS>ATOM
      1 C          -6.3641  -15.3423   24.6330 C.2     1  UNL1        0.1957
      2 O          -5.9502  -14.5477   25.8361 O.2     1  UNL1       -0.2866
      3 C          -4.8239  -17.2008   23.6719 C.2     1  UNL1        0.0035
      4 C          -5.3337  -15.7905   23.6394 C.2     1  UNL1        0.0420
      5 C          -1.6509  -17.1716   21.2884 C.ar    1  UNL1        0.1752
      6 C          -2.6813  -16.7236   22.2821 C.ar    1  UNL1        0.0402
      7 C          -3.7934  -17.6489   22.6783 C.ar    1  UNL1        0.0063
      8 C          -3.8751  -19.0224   22.0808 C.ar    1  UNL1        0.0402
      9 C          -2.8446  -19.4704   21.0872 C.ar    1  UNL1        0.1752
     10 C          -1.7325  -18.5451   20.6910 C.ar    1  UNL1        0.2024
     11 O          -0.7020  -18.9932   19.6973 O.3     1  UNL1       -0.5009
     12 H          -0.7530  -19.8511   19.3241 H       1  UNL1        0.2924
     13 C           0.5304  -16.7180   19.9519 C.3     1  UNL1        0.2526
     14 O          -0.5388  -16.2463   20.8922 O.3     1  UNL1       -0.4683
     15 O          -2.9262  -20.8439   20.4897 O.3     1  UNL1       -0.4683
     16 C          -4.1530  -21.2615   19.7342 C.3     1  UNL1        0.2526
     17 C          -7.8085  -15.6888   24.4237 C.2     1  UNL1        0.0420
     18 C          -8.2064  -16.5965   23.2977 C.2     1  UNL1        0.0035
     19 C          -9.6507  -16.9430   23.0884 C.ar    1  UNL1        0.0063
     20 C         -10.3853  -17.7498   24.1177 C.ar    1  UNL1        0.0402
     21 C         -11.8297  -18.0962   23.9084 C.ar    1  UNL1        0.1752
     22 C         -12.5394  -17.6359   22.6696 C.ar    1  UNL1        0.2024
     23 O         -13.9838  -17.9824   22.4603 O.3     1  UNL1       -0.5009
     24 C         -11.8048  -16.8292   21.6403 C.ar    1  UNL1        0.1752
     25 C         -10.3605  -16.4827   21.8497 C.ar    1  UNL1        0.0402
     26 H         -14.4427  -18.4863   23.1033 H       1  UNL1        0.2924
     27 O         -12.5643  -18.9030   24.9377 O.3     1  UNL1       -0.4683
     28 C         -13.9243  -18.4701   25.3993 C.3     1  UNL1        0.2526
     29 O         -12.5146  -16.3689   20.4017 O.3     1  UNL1       -0.4683
     30 C         -11.7479  -15.6868   19.3075 C.3     1  UNL1        0.2526
@<TRIPOS>BOND
     1    13    14    1
     2    14     5    1
     3     5     6   ar
     4     6     7   ar
     5     7     3    1
     6     3     4    2
     7     4     1    1
     8     1     2    2
     9     1    17    1
    10    17    18    2
    11    18    19    1
    12    19    20   ar
    13    20    21   ar
    14    21    27    1
    15    27    28    1
    16    21    22   ar
    17    22    23    1
    18    22    24   ar
    19    24    29    1
    20    29    30    1
    21    24    25   ar
    22     7     8   ar
    23     8     9   ar
    24     9    15    1
    25    15    16    1
    26     9    10   ar
    27    10    11    1
    28    10     5   ar
    29    25    19   ar
    30    23    26    1
    31    11    12    1
@<TRIPOS>MOLECULE
*****
 30 31 0 0 0
SMALL
GASTEIGER

@<TRIPOS>ATOM
      1 C          -6.3482  -15.3143   24.5778 C.2     1  UNL1        0.1957
      2 O          -5.9230  -14.5066   25.7682 O.2     1  UNL1       -0.2866
      3 C          -4.7754  -17.1647   23.6546 C.2     1  UNL1        0.0035
      4 C          -5.3274  -15.7720   23.5786 C.2     1  UNL1        0.0420
      5 C          -2.8222  -19.4585   21.0713 C.ar    1  UNL1        0.1752
      6 C          -3.8430  -19.0008   22.0706 C.ar    1  UNL1        0.0402
      7 C          -3.7546  -17.6224   22.6553 C.ar    1  UNL1        0.0063
      8 C          -2.6454  -16.7016   22.2409 C.ar    1  UNL1        0.0402
      9 C          -1.6246  -17.1593   21.2416 C.ar    1  UNL1        0.1752
     10 C          -1.7130  -18.5378   20.6569 C.ar    1  UNL1        0.2024
     11 O          -0.6922  -18.9955   19.6576 O.3     1  UNL1       -0.5009
     12 H           0.0007  -18.4202   19.3987 H       1  UNL1        0.2924
     13 C          -4.1404  -21.2563   19.7370 C.3     1  UNL1        0.2526
     14 O          -2.9106  -20.8370   20.4866 O.3     1  UNL1       -0.4683
     15 O          -0.5154  -16.2385   20.8271 O.3     1  UNL1       -0.4683
     16 C           0.6648  -16.7774   20.0743 C.3     1  UNL1        0.2526
     17 C          -7.7942  -15.6643   24.3868 C.2     1  UNL1        0.0420
     18 C          -8.2100  -16.5331   23.2368 C.2     1  UNL1        0.0035
     19 C          -9.6560  -16.8831   23.0458 C.ar    1  UNL1        0.0063
     20 C         -10.3847  -16.4178   21.8199 C.ar    1  UNL1        0.0402
     21 C         -11.8307  -16.7678   21.6288 C.ar    1  UNL1        0.1752
     22 C         -12.5481  -17.5830   22.6637 C.ar    1  UNL1        0.2024
     23 O         -13.9942  -17.9330   22.4726 O.3     1  UNL1       -0.5009
     24 C         -11.8195  -18.0483   23.8894 C.ar    1  UNL1        0.1752
     25 C         -10.3735  -17.6983   24.0805 C.ar    1  UNL1        0.0402
     26 H         -14.4493  -17.6424   21.7069 H       1  UNL1        0.2924
     27 O         -12.5593  -16.3026   20.4030 O.3     1  UNL1       -0.4683
     28 C         -11.7992  -15.6790   19.2701 C.3     1  UNL1        0.2526
     29 O         -12.5369  -18.8635   24.9242 O.3     1  UNL1       -0.4683
     30 C         -13.9160  -18.4708   25.3646 C.3     1  UNL1        0.2526
@<TRIPOS>BOND
     1    13    14    1
     2    14     5    1
     3     5     6   ar
     4     6     7   ar
     5     7     3    1
     6     3     4    2
     7     4     1    1
     8     1     2    2
     9     1    17    1
    10    17    18    2
    11    18    19    1
    12    19    20   ar
    13    20    21   ar
    14    21    27    1
    15    27    28    1
    16    21    22   ar
    17    22    23    1
    18    22    24   ar
    19    24    29    1
    20    29    30    1
    21    24    25   ar
    22     7     8   ar
    23     8     9   ar
    24     9    15    1
    25    15    16    1
    26     9    10   ar
    27    10    11    1
    28    10     5   ar
    29    25    19   ar
    30    23    26    1
    31    11    12    1
@<TRIPOS>MOLECULE
*****
 30 31 0 0 0
SMALL
GASTEIGER

@<TRIPOS>ATOM
      1 C          -6.3445  -15.3418   24.6083 C.2     1  UNL1        0.1957
      2 O          -5.9199  -14.5529   25.8114 O.2     1  UNL1       -0.2866
      3 C          -4.7995  -17.2005   23.6554 C.2     1  UNL1        0.0035
      4 C          -5.3215  -15.7950   23.6093 C.2     1  UNL1        0.0420
      5 C          -1.6447  -17.1833   21.2477 C.ar    1  UNL1        0.1752
      6 C          -2.6677  -16.7301   22.2467 C.ar    1  UNL1        0.0402
      7 C          -3.7764  -17.6537   22.6564 C.ar    1  UNL1        0.0063
      8 C          -3.8620  -19.0304   22.0672 C.ar    1  UNL1        0.0402
      9 C          -2.8390  -19.4836   21.0682 C.ar    1  UNL1        0.1752
     10 C          -1.7303  -18.5600   20.6585 C.ar    1  UNL1        0.2024
     11 O          -0.7072  -19.0132   19.6594 O.3     1  UNL1       -0.5009
     12 H          -0.7607  -19.8732   19.2914 H       1  UNL1        0.2924
     13 C           0.6163  -16.7822   20.0323 C.3     1  UNL1        0.2526
     14 O          -0.5360  -16.2597   20.8380 O.3     1  UNL1       -0.4683
     15 O          -2.9245  -20.8604   20.4789 O.3     1  UNL1       -0.4683
     16 C          -4.1543  -21.2804   19.7297 C.3     1  UNL1        0.2526
     17 C          -7.7922  -15.6773   24.4042 C.2     1  UNL1        0.0420
     18 C          -8.1978  -16.6079   23.2998 C.2     1  UNL1        0.0035
     19 C          -9.6455  -16.9435   23.0957 C.ar    1  UNL1        0.0063
     20 C         -10.3588  -16.4696   21.8642 C.ar    1  UNL1        0.0402
     21 C         -11.8065  -16.8052   21.6601 C.ar    1  UNL1        0.1752
     22 C         -12.5408  -17.6147   22.6875 C.ar    1  UNL1        0.2024
     23 O         -13.9885  -17.9503   22.4834 O.3     1  UNL1       -0.5009
     24 C         -11.8275  -18.0885   23.9190 C.ar    1  UNL1        0.1752
     25 C         -10.3798  -17.7530   24.1231 C.ar    1  UNL1        0.0402
     26 H         -14.4341  -17.6543   21.7141 H       1  UNL1        0.2924
     27 O         -12.5198  -16.3314   20.4286 O.3     1  UNL1       -0.4683
     28 C         -11.7480  -15.6843   19.3169 C.3     1  UNL1        0.2526
     29 O         -12.5618  -18.8980   24.9464 O.3     1  UNL1       -0.4683
     30 C         -13.9351  -18.4843   25.3857 C.3     1  UNL1        0.2526
@<TRIPOS>BOND
     1    13    14    1
     2    14     5    1
     3     5     6   ar
     4     6     7   ar
     5     7     3    1
     6     3     4    2
     7     4     1    1
     8     1     2    2
     9     1    17    1
    10    17    18    2
    11    18    19    1
    12    19    20   ar
    13    20    21   ar
    14    21    27    1
    15    27    28    1
    16    21    22   ar
    17    22    23    1
    18    22    24   ar
    19    24    29    1
    20    29    30    1
    21    24    25   ar
    22     7     8   ar
    23     8     9   ar
    24     9    15    1
    25    15    16    1
    26     9    10   ar
    27    10    11    1
    28    10     5   ar
    29    25    19   ar
    30    23    26    1
    31    11    12    1
@<TRIPOS>MOLECULE
*****
 30 31 0 0 0
SMALL
GASTEIGER

@<TRIPOS>ATOM
      1 C          -6.2884  -15.3134   24.7248 C.2     1  UNL1        0.1957
      2 O          -5.8846  -14.5377   25.9436 O.2     1  UNL1       -0.2866
      3 C          -8.1213  -16.5433   23.3545 C.2     1  UNL1        0.0035
      4 C          -7.7324  -15.6452   24.4913 C.2     1  UNL1        0.0420
      5 C         -11.7071  -16.6977   21.6611 C.ar    1  UNL1        0.1752
      6 C         -10.2631  -16.3660   21.8946 C.ar    1  UNL1        0.0402
      7 C          -9.5654  -16.8751   23.1210 C.ar    1  UNL1        0.0063
      8 C         -10.3118  -17.7160   24.1139 C.ar    1  UNL1        0.0402
      9 C         -11.7559  -18.0477   23.8803 C.ar    1  UNL1        0.1752
     10 C         -12.4535  -17.5386   22.6539 C.ar    1  UNL1        0.2024
     11 O         -13.8977  -17.8703   22.4204 O.3     1  UNL1       -0.5009
     12 H         -14.3639  -18.3956   23.0406 H       1  UNL1        0.2924
     13 C         -11.6037  -15.7014   19.2639 C.3     1  UNL1        0.2526
     14 O         -12.4048  -16.1886   20.4347 O.3     1  UNL1       -0.4683
     15 O         -12.5024  -18.8886   24.8732 O.3     1  UNL1       -0.4683
     16 C         -13.8903  -18.5019   25.2902 C.3     1  UNL1        0.2526
     17 C          -5.2480  -15.7573   23.7397 C.2     1  UNL1        0.0420
     18 C          -4.8935  -17.2105   23.6268 C.2     1  UNL1        0.0035
     19 C          -3.8532  -17.6544   22.6417 C.ar    1  UNL1        0.0063
     20 C          -2.7548  -16.7164   22.2370 C.ar    1  UNL1        0.0402
     21 C          -1.7144  -17.1603   21.2518 C.ar    1  UNL1        0.1752
     22 C          -1.7724  -18.5422   20.6714 C.ar    1  UNL1        0.2024
     23 O          -0.7320  -18.9861   19.6862 O.3     1  UNL1       -0.5009
     24 C          -2.8707  -19.4802   21.0760 C.ar    1  UNL1        0.1752
     25 C          -3.9111  -19.0363   22.0612 C.ar    1  UNL1        0.0402
     26 H          -0.0459  -18.4002   19.4334 H       1  UNL1        0.2924
     27 O          -0.6160  -16.2223   20.8472 O.3     1  UNL1       -0.4683
     28 C           0.5322  -16.7234   20.0222 C.3     1  UNL1        0.2526
     29 O          -2.9287  -20.8621   20.4955 O.3     1  UNL1       -0.4683
     30 C          -4.1328  -21.2974   19.7140 C.3     1  UNL1        0.2526
@<TRIPOS>BOND
     1    13    14    1
     2    14     5    1
     3     5     6   ar
     4     6     7   ar
     5     7     3    1
     6     3     4    2
     7     4     1    1
     8     1     2    2
     9     1    17    1
    10    17    18    2
    11    18    19    1
    12    19    20   ar
    13    20    21   ar
    14    21    27    1
    15    27    28    1
    16    21    22   ar
    17    22    23    1
    18    22    24   ar
    19    24    29    1
    20    29    30    1
    21    24    25   ar
    22     7     8   ar
    23     8     9   ar
    24     9    15    1
    25    15    16    1
    26     9    10   ar
    27    10    11    1
    28    10     5   ar
    29    25    19   ar
    30    23    26    1
    31    11    12    1
@<TRIPOS>MOLECULE
*****
 30 31 0 0 0
SMALL
GASTEIGER

@<TRIPOS>ATOM
      1 C          -6.3546  -15.4298   24.7156 C.2     1  UNL1        0.1957
      2 O          -5.9509  -14.6269   25.9167 O.2     1  UNL1       -0.2866
      3 C          -8.2240  -16.4603   23.2347 C.2     1  UNL1        0.0035
      4 C          -7.7925  -15.8058   24.5135 C.2     1  UNL1        0.0420
      5 C         -11.8106  -18.0397   23.8604 C.ar    1  UNL1        0.1752
      6 C         -10.3727  -17.6637   24.0624 C.ar    1  UNL1        0.0402
      7 C          -9.6620  -16.8363   23.0326 C.ar    1  UNL1        0.0063
      8 C         -10.3893  -16.3849   21.8008 C.ar    1  UNL1        0.0402
      9 C         -11.8273  -16.7610   21.5988 C.ar    1  UNL1        0.1752
     10 C         -12.5379  -17.5884   22.6286 C.ar    1  UNL1        0.2024
     11 O         -13.9759  -17.9644   22.4265 O.3     1  UNL1       -0.5009
     12 H         -14.4303  -17.6825   21.6571 H       1  UNL1        0.2924
     13 C         -13.8969  -18.4790   25.3451 C.3     1  UNL1        0.2526
     14 O         -12.5213  -18.8671   24.8901 O.3     1  UNL1       -0.4683
     15 O         -12.5546  -16.3096   20.3670 O.3     1  UNL1       -0.4683
     16 C         -11.7984  -15.6648   19.2435 C.3     1  UNL1        0.2526
     17 C          -5.3202  -15.8566   23.7167 C.2     1  UNL1        0.0420
     18 C          -4.8681  -17.2861   23.6695 C.2     1  UNL1        0.0035
     19 C          -3.8337  -17.7130   22.6705 C.ar    1  UNL1        0.0063
     20 C          -2.7334  -16.7707   22.2810 C.ar    1  UNL1        0.0402
     21 C          -1.6991  -17.1975   21.2821 C.ar    1  UNL1        0.1752
     22 C          -1.7649  -18.5666   20.6727 C.ar    1  UNL1        0.2024
     23 O          -0.7305  -18.9935   19.6738 O.3     1  UNL1       -0.5009
     24 C          -2.8651  -19.5088   21.0622 C.ar    1  UNL1        0.1752
     25 C          -3.8995  -19.0820   22.0612 C.ar    1  UNL1        0.0402
     26 H          -0.0433  -18.4049   19.4304 H       1  UNL1        0.2924
     27 O          -0.5989  -16.2553   20.8925 O.3     1  UNL1       -0.4683
     28 C           0.5227  -16.7325   20.0182 C.3     1  UNL1        0.2526
     29 O          -2.9309  -20.8779   20.4529 O.3     1  UNL1       -0.4683
     30 C          -4.1637  -21.3130   19.7174 C.3     1  UNL1        0.2526
@<TRIPOS>BOND
     1    13    14    1
     2    14     5    1
     3     5     6   ar
     4     6     7   ar
     5     7     3    1
     6     3     4    2
     7     4     1    1
     8     1     2    2
     9     1    17    1
    10    17    18    2
    11    18    19    1
    12    19    20   ar
    13    20    21   ar
    14    21    27    1
    15    27    28    1
    16    21    22   ar
    17    22    23    1
    18    22    24   ar
    19    24    29    1
    20    29    30    1
    21    24    25   ar
    22     7     8   ar
    23     8     9   ar
    24     9    15    1
    25    15    16    1
    26     9    10   ar
    27    10    11    1
    28    10     5   ar
    29    25    19   ar
    30    23    26    1
    31    11    12    1
@<TRIPOS>MOLECULE
*****
 30 31 0 0 0
SMALL
GASTEIGER

@<TRIPOS>ATOM
      1 C           0.6639    2.5125   21.9297 C.2     1  UNL1        0.1957
      2 O           1.0080    3.2794   23.1722 O.2     1  UNL1       -0.2866
      3 C           1.2664    0.6148   20.2607 C.2     1  UNL1        0.0035
      4 C           1.6867    1.6198   21.2919 C.2     1  UNL1        0.0420
      5 C           4.0155   -0.7320   17.7350 C.ar    1  UNL1        0.1752
      6 C           2.9926    0.1607   18.3728 C.ar    1  UNL1        0.0402
      7 C           2.2894   -0.2780   19.6230 C.ar    1  UNL1        0.0063
      8 C           2.6090   -1.6094   20.2354 C.ar    1  UNL1        0.0402
      9 C           3.6319   -2.5021   19.5976 C.ar    1  UNL1        0.1752
     10 C           4.3351   -2.0634   18.3475 C.ar    1  UNL1        0.2024
     11 O           5.3580   -2.9562   17.7097 O.3     1  UNL1       -0.5009
     12 H           5.5577   -3.7879   18.0923 H       1  UNL1        0.2924
     13 C           5.9648    0.5366   16.5771 C.3     1  UNL1        0.2526
     14 O           4.7187   -0.2932   16.4849 O.3     1  UNL1       -0.4683
     15 O           3.9515   -3.8336   20.2101 O.3     1  UNL1       -0.4683
     16 C           4.4936   -3.9059   21.6068 C.3     1  UNL1        0.2526
     17 C          -0.7031    2.6385   21.3250 C.2     1  UNL1        0.0420
     18 C          -1.7486    3.4743   22.0022 C.2     1  UNL1        0.0035
     19 C          -3.1155    3.6003   21.3975 C.ar    1  UNL1        0.0063
     20 C          -4.3134    3.7796   22.2824 C.ar    1  UNL1        0.0402
     21 C          -5.6803    3.9056   21.6778 C.ar    1  UNL1        0.1752
     22 C          -5.8494    3.8523   20.1882 C.ar    1  UNL1        0.2024
     23 O          -7.2163    3.9783   19.5836 O.3     1  UNL1       -0.5009
     24 C          -4.6515    3.6730   19.3034 C.ar    1  UNL1        0.1752
     25 C          -3.2846    3.5470   19.9081 C.ar    1  UNL1        0.0402
     26 H          -7.9646    4.0903   20.1363 H       1  UNL1        0.2924
     27 O          -6.8782    4.0850   22.5626 O.3     1  UNL1       -0.4683
     28 C          -7.3330    5.4640   22.9388 C.3     1  UNL1        0.2526
     29 O          -4.8206    3.6197   17.8140 O.3     1  UNL1       -0.4683
     30 C          -3.6313    3.7978   16.9173 C.3     1  UNL1        0.2526
@<TRIPOS>BOND
     1    13    14    1
     2    14     5    1
     3     5     6   ar
     4     6     7   ar
     5     7     3    1
     6     3     4    2
     7     4     1    1
     8     1     2    2
     9     1    17    1
    10    17    18    2
    11    18    19    1
    12    19    20   ar
    13    20    21   ar
    14    21    27    1
    15    27    28    1
    16    21    22   ar
    17    22    23    1
    18    22    24   ar
    19    24    29    1
    20    29    30    1
    21    24    25   ar
    22     7     8   ar
    23     8     9   ar
    24     9    15    1
    25    15    16    1
    26     9    10   ar
    27    10    11    1
    28    10     5   ar
    29    25    19   ar
    30    23    26    1
    31    11    12    1
