@<TRIPOS>MOLECULE
*****
 28 31 0 0 0
SMALL
GASTEIGER

@<TRIPOS>ATOM
      1 C          -7.4295  -17.9614   22.2546 C.2     1  UNL1        0.0080
      2 C          -8.8373  -18.1924   21.7910 C.2     1  UNL1        0.0135
      3 C          -9.9680  -17.4332   22.4197 C.3     1  UNL1        0.1542
      4 C         -10.2450  -18.4233   21.3274 C.3     1  UNL1        0.0614
      5 C         -11.6528  -18.6542   20.8639 C.3     1  UNL1        0.0725
      6 N         -12.7835  -17.8951   21.4925 N.3     1  UNL1       -0.2972
      7 C         -12.5065  -16.9050   22.5847 C.3     1  UNL1        0.0725
      8 C         -11.0987  -16.6741   23.0483 C.3     1  UNL1        0.0614
      9 O          -9.6910  -16.4431   23.5119 O.3     1  UNL1       -0.4785
     10 C          -8.2832  -16.2122   23.9755 C.ar    1  UNL1        0.1386
     11 C          -8.0062  -15.2221   25.0678 C.ar    1  UNL1        0.0369
     12 C          -6.5984  -14.9912   25.5313 C.ar    1  UNL1        0.0031
     13 C          -5.4677  -15.7503   24.9027 C.ar    1  UNL1        0.0002
     14 C          -5.7447  -16.7404   23.8105 C.ar    1  UNL1        0.0030
     15 C          -7.1525  -16.9714   23.3468 C.ar    1  UNL1        0.0343
     16 H         -13.4245  -18.5880   21.8789 H       1  UNL1        0.1233
     17 C          -4.0695  -19.3995   20.9479 C.ar    1  UNL1        0.0830
     18 C          -5.0481  -20.3780   20.3693 C.ar    1  UNL1        0.0115
     19 C          -6.4259  -19.9584   20.7884 C.ar    1  UNL1        0.0071
     20 C          -6.2988  -18.7206   21.6260 C.ar    1  UNL1        0.0295
     21 S          -4.8425  -18.3752   21.7245 S.2     1  UNL1       -0.0824
     22 N          -1.9054  -18.4810   19.8421 N.am    1  UNL1       -0.2757
     23 C          -2.5795  -19.4385   20.7794 C.2     1  UNL1        0.2550
     24 O          -1.7637  -20.4351   21.5483 O.2     1  UNL1       -0.2694
     25 C           0.4189  -17.3499   20.1038 C.3     1  UNL1        0.0233
     26 C          -0.4155  -18.5199   19.6736 C.3     1  UNL1        0.0938
     27 C          -2.7213  -17.4844   19.0732 C.3     1  UNL1        0.0938
     28 C          -2.4175  -17.2219   17.6279 C.3     1  UNL1        0.0233
@<TRIPOS>BOND
     1    25    26    1
     2    26    22    1
     3    22    27    1
     4    27    28    1
     5    22    23   am
     6    23    24    2
     7    23    17    1
     8    17    18   ar
     9    18    19   ar
    10    19    20   ar
    11    20     1    1
    12     1     2    2
    13     2     3    1
    14     3     4    1
    15     4     5    1
    16     5     6    1
    17     6     7    1
    18     7     8    1
    19     3     9    1
    20     9    10    1
    21    10    11   ar
    22    11    12   ar
    23    12    13   ar
    24    13    14   ar
    25    14    15   ar
    26    20    21   ar
    27    21    17   ar
    28    15     1    1
    29     8     3    1
    30    15    10   ar
    31     6    16    1
@<TRIPOS>MOLECULE
*****
 28 31 0 0 0
SMALL
GASTEIGER

@<TRIPOS>ATOM
      1 C          -6.7563  -18.0204   22.3267 C.2     1  UNL1        0.0080
      2 C          -5.6160  -18.7617   21.6940 C.2     1  UNL1        0.0135
      3 C          -4.2070  -18.4787   22.1238 C.3     1  UNL1        0.1542
      4 C          -4.4757  -19.5029   21.0613 C.3     1  UNL1        0.0614
      5 C          -3.3354  -20.2441   20.4287 C.3     1  UNL1        0.0725
      6 N          -1.9264  -19.9611   20.8585 N.3     1  UNL1       -0.2972
      7 C          -1.6577  -18.9369   21.9209 C.3     1  UNL1        0.0725
      8 C          -2.7980  -18.1957   22.5536 C.3     1  UNL1        0.0614
      9 O          -3.9384  -17.4545   23.1863 O.3     1  UNL1       -0.4785
     10 C          -5.0787  -16.7133   23.8189 C.ar    1  UNL1        0.1386
     11 C          -4.8101  -15.6890   24.8815 C.ar    1  UNL1        0.0369
     12 C          -5.9504  -14.9478   25.5141 C.ar    1  UNL1        0.0031
     13 C          -7.3593  -15.2308   25.0843 C.ar    1  UNL1        0.0002
     14 C          -7.6280  -16.2550   24.0219 C.ar    1  UNL1        0.0030
     15 C          -6.4877  -16.9963   23.3892 C.ar    1  UNL1        0.0343
     16 H          -1.4191  -19.6616   20.0258 H       1  UNL1        0.1233
     17 C         -10.5905  -18.3203   21.8023 C.ar    1  UNL1        0.0830
     18 C         -10.0765  -19.1576   20.6688 C.ar    1  UNL1        0.0115
     19 C          -8.5777  -19.1471   20.7273 C.ar    1  UNL1        0.0071
     20 C          -8.1653  -18.3034   21.8969 C.ar    1  UNL1        0.0295
     21 S          -9.4093  -17.7924   22.5613 S.2     1  UNL1       -0.0824
     22 N         -12.5327  -18.2234   23.5250 N.am    1  UNL1       -0.2757
     23 C         -12.0324  -18.0570   22.1208 C.2     1  UNL1        0.2550
     24 O         -12.9740  -17.6275   21.0350 O.2     1  UNL1       -0.2694
     25 C         -14.5568  -18.4427   25.1391 C.3     1  UNL1        0.0233
     26 C         -13.9747  -17.9601   23.8436 C.3     1  UNL1        0.0938
     27 C         -11.5911  -18.6529   24.6108 C.3     1  UNL1        0.0938
     28 C         -10.9422  -20.0039   24.5496 C.3     1  UNL1        0.0233
@<TRIPOS>BOND
     1    25    26    1
     2    26    22    1
     3    22    27    1
     4    27    28    1
     5    22    23   am
     6    23    24    2
     7    23    17    1
     8    17    18   ar
     9    18    19   ar
    10    19    20   ar
    11    20     1    1
    12     1     2    2
    13     2     3    1
    14     3     4    1
    15     4     5    1
    16     5     6    1
    17     6     7    1
    18     7     8    1
    19     3     9    1
    20     9    10    1
    21    10    11   ar
    22    11    12   ar
    23    12    13   ar
    24    13    14   ar
    25    14    15   ar
    26    20    21   ar
    27    21    17   ar
    28    15     1    1
    29     8     3    1
    30    15    10   ar
    31     6    16    1
@<TRIPOS>MOLECULE
*****
 28 31 0 0 0
SMALL
GASTEIGER

@<TRIPOS>ATOM
      1 C         -13.4823   -5.1916   18.2544 C.2     1  UNL1        0.0080
      2 C         -13.9184   -3.7611   18.1382 C.2     1  UNL1        0.0135
      3 C         -12.9197   -2.6558   18.3148 C.3     1  UNL1        0.1542
      4 C         -14.3544   -2.3306   18.0221 C.3     1  UNL1        0.0614
      5 C         -14.7905   -0.9001   17.9059 C.3     1  UNL1        0.0725
      6 N         -13.7918    0.2051   18.0825 N.3     1  UNL1       -0.2972
      7 C         -12.3571   -0.1201   18.3753 C.3     1  UNL1        0.0725
      8 C         -11.9211   -1.5506   18.4914 C.3     1  UNL1        0.0614
      9 O         -11.4849   -2.9812   18.6076 O.3     1  UNL1       -0.4785
     10 C         -11.0489   -4.4116   18.7237 C.ar    1  UNL1        0.1386
     11 C          -9.6141   -4.7370   19.0165 C.ar    1  UNL1        0.0369
     12 C          -9.1780   -6.1675   19.1326 C.ar    1  UNL1        0.0031
     13 C         -10.1767   -7.2727   18.9560 C.ar    1  UNL1        0.0002
     14 C         -11.6114   -6.9474   18.6633 C.ar    1  UNL1        0.0030
     15 C         -12.0475   -5.5169   18.5471 C.ar    1  UNL1        0.0343
     16 H         -14.1259    0.7834   18.8535 H       1  UNL1        0.1233
     17 C         -16.1920   -7.9564   18.5343 C.ar    1  UNL1        0.0830
     18 C         -15.8434   -8.0387   17.0777 C.ar    1  UNL1        0.0115
     19 C         -14.7859   -7.0130   16.7956 C.ar    1  UNL1        0.0071
     20 C         -14.4809   -6.2968   18.0778 C.ar    1  UNL1        0.0295
     21 S         -15.3500   -6.8799   19.1524 S.2     1  UNL1       -0.0824
     22 N         -18.6453   -8.3846   19.2746 N.am    1  UNL1       -0.2757
     23 C         -17.2049   -8.8022   19.2476 C.2     1  UNL1        0.2550
     24 O         -16.7772  -10.0656   19.9339 O.2     1  UNL1       -0.2694
     25 C         -20.4636   -8.6483   21.1115 C.3     1  UNL1        0.0233
     26 C         -19.6581   -9.2304   19.9879 C.3     1  UNL1        0.0938
     27 C         -19.0729   -7.1213   18.5883 C.3     1  UNL1        0.0938
     28 C         -19.0313   -5.8159   19.3260 C.3     1  UNL1        0.0233
@<TRIPOS>BOND
     1    25    26    1
     2    26    22    1
     3    22    27    1
     4    27    28    1
     5    22    23   am
     6    23    24    2
     7    23    17    1
     8    17    18   ar
     9    18    19   ar
    10    19    20   ar
    11    20     1    1
    12     1     2    2
    13     2     3    1
    14     3     4    1
    15     4     5    1
    16     5     6    1
    17     6     7    1
    18     7     8    1
    19     3     9    1
    20     9    10    1
    21    10    11   ar
    22    11    12   ar
    23    12    13   ar
    24    13    14   ar
    25    14    15   ar
    26    20    21   ar
    27    21    17   ar
    28    15     1    1
    29     8     3    1
    30    15    10   ar
    31     6    16    1
@<TRIPOS>MOLECULE
*****
 28 31 0 0 0
SMALL
GASTEIGER

@<TRIPOS>ATOM
      1 C         -14.6101   -5.9632   18.8702 C.2     1  UNL1        0.0080
      2 C         -15.6785   -6.9515   19.2335 C.2     1  UNL1        0.0135
      3 C         -15.6425   -8.3384   18.6634 C.3     1  UNL1        0.1542
      4 C         -16.7469   -7.9397   19.5968 C.3     1  UNL1        0.0614
      5 C         -17.8152   -8.9279   19.9600 C.3     1  UNL1        0.0725
      6 N         -17.7791  -10.3149   19.3899 N.3     1  UNL1       -0.2972
      7 C         -16.6747  -10.7136   18.4566 C.3     1  UNL1        0.0725
      8 C         -15.6064   -9.7254   18.0933 C.3     1  UNL1        0.0614
      9 O         -14.5380   -8.7371   17.7300 O.3     1  UNL1       -0.4785
     10 C         -13.4696   -7.7489   17.3667 C.ar    1  UNL1        0.1386
     11 C         -12.3651   -8.1476   16.4333 C.ar    1  UNL1        0.0369
     12 C         -11.2968   -7.1594   16.0700 C.ar    1  UNL1        0.0031
     13 C         -11.3329   -5.7724   16.6401 C.ar    1  UNL1        0.0002
     14 C         -12.4373   -5.3737   17.5735 C.ar    1  UNL1        0.0030
     15 C         -13.5057   -6.3619   17.9368 C.ar    1  UNL1        0.0343
     16 H         -18.6547  -10.4482   18.8840 H       1  UNL1        0.1233
     17 C         -15.1768   -2.2318   19.7765 C.ar    1  UNL1        0.0830
     18 C         -14.2268   -2.6519   20.8587 C.ar    1  UNL1        0.0115
     19 C         -13.8989   -4.1008   20.6508 C.ar    1  UNL1        0.0071
     20 C         -14.6462   -4.5762   19.4403 C.ar    1  UNL1        0.0295
     21 S         -15.4360   -3.4211   18.8999 S.2     1  UNL1       -0.0824
     22 N         -15.1490    0.0988   18.6289 N.am    1  UNL1       -0.2757
     23 C         -15.7644   -0.8628   19.6016 C.2     1  UNL1        0.2550
     24 O         -16.9675   -0.4556   20.3997 O.2     1  UNL1       -0.2694
     25 C         -15.3760    2.5664   19.4096 C.3     1  UNL1        0.0233
     26 C         -15.7366    1.4678   18.4540 C.3     1  UNL1        0.0938
     27 C         -13.9459   -0.3085   17.8309 C.3     1  UNL1        0.0938
     28 C         -12.5688   -0.0059   18.3428 C.3     1  UNL1        0.0233
@<TRIPOS>BOND
     1    25    26    1
     2    26    22    1
     3    22    27    1
     4    27    28    1
     5    22    23   am
     6    23    24    2
     7    23    17    1
     8    17    18   ar
     9    18    19   ar
    10    19    20   ar
    11    20     1    1
    12     1     2    2
    13     2     3    1
    14     3     4    1
    15     4     5    1
    16     5     6    1
    17     6     7    1
    18     7     8    1
    19     3     9    1
    20     9    10    1
    21    10    11   ar
    22    11    12   ar
    23    12    13   ar
    24    13    14   ar
    25    14    15   ar
    26    20    21   ar
    27    21    17   ar
    28    15     1    1
    29     8     3    1
    30    15    10   ar
    31     6    16    1
@<TRIPOS>MOLECULE
*****
 28 31 0 0 0
SMALL
GASTEIGER

@<TRIPOS>ATOM
      1 C         -13.9654   -4.8552   18.6816 C.2     1  UNL1        0.0080
      2 C         -15.0444   -5.8795   18.4897 C.2     1  UNL1        0.0135
      3 C         -14.6890   -7.3333   18.3890 C.3     1  UNL1        0.1542
      4 C         -16.1233   -6.9037   18.2977 C.3     1  UNL1        0.0614
      5 C         -17.2022   -7.9279   18.1058 C.3     1  UNL1        0.0725
      6 N         -16.8468   -9.3818   18.0051 N.3     1  UNL1       -0.2972
      7 C         -15.4126   -9.8113   18.0963 C.3     1  UNL1        0.0725
      8 C         -14.3337   -8.7871   18.2883 C.3     1  UNL1        0.0614
      9 O         -13.2547   -7.7629   18.4802 O.3     1  UNL1       -0.4785
     10 C         -12.1758   -6.7387   18.6722 C.ar    1  UNL1        0.1386
     11 C         -10.7415   -7.1682   18.7635 C.ar    1  UNL1        0.0369
     12 C          -9.6626   -6.1440   18.9554 C.ar    1  UNL1        0.0031
     13 C         -10.0179   -4.6902   19.0561 C.ar    1  UNL1        0.0002
     14 C         -11.4521   -4.2606   18.9649 C.ar    1  UNL1        0.0030
     15 C         -12.5311   -5.2848   18.7729 C.ar    1  UNL1        0.0343
     16 H         -17.1952   -9.7083   17.1037 H       1  UNL1        0.1233
     17 C         -14.7949   -1.0949   18.1941 C.ar    1  UNL1        0.0830
     18 C         -14.9402   -1.2334   19.6806 C.ar    1  UNL1        0.0115
     19 C         -14.6471   -2.6589   20.0441 C.ar    1  UNL1        0.0071
     20 C         -14.3207   -3.4014   18.7823 C.ar    1  UNL1        0.0295
     21 S         -14.4120   -2.4348   17.6389 S.2     1  UNL1       -0.0824
     22 N         -13.8442    1.0922   17.1634 N.am    1  UNL1       -0.2757
     23 C         -14.9969    0.1626   17.4017 C.2     1  UNL1        0.2550
     24 O         -16.3519    0.4904   16.8479 O.2     1  UNL1       -0.2694
     25 C         -13.2342    3.5716   16.6833 C.3     1  UNL1        0.0233
     26 C         -14.0463    2.3497   16.3710 C.3     1  UNL1        0.0938
     27 C         -12.4893    0.7643   17.7172 C.3     1  UNL1        0.0938
     28 C         -11.4791    0.0605   16.8605 C.3     1  UNL1        0.0233
@<TRIPOS>BOND
     1    25    26    1
     2    26    22    1
     3    22    27    1
     4    27    28    1
     5    22    23   am
     6    23    24    2
     7    23    17    1
     8    17    18   ar
     9    18    19   ar
    10    19    20   ar
    11    20     1    1
    12     1     2    2
    13     2     3    1
    14     3     4    1
    15     4     5    1
    16     5     6    1
    17     6     7    1
    18     7     8    1
    19     3     9    1
    20     9    10    1
    21    10    11   ar
    22    11    12   ar
    23    12    13   ar
    24    13    14   ar
    25    14    15   ar
    26    20    21   ar
    27    21    17   ar
    28    15     1    1
    29     8     3    1
    30    15    10   ar
    31     6    16    1
@<TRIPOS>MOLECULE
*****
 28 31 0 0 0
SMALL
GASTEIGER

@<TRIPOS>ATOM
      1 C           0.4929    2.6021   19.9165 C.2     1  UNL1        0.0080
      2 C           0.3056    2.5180   21.4025 C.2     1  UNL1        0.0135
      3 C          -0.9247    3.0954   22.0372 C.3     1  UNL1        0.1542
      4 C           0.1183    2.4338   22.8883 C.3     1  UNL1        0.0614
      5 C          -0.0690    2.3497   24.3742 C.3     1  UNL1        0.0725
      6 N          -1.2994    2.9272   25.0089 N.3     1  UNL1       -0.2972
      7 C          -2.3423    3.5887   24.1578 C.3     1  UNL1        0.0725
      8 C          -2.1550    3.6729   22.6719 C.3     1  UNL1        0.0614
      9 O          -1.9677    3.7570   21.1860 O.3     1  UNL1       -0.4785
     10 C          -1.7804    3.8411   19.7001 C.ar    1  UNL1        0.1386
     11 C          -2.8234    4.5027   18.8489 C.ar    1  UNL1        0.0369
     12 C          -2.6361    4.5868   17.3631 C.ar    1  UNL1        0.0031
     13 C          -1.4057    4.0094   16.7284 C.ar    1  UNL1        0.0002
     14 C          -0.3627    3.3478   17.5795 C.ar    1  UNL1        0.0030
     15 C          -0.5500    3.2637   19.0654 C.ar    1  UNL1        0.0343
     16 H          -0.9834    3.6247   25.6827 H       1  UNL1        0.1233
     17 C           3.2969    0.4576   18.3027 C.ar    1  UNL1        0.0830
     18 C           3.9362    1.8145   18.3075 C.ar    1  UNL1        0.0115
     19 C           2.9637    2.7830   18.9126 C.ar    1  UNL1        0.0071
     20 C           1.7233    2.0247   19.2818 C.ar    1  UNL1        0.0295
     21 S           1.9292    0.5875   18.9049 S.2     1  UNL1       -0.0824
     22 N           4.6702   -1.7081   18.7191 N.am    1  UNL1       -0.2757
     23 C           3.9164   -0.8072   17.7864 C.2     1  UNL1        0.2550
     24 O           3.7821   -1.1708   16.3374 O.2     1  UNL1       -0.2694
     25 C           4.7271   -4.3032   18.6075 C.3     1  UNL1        0.0233
     26 C           5.2897   -2.9729   18.2029 C.3     1  UNL1        0.0938
     27 C           4.8044   -1.3444   20.1681 C.3     1  UNL1        0.0938
     28 C           3.8040   -1.8511   21.1644 C.3     1  UNL1        0.0233
@<TRIPOS>BOND
     1    25    26    1
     2    26    22    1
     3    22    27    1
     4    27    28    1
     5    22    23   am
     6    23    24    2
     7    23    17    1
     8    17    18   ar
     9    18    19   ar
    10    19    20   ar
    11    20     1    1
    12     1     2    2
    13     2     3    1
    14     3     4    1
    15     4     5    1
    16     5     6    1
    17     6     7    1
    18     7     8    1
    19     3     9    1
    20     9    10    1
    21    10    11   ar
    22    11    12   ar
    23    12    13   ar
    24    13    14   ar
    25    14    15   ar
    26    20    21   ar
    27    21    17   ar
    28    15     1    1
    29     8     3    1
    30    15    10   ar
    31     6    16    1
@<TRIPOS>MOLECULE
*****
 28 31 0 0 0
SMALL
GASTEIGER

@<TRIPOS>ATOM
      1 C         -13.8287   -4.5418   18.0692 C.2     1  UNL1        0.0080
      2 C         -14.8725   -5.6106   17.9339 C.2     1  UNL1        0.0135
      3 C         -14.4987   -7.0516   18.1177 C.3     1  UNL1        0.1542
      4 C         -15.9163   -6.6793   17.7986 C.3     1  UNL1        0.0614
      5 C         -16.9601   -7.7480   17.6634 C.3     1  UNL1        0.0725
      6 N         -16.5862   -9.1890   17.8472 N.3     1  UNL1       -0.2972
      7 C         -15.1687   -9.5613   18.1662 C.3     1  UNL1        0.0725
      8 C         -14.1249   -8.4926   18.3015 C.3     1  UNL1        0.0614
      9 O         -13.0810   -7.4238   18.4367 O.3     1  UNL1       -0.4785
     10 C         -12.0373   -6.3551   18.5720 C.ar    1  UNL1        0.1386
     11 C         -10.6196   -6.7273   18.8911 C.ar    1  UNL1        0.0369
     12 C          -9.5759   -5.6586   19.0263 C.ar    1  UNL1        0.0031
     13 C          -9.9497   -4.2176   18.8425 C.ar    1  UNL1        0.0002
     14 C         -11.3672   -3.8453   18.5235 C.ar    1  UNL1        0.0030
     15 C         -12.4111   -4.9141   18.3882 C.ar    1  UNL1        0.0343
     16 H         -16.8288   -9.6690   16.9805 H       1  UNL1        0.1233
     17 C         -14.7949   -0.7928   18.3469 C.ar    1  UNL1        0.0830
     18 C         -14.7605   -0.9738   16.8582 C.ar    1  UNL1        0.0115
     19 C         -14.3944   -2.4002   16.5730 C.ar    1  UNL1        0.0071
     20 C         -14.2025   -3.1008   17.8854 C.ar    1  UNL1        0.0295
     21 S         -14.4501   -2.1074   18.9817 S.2     1  UNL1       -0.0824
     22 N         -16.4011    0.6004   19.8398 N.am    1  UNL1       -0.2757
     23 C         -15.1176    0.4793   19.0732 C.2     1  UNL1        0.2550
     24 O         -14.1565    1.6303   19.0329 O.2     1  UNL1       -0.2694
     25 C         -17.4049    1.8216   21.9016 C.3     1  UNL1        0.0233
     26 C         -16.7238    1.8725   20.5661 C.3     1  UNL1        0.0938
     27 C         -17.3621   -0.5506   19.8800 C.3     1  UNL1        0.0938
     28 C         -18.4631   -0.6443   18.8655 C.3     1  UNL1        0.0233
@<TRIPOS>BOND
     1    25    26    1
     2    26    22    1
     3    22    27    1
     4    27    28    1
     5    22    23   am
     6    23    24    2
     7    23    17    1
     8    17    18   ar
     9    18    19   ar
    10    19    20   ar
    11    20     1    1
    12     1     2    2
    13     2     3    1
    14     3     4    1
    15     4     5    1
    16     5     6    1
    17     6     7    1
    18     7     8    1
    19     3     9    1
    20     9    10    1
    21    10    11   ar
    22    11    12   ar
    23    12    13   ar
    24    13    14   ar
    25    14    15   ar
    26    20    21   ar
    27    21    17   ar
    28    15     1    1
    29     8     3    1
    30    15    10   ar
    31     6    16    1
@<TRIPOS>MOLECULE
*****
 28 31 0 0 0
SMALL
GASTEIGER

@<TRIPOS>ATOM
      1 C           2.3336    0.2660   22.2105 C.2     1  UNL1        0.0080
      2 C           3.1439   -0.9963   22.2024 C.2     1  UNL1        0.0135
      3 C           3.4114   -1.7075   20.9091 C.3     1  UNL1        0.1542
      4 C           3.9541   -2.2586   22.1943 C.3     1  UNL1        0.0614
      5 C           4.7643   -3.5209   22.1862 C.3     1  UNL1        0.0725
      6 N           5.0318   -4.2321   20.8929 N.3     1  UNL1       -0.2972
      7 C           4.4891   -3.6810   19.6077 C.3     1  UNL1        0.0725
      8 C           3.6789   -2.4187   19.6158 C.3     1  UNL1        0.0614
      9 O           2.8687   -1.1564   19.6239 O.3     1  UNL1       -0.4785
     10 C           2.0584    0.1059   19.6320 C.ar    1  UNL1        0.1386
     11 C           1.5157    0.6571   18.3468 C.ar    1  UNL1        0.0369
     12 C           0.7055    1.9194   18.3549 C.ar    1  UNL1        0.0031
     13 C           0.4380    2.6306   19.6482 C.ar    1  UNL1        0.0002
     14 C           0.9807    2.0795   20.9334 C.ar    1  UNL1        0.0030
     15 C           1.7909    0.8171   20.9253 C.ar    1  UNL1        0.0343
     16 H           4.6546   -5.1747   20.9917 H       1  UNL1        0.1233
     17 C           1.0511    1.6406   25.6063 C.ar    1  UNL1        0.0830
     18 C           2.2578    2.5028   25.3818 C.ar    1  UNL1        0.0115
     19 C           2.8851    2.0928   24.0824 C.ar    1  UNL1        0.0071
     20 C           2.0661    0.9772   23.5038 C.ar    1  UNL1        0.0295
     21 S           0.9326    0.6977   24.4457 S.2     1  UNL1       -0.0824
     22 N           0.4783    0.9994   28.0579 N.am    1  UNL1       -0.2757
     23 C           0.1253    1.7091   26.7846 C.2     1  UNL1        0.2550
     24 O          -1.1534    2.4875   26.6893 O.2     1  UNL1       -0.2694
     25 C          -1.6490    0.1723   29.2991 C.3     1  UNL1        0.0233
     26 C          -0.4474    1.0680   29.2362 C.3     1  UNL1        0.0938
     27 C           1.7570    0.2211   28.1531 C.3     1  UNL1        0.0938
     28 C           2.1046   -0.4981   29.4228 C.3     1  UNL1        0.0233
@<TRIPOS>BOND
     1    25    26    1
     2    26    22    1
     3    22    27    1
     4    27    28    1
     5    22    23   am
     6    23    24    2
     7    23    17    1
     8    17    18   ar
     9    18    19   ar
    10    19    20   ar
    11    20     1    1
    12     1     2    2
    13     2     3    1
    14     3     4    1
    15     4     5    1
    16     5     6    1
    17     6     7    1
    18     7     8    1
    19     3     9    1
    20     9    10    1
    21    10    11   ar
    22    11    12   ar
    23    12    13   ar
    24    13    14   ar
    25    14    15   ar
    26    20    21   ar
    27    21    17   ar
    28    15     1    1
    29     8     3    1
    30    15    10   ar
    31     6    16    1
@<TRIPOS>MOLECULE
*****
 28 31 0 0 0
SMALL
GASTEIGER

@<TRIPOS>ATOM
      1 C           2.1791    0.6457   21.0793 C.2     1  UNL1        0.0080
      2 C           2.7085    0.1154   19.7798 C.2     1  UNL1        0.0135
      3 C           3.7319   -0.9813   19.7785 C.3     1  UNL1        0.1542
      4 C           3.2379   -0.4149   18.4804 C.3     1  UNL1        0.0614
      5 C           3.7673   -0.9452   17.1810 C.3     1  UNL1        0.0725
      6 N           4.7907   -2.0418   17.1797 N.3     1  UNL1       -0.2972
      7 C           5.2846   -2.6082   18.4778 C.3     1  UNL1        0.0725
      8 C           4.7552   -2.0779   19.7772 C.3     1  UNL1        0.0614
      9 O           4.2258   -1.5476   21.0767 O.3     1  UNL1       -0.4785
     10 C           3.6964   -1.0173   22.3761 C.ar    1  UNL1        0.1386
     11 C           4.1904   -1.5837   23.6743 C.ar    1  UNL1        0.0369
     12 C           3.6610   -1.0534   24.9737 C.ar    1  UNL1        0.0031
     13 C           2.6376    0.0433   24.9750 C.ar    1  UNL1        0.0002
     14 C           2.1436    0.6096   23.6769 C.ar    1  UNL1        0.0030
     15 C           2.6731    0.0793   22.3774 C.ar    1  UNL1        0.0343
     16 H           5.6073   -1.6820   16.6858 H       1  UNL1        0.1233
     17 C          -0.9082    2.9741   20.7428 C.ar    1  UNL1        0.0830
     18 C           0.0699    3.8860   21.4222 C.ar    1  UNL1        0.0115
     19 C           1.3455    3.1248   21.6309 C.ar    1  UNL1        0.0071
     20 C           1.1557    1.7424   21.0805 C.ar    1  UNL1        0.0295
     21 S          -0.2372    1.6492   20.5317 S.2     1  UNL1       -0.0824
     22 N          -2.5590    4.1327   19.1051 N.am    1  UNL1       -0.2757
     23 C          -2.3111    3.3252   20.3445 C.2     1  UNL1        0.2550
     24 O          -3.4660    2.8688   21.1859 O.2     1  UNL1       -0.2694
     25 C          -4.6262    3.7529   17.5779 C.3     1  UNL1        0.0233
     26 C          -3.9618    4.4838   18.7068 C.3     1  UNL1        0.0938
     27 C          -1.4040    4.5891   18.2638 C.3     1  UNL1        0.0938
     28 C          -0.9065    3.7268   17.1417 C.3     1  UNL1        0.0233
@<TRIPOS>BOND
     1    25    26    1
     2    26    22    1
     3    22    27    1
     4    27    28    1
     5    22    23   am
     6    23    24    2
     7    23    17    1
     8    17    18   ar
     9    18    19   ar
    10    19    20   ar
    11    20     1    1
    12     1     2    2
    13     2     3    1
    14     3     4    1
    15     4     5    1
    16     5     6    1
    17     6     7    1
    18     7     8    1
    19     3     9    1
    20     9    10    1
    21    10    11   ar
    22    11    12   ar
    23    12    13   ar
    24    13    14   ar
    25    14    15   ar
    26    20    21   ar
    27    21    17   ar
    28    15     1    1
    29     8     3    1
    30    15    10   ar
    31     6    16    1
