@<TRIPOS>MOLECULE
*****
 30 32 0 0 0
SMALL
GASTEIGER

@<TRIPOS>ATOM
      1 C          -7.9703  -16.2494   22.5594 C.2     1  UNL1        0.4125
      2 O          -6.8719  -15.2329   22.4589 O.2     1  UNL1       -0.2255
      3 N          -8.5006  -16.6502   23.9042 N.am    1  UNL1       -0.2037
      4 C          -9.5990  -17.6668   24.0046 C.ar    1  UNL1        0.0635
      5 C          -9.2913  -19.0603   24.4665 C.ar    1  UNL1        0.0155
      6 C         -10.3898  -20.0769   24.5670 C.ar    1  UNL1        0.0036
      7 C         -11.7959  -19.6998   24.2056 C.ar    1  UNL1        0.0297
      8 C         -12.1036  -18.3063   23.7438 C.ar    1  UNL1        0.1414
      9 F         -13.5097  -17.9292   23.3824 F       1  UNL1       -0.2041
     10 C         -11.0052  -17.2898   23.6433 C.ar    1  UNL1        0.0450
     11 C          -7.9324  -16.0345   25.1483 C.ar    1  UNL1        0.0613
     12 C          -8.8371  -15.6845   26.2925 C.ar    1  UNL1        0.0153
     13 C          -8.2689  -15.0687   27.5366 C.ar    1  UNL1        0.0013
     14 C          -6.7960  -14.8030   27.6367 C.ar    1  UNL1        0.0001
     15 C          -5.8913  -15.1530   26.4926 C.ar    1  UNL1        0.0013
     16 C          -6.4595  -15.7687   25.2484 C.ar    1  UNL1        0.0153
     17 O          -8.5385  -16.8652   21.3152 O.3     1  UNL1       -0.4341
     18 C          -8.1775  -18.2726   20.9427 C.3     1  UNL1        0.2100
     19 C          -3.9021  -19.6482   21.2231 C.3     1  UNL1        0.0297
     20 C          -4.6069  -19.1363   22.4442 C.3     1  UNL1        0.0026
     21 C          -6.0320  -18.6778   22.3508 C.3     1  UNL1        0.0038
     22 C          -6.7524  -18.7311   21.0362 C.3     1  UNL1        0.0439
     23 C          -6.0476  -19.2430   19.8150 C.3     1  UNL1        0.0038
     24 C          -4.6224  -19.7015   19.9085 C.3     1  UNL1        0.0026
     25 C          -2.4770  -20.1067   21.3166 C.3     1  UNL1        0.1426
     26 O          -1.3906  -19.1204   21.6279 O.3     1  UNL1       -0.3478
     27 C          -1.1022  -17.9971   20.6766 C.3     1  UNL1        0.1835
     28 O          -2.4713  -15.9546   21.5154 O.co2   1  UNL1       -0.5466
     29 C          -2.1350  -16.9368   20.4328 C.2     1  UNL1        0.0801
     30 O          -2.8313  -16.8589   19.1065 O.co2   1  UNL1       -0.5466
@<TRIPOS>UNITY_ATOM_ATTR
28 1
charge -1
@<TRIPOS>BOND
     1    28    29   ar
     2    29    30   ar
     3    29    27    1
     4    27    26    1
     5    26    25    1
     6    19    25    1
     7    19    20    1
     8    20    21    1
     9    21    22    1
    10    22    18    1
    11    18    17    1
    12    17     1    1
    13     1     2    2
    14     1     3   am
    15     3    11    1
    16    11    12   ar
    17    12    13   ar
    18    13    14   ar
    19    14    15   ar
    20    15    16   ar
    21     3     4    1
    22     4     5   ar
    23     5     6   ar
    24     6     7   ar
    25     7     8   ar
    26     8     9    1
    27     8    10   ar
    28    22    23    1
    29    23    24    1
    30    24    19    1
    31    16    11   ar
    32    10     4   ar
@<TRIPOS>MOLECULE
*****
 30 32 0 0 0
SMALL
GASTEIGER

@<TRIPOS>ATOM
      1 C          -8.0569  -18.7842   22.2105 C.2     1  UNL1        0.4125
      2 O          -6.6639  -19.0381   22.7055 O.2     1  UNL1       -0.2255
      3 N          -8.8842  -17.6941   22.8248 N.am    1  UNL1       -0.2037
      4 C         -10.2771  -17.4402   22.3298 C.ar    1  UNL1        0.0635
      5 C         -11.4513  -18.0117   23.0679 C.ar    1  UNL1        0.0155
      6 C         -12.8443  -17.7578   22.5728 C.ar    1  UNL1        0.0036
      7 C         -13.0631  -16.9324   21.3396 C.ar    1  UNL1        0.0297
      8 C         -11.8890  -16.3609   20.6015 C.ar    1  UNL1        0.1414
      9 F         -12.1079  -15.5355   19.3683 F       1  UNL1       -0.2041
     10 C         -10.4960  -16.6148   21.0965 C.ar    1  UNL1        0.0450
     11 C          -8.3184  -16.8580   23.9343 C.ar    1  UNL1        0.0613
     12 C          -8.9114  -16.9365   25.3098 C.ar    1  UNL1        0.0153
     13 C          -8.3457  -16.1003   26.4192 C.ar    1  UNL1        0.0013
     14 C          -7.1870  -15.1858   26.1531 C.ar    1  UNL1        0.0001
     15 C          -6.5939  -15.1072   24.7775 C.ar    1  UNL1        0.0013
     16 C          -7.1597  -15.9434   23.6681 C.ar    1  UNL1        0.0153
     17 O          -8.6226  -19.6203   21.1010 O.3     1  UNL1       -0.4341
     18 C          -7.8246  -19.8478   19.8515 C.3     1  UNL1        0.2100
     19 C          -3.3338  -19.5852   19.9708 C.3     1  UNL1        0.0297
     20 C          -4.0222  -20.8525   20.3830 C.3     1  UNL1        0.0026
     21 C          -5.5191  -20.9400   20.3433 C.3     1  UNL1        0.0038
     22 C          -6.3277  -19.7603   19.8913 C.3     1  UNL1        0.0439
     23 C          -5.6393  -18.4930   19.4790 C.3     1  UNL1        0.0038
     24 C          -4.1424  -18.4054   19.5187 C.3     1  UNL1        0.0026
     25 C          -1.8369  -19.4976   20.0105 C.3     1  UNL1        0.1426
     26 O          -1.1491  -18.9624   21.2313 O.3     1  UNL1       -0.3478
     27 C          -1.9576  -18.3861   22.3557 C.3     1  UNL1        0.1835
     28 O          -3.7918  -16.6203   22.8730 O.co2   1  UNL1       -0.5466
     29 C          -2.4664  -16.9777   22.2684 C.2     1  UNL1        0.0801
     30 O          -1.6497  -15.9267   21.5766 O.co2   1  UNL1       -0.5466
@<TRIPOS>UNITY_ATOM_ATTR
28 1
charge -1
@<TRIPOS>BOND
     1    28    29   ar
     2    29    30   ar
     3    29    27    1
     4    27    26    1
     5    26    25    1
     6    19    25    1
     7    19    20    1
     8    20    21    1
     9    21    22    1
    10    22    18    1
    11    18    17    1
    12    17     1    1
    13     1     2    2
    14     1     3   am
    15     3    11    1
    16    11    12   ar
    17    12    13   ar
    18    13    14   ar
    19    14    15   ar
    20    15    16   ar
    21     3     4    1
    22     4     5   ar
    23     5     6   ar
    24     6     7   ar
    25     7     8   ar
    26     8     9    1
    27     8    10   ar
    28    22    23    1
    29    23    24    1
    30    24    19    1
    31    16    11   ar
    32    10     4   ar
@<TRIPOS>MOLECULE
*****
 30 32 0 0 0
SMALL
GASTEIGER

@<TRIPOS>ATOM
      1 C          -6.3015  -20.1943   20.2041 C.2     1  UNL1        0.4125
      2 O          -5.1055  -20.5295   19.3632 O.2     1  UNL1       -0.2255
      3 N          -6.1295  -19.4225   21.4788 N.am    1  UNL1       -0.2037
      4 C          -7.3255  -19.0872   22.3198 C.ar    1  UNL1        0.0635
      5 C          -7.7745  -17.6620   22.4507 C.ar    1  UNL1        0.0155
      6 C          -8.9706  -17.3268   23.2917 C.ar    1  UNL1        0.0036
      7 C          -9.7175  -18.4167   24.0016 C.ar    1  UNL1        0.0297
      8 C          -9.2685  -19.8419   23.8707 C.ar    1  UNL1        0.1414
      9 F         -10.0154  -20.9319   24.5806 F       1  UNL1       -0.2041
     10 C          -8.0725  -20.1772   23.0297 C.ar    1  UNL1        0.0450
     11 C          -4.7615  -18.9860   21.9126 C.ar    1  UNL1        0.0613
     12 C          -3.5451  -19.6466   21.3347 C.ar    1  UNL1        0.0153
     13 C          -2.1772  -19.2102   21.7685 C.ar    1  UNL1        0.0013
     14 C          -2.0256  -18.1131   22.7801 C.ar    1  UNL1        0.0001
     15 C          -3.2420  -17.4524   23.3580 C.ar    1  UNL1        0.0013
     16 C          -4.6100  -17.8889   22.9242 C.ar    1  UNL1        0.0153
     17 O          -7.6694  -20.6307   19.7704 O.3     1  UNL1       -0.4341
     18 C          -8.5795  -19.6633   19.0733 C.3     1  UNL1        0.2100
     19 C         -12.1884  -18.0308   21.2088 C.3     1  UNL1        0.0297
     20 C         -11.8459  -19.4869   21.3204 C.3     1  UNL1        0.0026
     21 C         -10.6429  -20.0310   20.6086 C.3     1  UNL1        0.0038
     22 C          -9.7824  -19.1191   19.7852 C.3     1  UNL1        0.0439
     23 C         -10.1250  -17.6631   19.6736 C.3     1  UNL1        0.0038
     24 C         -11.3280  -17.1189   20.3855 C.3     1  UNL1        0.0026
     25 C         -13.3914  -17.4866   21.9207 C.3     1  UNL1        0.1426
     26 O         -13.3141  -17.1611   23.3829 O.3     1  UNL1       -0.3478
     27 C         -13.3349  -18.2643   24.3990 C.3     1  UNL1        0.1835
     28 O         -15.8637  -18.8528   24.3053 O.co2   1  UNL1       -0.5466
     29 C         -14.6140  -18.6144   25.0999 C.2     1  UNL1        0.0801
     30 O         -14.6434  -18.7262   26.5954 O.co2   1  UNL1       -0.5466
@<TRIPOS>UNITY_ATOM_ATTR
28 1
charge -1
@<TRIPOS>BOND
     1    28    29   ar
     2    29    30   ar
     3    29    27    1
     4    27    26    1
     5    26    25    1
     6    19    25    1
     7    19    20    1
     8    20    21    1
     9    21    22    1
    10    22    18    1
    11    18    17    1
    12    17     1    1
    13     1     2    2
    14     1     3   am
    15     3    11    1
    16    11    12   ar
    17    12    13   ar
    18    13    14   ar
    19    14    15   ar
    20    15    16   ar
    21     3     4    1
    22     4     5   ar
    23     5     6   ar
    24     6     7   ar
    25     7     8   ar
    26     8     9    1
    27     8    10   ar
    28    22    23    1
    29    23    24    1
    30    24    19    1
    31    16    11   ar
    32    10     4   ar
@<TRIPOS>MOLECULE
*****
 30 32 0 0 0
SMALL
GASTEIGER

@<TRIPOS>ATOM
      1 C          -7.8019  -17.4154   22.4806 C.2     1  UNL1        0.4125
      2 O          -6.4209  -17.2204   23.0327 O.2     1  UNL1       -0.2255
      3 N          -8.9991  -17.1653   23.3490 N.am    1  UNL1       -0.2037
      4 C         -10.3800  -17.3602   22.7969 C.ar    1  UNL1        0.0635
      5 C         -10.6450  -17.1256   21.3392 C.ar    1  UNL1        0.0155
      6 C         -12.0260  -17.3206   20.7871 C.ar    1  UNL1        0.0036
      7 C         -13.1420  -17.7502   21.6926 C.ar    1  UNL1        0.0297
      8 C         -12.8771  -17.9848   23.1502 C.ar    1  UNL1        0.1414
      9 F         -13.9931  -18.4144   24.0557 F       1  UNL1       -0.2041
     10 C         -11.4961  -17.7899   23.7024 C.ar    1  UNL1        0.0450
     11 C          -8.8153  -16.7202   24.7696 C.ar    1  UNL1        0.0613
     12 C          -8.3934  -15.3115   25.0657 C.ar    1  UNL1        0.0153
     13 C          -8.2096  -14.8665   26.4863 C.ar    1  UNL1        0.0013
     14 C          -8.4477  -15.8301   27.6109 C.ar    1  UNL1        0.0001
     15 C          -8.8696  -17.2388   27.3149 C.ar    1  UNL1        0.0013
     16 C          -9.0534  -17.6839   25.8943 C.ar    1  UNL1        0.0153
     17 O          -7.9857  -17.8604   21.0600 O.3     1  UNL1       -0.4341
     18 C          -7.3674  -19.1437   20.5901 C.3     1  UNL1        0.2100
     19 C          -2.9011  -19.6746   20.7342 C.3     1  UNL1        0.0297
     20 C          -3.7062  -19.7473   21.9977 C.3     1  UNL1        0.0026
     21 C          -5.1949  -19.5703   21.9497 C.3     1  UNL1        0.0038
     22 C          -5.8786  -19.3207   20.6381 C.3     1  UNL1        0.0439
     23 C          -5.0736  -19.2480   19.3746 C.3     1  UNL1        0.0038
     24 C          -3.5848  -19.4250   19.4226 C.3     1  UNL1        0.0026
     25 C          -1.4124  -19.8516   20.7822 C.3     1  UNL1        0.1426
     26 O          -0.5258  -18.9771   19.9462 O.3     1  UNL1       -0.3478
     27 C          -0.4093  -17.5138   20.2548 C.3     1  UNL1        0.1835
     28 O          -2.6380  -16.4911   19.3962 O.co2   1  UNL1       -0.5466
     29 C          -1.6442  -16.6985   20.5005 C.2     1  UNL1        0.0801
     30 O          -1.8853  -16.0906   21.8504 O.co2   1  UNL1       -0.5466
@<TRIPOS>UNITY_ATOM_ATTR
28 1
charge -1
@<TRIPOS>BOND
     1    28    29   ar
     2    29    30   ar
     3    29    27    1
     4    27    26    1
     5    26    25    1
     6    19    25    1
     7    19    20    1
     8    20    21    1
     9    21    22    1
    10    22    18    1
    11    18    17    1
    12    17     1    1
    13     1     2    2
    14     1     3   am
    15     3    11    1
    16    11    12   ar
    17    12    13   ar
    18    13    14   ar
    19    14    15   ar
    20    15    16   ar
    21     3     4    1
    22     4     5   ar
    23     5     6   ar
    24     6     7   ar
    25     7     8   ar
    26     8     9    1
    27     8    10   ar
    28    22    23    1
    29    23    24    1
    30    24    19    1
    31    16    11   ar
    32    10     4   ar
@<TRIPOS>MOLECULE
*****
 30 32 0 0 0
SMALL
GASTEIGER

@<TRIPOS>ATOM
      1 C          -5.1723  -20.0286   21.2482 C.2     1  UNL1        0.4125
      2 O          -4.6019  -20.9938   20.2518 O.2     1  UNL1       -0.2255
      3 N          -4.4681  -18.7335   21.5258 N.am    1  UNL1       -0.2037
      4 C          -5.0384  -17.7682   22.5222 C.ar    1  UNL1        0.0635
      5 C          -4.1658  -17.2036   23.6038 C.ar    1  UNL1        0.0155
      6 C          -4.7363  -16.2383   24.6003 C.ar    1  UNL1        0.0036
      7 C          -6.1792  -15.8376   24.5151 C.ar    1  UNL1        0.0297
      8 C          -7.0518  -16.4023   23.4336 C.ar    1  UNL1        0.1414
      9 F          -8.4948  -16.0016   23.3484 F       1  UNL1       -0.2041
     10 C          -6.4815  -17.3675   22.4371 C.ar    1  UNL1        0.0450
     11 C          -3.1935  -18.4037   20.8069 C.ar    1  UNL1        0.0613
     12 C          -3.2266  -18.0311   19.3543 C.ar    1  UNL1        0.0153
     13 C          -1.9521  -17.7013   18.6354 C.ar    1  UNL1        0.0013
     14 C          -0.6445  -17.7443   19.3691 C.ar    1  UNL1        0.0001
     15 C          -0.6114  -18.1170   20.8217 C.ar    1  UNL1        0.0013
     16 C          -1.8859  -18.4467   21.5406 C.ar    1  UNL1        0.0153
     17 O          -6.4468  -20.3583   21.9671 O.3     1  UNL1       -0.4341
     18 C          -7.7320  -20.4709   21.2019 C.3     1  UNL1        0.2100
     19 C         -11.5265  -18.7604   22.9126 C.3     1  UNL1        0.0297
     20 C         -10.3210  -18.9348   23.7880 C.3     1  UNL1        0.0026
     21 C          -9.0562  -19.5050   23.2177 C.3     1  UNL1        0.0038
     22 C          -8.9968  -19.9007   21.7721 C.3     1  UNL1        0.0439
     23 C         -10.2023  -19.7262   20.8967 C.3     1  UNL1        0.0038
     24 C         -11.4671  -19.1561   21.4669 C.3     1  UNL1        0.0026
     25 C         -12.7913  -18.1902   23.4828 C.3     1  UNL1        0.1426
     26 O         -13.2209  -16.8012   23.1140 O.3     1  UNL1       -0.3478
     27 C         -12.2207  -15.8280   22.5639 C.3     1  UNL1        0.1835
     28 O         -10.3371  -15.8062   20.7746 O.co2   1  UNL1       -0.5466
     29 C         -11.7893  -15.9255   21.1306 C.2     1  UNL1        0.0801
     30 O         -12.8102  -16.1424   20.0532 O.co2   1  UNL1       -0.5466
@<TRIPOS>UNITY_ATOM_ATTR
28 1
charge -1
@<TRIPOS>BOND
     1    28    29   ar
     2    29    30   ar
     3    29    27    1
     4    27    26    1
     5    26    25    1
     6    19    25    1
     7    19    20    1
     8    20    21    1
     9    21    22    1
    10    22    18    1
    11    18    17    1
    12    17     1    1
    13     1     2    2
    14     1     3   am
    15     3    11    1
    16    11    12   ar
    17    12    13   ar
    18    13    14   ar
    19    14    15   ar
    20    15    16   ar
    21     3     4    1
    22     4     5   ar
    23     5     6   ar
    24     6     7   ar
    25     7     8   ar
    26     8     9    1
    27     8    10   ar
    28    22    23    1
    29    23    24    1
    30    24    19    1
    31    16    11   ar
    32    10     4   ar
@<TRIPOS>MOLECULE
*****
 30 32 0 0 0
SMALL
GASTEIGER

@<TRIPOS>ATOM
      1 C          -4.7794  -19.4581   21.7034 C.2     1  UNL1        0.4125
      2 O          -4.3086  -20.2866   20.5450 O.2     1  UNL1       -0.2255
      3 N          -3.9717  -18.2794   22.1598 N.am    1  UNL1       -0.2037
      4 C          -4.4425  -17.4509   23.3182 C.ar    1  UNL1        0.0635
      5 C          -3.7864  -17.5953   24.6593 C.ar    1  UNL1        0.0155
      6 C          -4.2573  -16.7668   25.8177 C.ar    1  UNL1        0.0036
      7 C          -5.3842  -15.7939   25.6350 C.ar    1  UNL1        0.0297
      8 C          -6.0403  -15.6495   24.2939 C.ar    1  UNL1        0.1414
      9 F          -7.1673  -14.6766   24.1111 F       1  UNL1       -0.2041
     10 C          -5.5695  -16.4780   23.1355 C.ar    1  UNL1        0.0450
     11 C          -2.6932  -17.9292   21.4578 C.ar    1  UNL1        0.0613
     12 C          -2.1367  -16.5401   21.5617 C.ar    1  UNL1        0.0153
     13 C          -0.8582  -16.1899   20.8597 C.ar    1  UNL1        0.0013
     14 C          -0.1363  -17.2287   20.0537 C.ar    1  UNL1        0.0001
     15 C          -0.6928  -18.6178   19.9497 C.ar    1  UNL1        0.0013
     16 C          -1.9713  -18.9681   20.6518 C.ar    1  UNL1        0.0153
     17 O          -6.0579  -19.8084   22.4054 O.3     1  UNL1       -0.4341
     18 C          -7.2939  -20.1048   21.6090 C.3     1  UNL1        0.2100
     19 C         -10.8098  -17.3016   21.7846 C.3     1  UNL1        0.0297
     20 C          -9.7975  -17.3052   22.8915 C.3     1  UNL1        0.0026
     21 C          -8.6255  -18.2396   22.8329 C.3     1  UNL1        0.0038
     22 C          -8.4659  -19.1704   21.6675 C.3     1  UNL1        0.0439
     23 C          -9.4782  -19.1667   20.5607 C.3     1  UNL1        0.0038
     24 C         -10.6501  -18.2323   20.6192 C.3     1  UNL1        0.0026
     25 C         -11.9817  -16.3672   21.8431 C.3     1  UNL1        0.1426
     26 O         -12.9900  -16.4969   22.9460 O.3     1  UNL1       -0.3478
     27 C         -13.5463  -17.8445   23.2990 C.3     1  UNL1        0.1835
     28 O         -14.2485  -18.6430   25.6695 O.co2   1  UNL1       -0.5466
     29 C         -13.1971  -18.4795   24.6124 C.2     1  UNL1        0.0801
     30 O         -11.7963  -18.9509   24.8685 O.co2   1  UNL1       -0.5466
@<TRIPOS>UNITY_ATOM_ATTR
28 1
charge -1
@<TRIPOS>BOND
     1    28    29   ar
     2    29    30   ar
     3    29    27    1
     4    27    26    1
     5    26    25    1
     6    19    25    1
     7    19    20    1
     8    20    21    1
     9    21    22    1
    10    22    18    1
    11    18    17    1
    12    17     1    1
    13     1     2    2
    14     1     3   am
    15     3    11    1
    16    11    12   ar
    17    12    13   ar
    18    13    14   ar
    19    14    15   ar
    20    15    16   ar
    21     3     4    1
    22     4     5   ar
    23     5     6   ar
    24     6     7   ar
    25     7     8   ar
    26     8     9    1
    27     8    10   ar
    28    22    23    1
    29    23    24    1
    30    24    19    1
    31    16    11   ar
    32    10     4   ar
@<TRIPOS>MOLECULE
*****
 30 32 0 0 0
SMALL
GASTEIGER

@<TRIPOS>ATOM
      1 C          -4.1587  -17.7542   22.4644 C.2     1  UNL1        0.4125
      2 O          -3.0848  -16.8377   22.9710 O.2     1  UNL1       -0.2255
      3 N          -3.9956  -18.4413   21.1410 N.am    1  UNL1       -0.2037
      4 C          -5.0695  -19.3579   20.6344 C.ar    1  UNL1        0.0635
      5 C          -4.8459  -20.8411   20.6232 C.ar    1  UNL1        0.0155
      6 C          -5.9199  -21.7576   20.1166 C.ar    1  UNL1        0.0036
      7 C          -7.2174  -21.1910   19.6212 C.ar    1  UNL1        0.0297
      8 C          -7.4409  -19.7077   19.6324 C.ar    1  UNL1        0.1414
      9 F          -8.7384  -19.1411   19.1370 F       1  UNL1       -0.2041
     10 C          -6.3671  -18.7912   20.1390 C.ar    1  UNL1        0.0450
     11 C          -2.7586  -18.2118   20.3242 C.ar    1  UNL1        0.0613
     12 C          -1.4054  -18.3922   20.9456 C.ar    1  UNL1        0.0153
     13 C          -0.1684  -18.1627   20.1288 C.ar    1  UNL1        0.0013
     14 C          -0.2846  -17.7528   18.6906 C.ar    1  UNL1        0.0001
     15 C          -1.6379  -17.5724   18.0691 C.ar    1  UNL1        0.0013
     16 C          -2.8749  -17.8019   18.8859 C.ar    1  UNL1        0.0153
     17 O          -5.3957  -17.9838   23.2812 O.3     1  UNL1       -0.4341
     18 C          -6.3680  -16.8629   23.5009 C.3     1  UNL1        0.2100
     19 C         -10.7922  -17.6333   23.2132 C.3     1  UNL1        0.0297
     20 C          -9.8185  -18.6533   22.7020 C.3     1  UNL1        0.0026
     21 C          -8.3438  -18.3965   22.7979 C.3     1  UNL1        0.0038
     22 C          -7.8428  -17.1197   23.4050 C.3     1  UNL1        0.0439
     23 C          -8.8165  -16.0997   23.9163 C.3     1  UNL1        0.0038
     24 C         -10.2912  -16.3565   23.8204 C.3     1  UNL1        0.0026
     25 C         -12.2670  -17.8901   23.1173 C.3     1  UNL1        0.1426
     26 O         -13.0085  -17.5433   21.8604 O.3     1  UNL1       -0.3478
     27 C         -12.6009  -16.3449   21.0556 C.3     1  UNL1        0.1835
     28 O         -11.0579  -15.3073   19.2409 O.co2   1  UNL1       -0.5466
     29 C         -11.6966  -16.5099   19.8701 C.2     1  UNL1        0.0801
     30 O         -11.4310  -17.8774   19.3140 O.co2   1  UNL1       -0.5466
@<TRIPOS>UNITY_ATOM_ATTR
28 1
charge -1
@<TRIPOS>BOND
     1    28    29   ar
     2    29    30   ar
     3    29    27    1
     4    27    26    1
     5    26    25    1
     6    19    25    1
     7    19    20    1
     8    20    21    1
     9    21    22    1
    10    22    18    1
    11    18    17    1
    12    17     1    1
    13     1     2    2
    14     1     3   am
    15     3    11    1
    16    11    12   ar
    17    12    13   ar
    18    13    14   ar
    19    14    15   ar
    20    15    16   ar
    21     3     4    1
    22     4     5   ar
    23     5     6   ar
    24     6     7   ar
    25     7     8   ar
    26     8     9    1
    27     8    10   ar
    28    22    23    1
    29    23    24    1
    30    24    19    1
    31    16    11   ar
    32    10     4   ar
@<TRIPOS>MOLECULE
*****
 30 32 0 0 0
SMALL
GASTEIGER

@<TRIPOS>ATOM
      1 C           4.6331   -1.0084   17.5727 C.2     1  UNL1        0.4125
      2 O           3.7761   -0.9591   16.3426 O.2     1  UNL1       -0.2255
      3 N           4.4372    0.0017   18.6642 N.am    1  UNL1       -0.2037
      4 C           5.2941   -0.0476   19.8943 C.ar    1  UNL1        0.0635
      5 C           6.7820    0.1029   19.7784 C.ar    1  UNL1        0.0155
      6 C           7.6389    0.0536   21.0086 C.ar    1  UNL1        0.0036
      7 C           7.0079   -0.1463   22.3546 C.ar    1  UNL1        0.0297
      8 C           5.5200   -0.2968   22.4706 C.ar    1  UNL1        0.1414
      9 F           4.8890   -0.4966   23.8166 F       1  UNL1       -0.2041
     10 C           4.6631   -0.2474   21.2404 C.ar    1  UNL1        0.0450
     11 C           3.3843    1.0611   18.5255 C.ar    1  UNL1        0.0613
     12 C           1.9327    0.6848   18.5586 C.ar    1  UNL1        0.0153
     13 C           0.8799    1.7442   18.4199 C.ar    1  UNL1        0.0013
     14 C           1.2787    3.1799   18.2482 C.ar    1  UNL1        0.0001
     15 C           2.7304    3.5563   18.2151 C.ar    1  UNL1        0.0013
     16 C           3.7832    2.4969   18.3538 C.ar    1  UNL1        0.0153
     17 O           5.6859   -2.0678   17.7113 O.3     1  UNL1       -0.4341
     18 C           5.3557   -3.3706   18.3774 C.3     1  UNL1        0.2100
     19 C           6.1946   -3.9318   22.7627 C.3     1  UNL1        0.0297
     20 C           7.3309   -3.7885   21.7941 C.3     1  UNL1        0.0026
     21 C           7.0513   -3.6014   20.3323 C.3     1  UNL1        0.0038
     22 C           5.6354   -3.5577   19.8392 C.3     1  UNL1        0.0439
     23 C           4.4991   -3.7010   20.8078 C.3     1  UNL1        0.0038
     24 C           4.7787   -3.8881   22.2696 C.3     1  UNL1        0.0026
     25 C           6.4742   -4.1189   24.2245 C.3     1  UNL1        0.1426
     26 O           7.8881   -4.2566   24.7061 O.3     1  UNL1       -0.3478
     27 C           8.3499   -5.5462   25.3174 C.3     1  UNL1        0.1835
     28 O           7.5082   -8.0004   25.4536 O.co2   1  UNL1       -0.5466
     29 C           8.0331   -6.8500   24.6467 C.2     1  UNL1        0.0801
     30 O           8.2412   -7.0034   23.1692 O.co2   1  UNL1       -0.5466
@<TRIPOS>UNITY_ATOM_ATTR
28 1
charge -1
@<TRIPOS>BOND
     1    28    29   ar
     2    29    30   ar
     3    29    27    1
     4    27    26    1
     5    26    25    1
     6    19    25    1
     7    19    20    1
     8    20    21    1
     9    21    22    1
    10    22    18    1
    11    18    17    1
    12    17     1    1
    13     1     2    2
    14     1     3   am
    15     3    11    1
    16    11    12   ar
    17    12    13   ar
    18    13    14   ar
    19    14    15   ar
    20    15    16   ar
    21     3     4    1
    22     4     5   ar
    23     5     6   ar
    24     6     7   ar
    25     7     8   ar
    26     8     9    1
    27     8    10   ar
    28    22    23    1
    29    23    24    1
    30    24    19    1
    31    16    11   ar
    32    10     4   ar
@<TRIPOS>MOLECULE
*****
 30 32 0 0 0
SMALL
GASTEIGER

@<TRIPOS>ATOM
      1 C           4.0162   -1.0965   17.8650 C.2     1  UNL1        0.4125
      2 O           4.0655   -0.8714   16.3829 O.2     1  UNL1       -0.2255
      3 N           4.2030    0.0570   18.8055 N.am    1  UNL1       -0.2037
      4 C           4.1536   -0.1681   20.2877 C.ar    1  UNL1        0.0635
      5 C           2.8505   -0.4982   20.9531 C.ar    1  UNL1        0.0155
      6 C           2.8012   -0.7234   22.4354 C.ar    1  UNL1        0.0036
      7 C           4.0549   -0.6184   23.2521 C.ar    1  UNL1        0.0297
      8 C           5.3581   -0.2883   22.5866 C.ar    1  UNL1        0.1414
      9 F           6.6118   -0.1833   23.4033 F       1  UNL1       -0.2041
     10 C           5.4074   -0.0632   21.1044 C.ar    1  UNL1        0.0450
     11 C           4.4392    1.4357   18.2638 C.ar    1  UNL1        0.0613
     12 C           5.7386    1.7645   17.5905 C.ar    1  UNL1        0.0153
     13 C           5.9749    3.1431   17.0487 C.ar    1  UNL1        0.0013
     14 C           4.9117    4.1930   17.1803 C.ar    1  UNL1        0.0001
     15 C           3.6122    3.8643   17.8537 C.ar    1  UNL1        0.0013
     16 C           3.3760    2.4856   18.3954 C.ar    1  UNL1        0.0153
     17 O           3.7799   -2.4752   18.4068 O.3     1  UNL1       -0.4341
     18 C           4.9410   -3.3899   18.6619 C.3     1  UNL1        0.2100
     19 C           6.6642   -3.7366   22.8045 C.3     1  UNL1        0.0297
     20 C           5.1911   -3.9177   22.5874 C.3     1  UNL1        0.0026
     21 C           4.6167   -3.8021   21.2065 C.3     1  UNL1        0.0038
     22 C           5.5154   -3.5055   20.0428 C.3     1  UNL1        0.0439
     23 C           6.9885   -3.3244   20.2599 C.3     1  UNL1        0.0038
     24 C           7.5629   -3.4400   21.6408 C.3     1  UNL1        0.0026
     25 C           7.2385   -3.8522   24.1853 C.3     1  UNL1        0.1426
     26 O           6.6224   -4.7933   25.1776 O.3     1  UNL1       -0.3478
     27 C           7.4784   -5.7986   25.8894 C.3     1  UNL1        0.1835
     28 O           7.5617   -8.3829   26.1434 O.co2   1  UNL1       -0.5466
     29 C           7.6960   -7.1565   25.2903 C.2     1  UNL1        0.0801
     30 O           8.0479   -7.2879   23.8381 O.co2   1  UNL1       -0.5466
@<TRIPOS>UNITY_ATOM_ATTR
28 1
charge -1
@<TRIPOS>BOND
     1    28    29   ar
     2    29    30   ar
     3    29    27    1
     4    27    26    1
     5    26    25    1
     6    19    25    1
     7    19    20    1
     8    20    21    1
     9    21    22    1
    10    22    18    1
    11    18    17    1
    12    17     1    1
    13     1     2    2
    14     1     3   am
    15     3    11    1
    16    11    12   ar
    17    12    13   ar
    18    13    14   ar
    19    14    15   ar
    20    15    16   ar
    21     3     4    1
    22     4     5   ar
    23     5     6   ar
    24     6     7   ar
    25     7     8   ar
    26     8     9    1
    27     8    10   ar
    28    22    23    1
    29    23    24    1
    30    24    19    1
    31    16    11   ar
    32    10     4   ar
