@<TRIPOS>MOLECULE
*****
 27 29 0 0 0
SMALL
GASTEIGER

@<TRIPOS>ATOM
      1 C          -4.5099  -16.9815   22.9927 C.ar    1  UNL1        0.0288
      2 C          -5.7014  -17.8883   22.9029 C.ar    1  UNL1        0.0147
      3 C          -5.5606  -19.2541   22.2990 C.ar    1  UNL1        0.0482
      4 C          -4.2283  -19.7132   21.7849 C.ar    1  UNL1        0.0177
      5 C          -3.0368  -18.8064   21.8748 C.ar    1  UNL1        0.0376
      6 C          -3.1776  -17.4405   22.4787 C.ar    1  UNL1        0.1310
      7 O          -1.9862  -16.5337   22.5685 O.3     1  UNL1       -0.5058
      8 H          -1.1539  -16.8204   22.2475 H       1  UNL1        0.2922
      9 N          -6.7521  -20.1609   22.2091 N.pl3   1  UNL1       -0.3125
     10 H          -6.7826  -20.9880   22.7423 H       1  UNL1        0.1522
     11 C          -7.8972  -19.8075   21.3069 C.ar    1  UNL1        0.0513
     12 C          -7.7322  -19.8897   19.8183 C.ar    1  UNL1        0.0353
     13 C          -8.8772  -19.5363   18.9162 C.ar    1  UNL1        0.1001
     14 N         -10.1873  -19.1008   19.5026 N.ar    1  UNL1       -0.2437
     15 C         -10.3524  -19.0186   20.9912 C.ar    1  UNL1        0.0833
     16 C         -11.6625  -18.5831   21.5776 C.ar    1  UNL1        0.0305
     17 C         -11.8275  -18.5009   23.0662 C.ar    1  UNL1        0.0592
     18 CL        -13.1377  -18.0654   23.6527 Cl      1  UNL1       -0.0822
     19 C         -10.6824  -18.8543   23.9685 C.ar    1  UNL1        0.0115
     20 C          -9.3723  -19.2898   23.3820 C.ar    1  UNL1        0.0036
     21 C          -9.2073  -19.3720   21.8933 C.ar    1  UNL1        0.0312
     22 C          -4.6508  -15.6156   23.5966 C.3     1  UNL1        0.1022
     23 N          -5.7169  -15.3538   24.6188 N.3     1  UNL1       -0.2689
     24 C          -8.2087  -15.7872   24.0245 C.3     1  UNL1        0.0188
     25 C          -7.0582  -14.8386   24.1885 C.3     1  UNL1        0.0724
     26 C          -5.4415  -15.6073   26.0714 C.3     1  UNL1        0.0724
     27 C          -6.5331  -15.4269   27.0843 C.3     1  UNL1        0.0188
@<TRIPOS>BOND
     1    24    25    1
     2    25    23    1
     3    23    26    1
     4    26    27    1
     5    23    22    1
     6    22     1    1
     7     1     2   ar
     8     2     3   ar
     9     3     9    1
    10     9    11    1
    11    11    12   ar
    12    12    13   ar
    13    13    14   ar
    14    14    15   ar
    15    15    16   ar
    16    16    17   ar
    17    17    18    1
    18    17    19   ar
    19    19    20   ar
    20    20    21   ar
    21     3     4   ar
    22     4     5   ar
    23     5     6   ar
    24     6     7    1
    25     6     1   ar
    26    21    11   ar
    27    21    15   ar
    28     9    10    1
    29     7     8    1
@<TRIPOS>MOLECULE
*****
 27 29 0 0 0
SMALL
GASTEIGER

@<TRIPOS>ATOM
      1 C          -9.8094  -19.4098   21.9426 C.ar    1  UNL1        0.0288
      2 C          -8.4276  -19.5327   22.5132 C.ar    1  UNL1        0.0147
      3 C          -7.2488  -19.6823   21.5978 C.ar    1  UNL1        0.0482
      4 C          -7.4517  -19.7091   20.1118 C.ar    1  UNL1        0.0177
      5 C          -8.8335  -19.5862   19.5412 C.ar    1  UNL1        0.0376
      6 C         -10.0124  -19.4366   20.4567 C.ar    1  UNL1        0.1310
      7 O         -11.3942  -19.3137   19.8861 O.3     1  UNL1       -0.5058
      8 H         -11.5209  -19.3304   18.9579 H       1  UNL1        0.2922
      9 N          -5.8670  -19.8052   22.1684 N.pl3   1  UNL1       -0.3125
     10 H          -5.4975  -20.6938   22.3762 H       1  UNL1        0.1522
     11 C          -5.0483  -18.5742   22.4224 C.ar    1  UNL1        0.0513
     12 C          -5.5575  -17.5135   23.3527 C.ar    1  UNL1        0.0353
     13 C          -4.7388  -16.2827   23.6067 C.ar    1  UNL1        0.1001
     14 N          -3.4108  -16.1125   22.9303 N.ar    1  UNL1       -0.2437
     15 C          -2.9015  -17.1732   22.0000 C.ar    1  UNL1        0.0833
     16 C          -1.5735  -17.0030   21.3236 C.ar    1  UNL1        0.0305
     17 C          -1.0643  -18.0637   20.3933 C.ar    1  UNL1        0.0592
     18 CL          0.2637  -17.8935   19.7169 Cl      1  UNL1       -0.0822
     19 C          -1.8830  -19.2947   20.1393 C.ar    1  UNL1        0.0115
     20 C          -3.2110  -19.4649   20.8157 C.ar    1  UNL1        0.0036
     21 C          -3.7203  -18.4041   21.7460 C.ar    1  UNL1        0.0312
     22 C         -10.9883  -19.2601   22.8580 C.3     1  UNL1        0.1022
     23 N         -11.7118  -17.9488   22.9409 N.3     1  UNL1       -0.2689
     24 C         -13.8838  -18.0729   24.3611 C.3     1  UNL1        0.0188
     25 C         -13.2089  -17.9226   23.0300 C.3     1  UNL1        0.0724
     26 C         -10.9382  -16.6637   22.9347 C.3     1  UNL1        0.0724
     27 C          -9.8785  -16.4212   23.9682 C.3     1  UNL1        0.0188
@<TRIPOS>BOND
     1    24    25    1
     2    25    23    1
     3    23    26    1
     4    26    27    1
     5    23    22    1
     6    22     1    1
     7     1     2   ar
     8     2     3   ar
     9     3     9    1
    10     9    11    1
    11    11    12   ar
    12    12    13   ar
    13    13    14   ar
    14    14    15   ar
    15    15    16   ar
    16    16    17   ar
    17    17    18    1
    18    17    19   ar
    19    19    20   ar
    20    20    21   ar
    21     3     4   ar
    22     4     5   ar
    23     5     6   ar
    24     6     7    1
    25     6     1   ar
    26    21    11   ar
    27    21    15   ar
    28     9    10    1
    29     7     8    1
@<TRIPOS>MOLECULE
*****
 27 29 0 0 0
SMALL
GASTEIGER

@<TRIPOS>ATOM
      1 C          -9.3856  -17.7461   22.6561 C.ar    1  UNL1        0.0288
      2 C          -8.0377  -18.4005   22.7270 C.ar    1  UNL1        0.0147
      3 C          -6.8358  -17.6002   23.1331 C.ar    1  UNL1        0.0482
      4 C          -6.9817  -16.1454   23.4682 C.ar    1  UNL1        0.0177
      5 C          -8.3296  -15.4909   23.3973 C.ar    1  UNL1        0.0376
      6 C          -9.5315  -16.2914   22.9913 C.ar    1  UNL1        0.1310
      7 O         -10.8794  -15.6369   22.9204 O.3     1  UNL1       -0.5058
      8 H         -10.9706  -14.7282   23.1297 H       1  UNL1        0.2922
      9 N          -5.4880  -18.2546   23.2040 N.pl3   1  UNL1       -0.3125
     10 H          -4.9846  -18.2546   24.0501 H       1  UNL1        0.1522
     11 C          -4.9070  -18.9091   21.9856 C.ar    1  UNL1        0.0513
     12 C          -5.6411  -20.0324   21.3156 C.ar    1  UNL1        0.0353
     13 C          -5.0601  -20.6868   20.0973 C.ar    1  UNL1        0.1001
     14 N          -3.7450  -20.2178   19.5491 N.ar    1  UNL1       -0.2437
     15 C          -3.0109  -19.0945   20.2192 C.ar    1  UNL1        0.0833
     16 C          -1.6957  -18.6255   19.6710 C.ar    1  UNL1        0.0305
     17 C          -0.9616  -17.5021   20.3411 C.ar    1  UNL1        0.0592
     18 CL          0.3535  -17.0331   19.7929 Cl      1  UNL1       -0.0822
     19 C          -1.5426  -16.8477   21.5594 C.ar    1  UNL1        0.0115
     20 C          -2.8577  -17.3166   22.1076 C.ar    1  UNL1        0.0036
     21 C          -3.5919  -18.4401   21.4375 C.ar    1  UNL1        0.0312
     22 C         -10.5875  -18.5465   22.2501 C.3     1  UNL1        0.1022
     23 N         -11.6268  -17.9379   21.3561 N.3     1  UNL1       -0.2689
     24 C         -11.5256  -16.0560   19.5677 C.3     1  UNL1        0.0188
     25 C         -11.2529  -17.4722   19.9801 C.3     1  UNL1        0.0724
     26 C         -13.0401  -17.7949   21.8380 C.3     1  UNL1        0.0724
     27 C         -13.3452  -17.8836   23.3039 C.3     1  UNL1        0.0188
@<TRIPOS>BOND
     1    24    25    1
     2    25    23    1
     3    23    26    1
     4    26    27    1
     5    23    22    1
     6    22     1    1
     7     1     2   ar
     8     2     3   ar
     9     3     9    1
    10     9    11    1
    11    11    12   ar
    12    12    13   ar
    13    13    14   ar
    14    14    15   ar
    15    15    16   ar
    16    16    17   ar
    17    17    18    1
    18    17    19   ar
    19    19    20   ar
    20    20    21   ar
    21     3     4   ar
    22     4     5   ar
    23     5     6   ar
    24     6     7    1
    25     6     1   ar
    26    21    11   ar
    27    21    15   ar
    28     9    10    1
    29     7     8    1
@<TRIPOS>MOLECULE
*****
 27 29 0 0 0
SMALL
GASTEIGER

@<TRIPOS>ATOM
      1 C          -7.5527  -16.0344   23.5174 C.ar    1  UNL1        0.0288
      2 C          -6.1800  -16.5814   23.2597 C.ar    1  UNL1        0.0147
      3 C          -5.1139  -16.4562   24.3074 C.ar    1  UNL1        0.0482
      4 C          -5.4205  -15.7839   25.6128 C.ar    1  UNL1        0.0177
      5 C          -6.7932  -15.2369   25.8705 C.ar    1  UNL1        0.0376
      6 C          -7.8593  -15.3622   24.8228 C.ar    1  UNL1        0.1310
      7 O          -9.2321  -14.8152   25.0805 O.3     1  UNL1       -0.5058
      8 H          -9.4236  -14.3953   25.8960 H       1  UNL1        0.2922
      9 N          -3.7412  -17.0032   24.0496 N.pl3   1  UNL1       -0.3125
     10 H          -3.1175  -17.1409   24.7989 H       1  UNL1        0.1522
     11 C          -3.3187  -17.3403   22.6504 C.ar    1  UNL1        0.0513
     12 C          -2.2186  -16.5625   21.9911 C.ar    1  UNL1        0.0353
     13 C          -1.7961  -16.8997   20.5919 C.ar    1  UNL1        0.1001
     14 N          -2.4738  -18.0147   19.8520 N.ar    1  UNL1       -0.2437
     15 C          -3.5739  -18.7925   20.5112 C.ar    1  UNL1        0.0833
     16 C          -4.2516  -19.9075   19.7713 C.ar    1  UNL1        0.0305
     17 C          -5.3517  -20.6853   20.4305 C.ar    1  UNL1        0.0592
     18 CL         -6.0294  -21.8003   19.6906 Cl      1  UNL1       -0.0822
     19 C          -5.7742  -20.3482   21.8298 C.ar    1  UNL1        0.0115
     20 C          -5.0965  -19.2332   22.5697 C.ar    1  UNL1        0.0036
     21 C          -3.9964  -18.4553   21.9104 C.ar    1  UNL1        0.0312
     22 C          -8.6189  -16.1597   22.4697 C.3     1  UNL1        0.1022
     23 N          -9.8786  -16.9173   22.7683 N.3     1  UNL1       -0.2689
     24 C          -9.4335  -19.4759   22.6962 C.3     1  UNL1        0.0188
     25 C          -9.8087  -18.2437   23.4650 C.3     1  UNL1        0.0724
     26 C         -11.2082  -16.3484   22.3702 C.3     1  UNL1        0.0724
     27 C         -12.4706  -17.0842   22.7089 C.3     1  UNL1        0.0188
@<TRIPOS>BOND
     1    24    25    1
     2    25    23    1
     3    23    26    1
     4    26    27    1
     5    23    22    1
     6    22     1    1
     7     1     2   ar
     8     2     3   ar
     9     3     9    1
    10     9    11    1
    11    11    12   ar
    12    12    13   ar
    13    13    14   ar
    14    14    15   ar
    15    15    16   ar
    16    16    17   ar
    17    17    18    1
    18    17    19   ar
    19    19    20   ar
    20    20    21   ar
    21     3     4   ar
    22     4     5   ar
    23     5     6   ar
    24     6     7    1
    25     6     1   ar
    26    21    11   ar
    27    21    15   ar
    28     9    10    1
    29     7     8    1
@<TRIPOS>MOLECULE
*****
 27 29 0 0 0
SMALL
GASTEIGER

@<TRIPOS>ATOM
      1 C         -11.3240   -6.0718   17.1264 C.ar    1  UNL1        0.0288
      2 C         -11.2689   -4.6225   17.5090 C.ar    1  UNL1        0.0147
      3 C         -10.3686   -4.1743   18.6219 C.ar    1  UNL1        0.0482
      4 C          -9.5234   -5.1754   19.3523 C.ar    1  UNL1        0.0177
      5 C          -9.5785   -6.6248   18.9697 C.ar    1  UNL1        0.0376
      6 C         -10.4788   -7.0729   17.8567 C.ar    1  UNL1        0.1310
      7 O         -10.5339   -8.5223   17.4741 O.3     1  UNL1       -0.5058
      8 H         -10.0060   -9.1477   17.9303 H       1  UNL1        0.2922
      9 N         -10.3135   -2.7249   19.0045 N.pl3   1  UNL1       -0.3125
     10 H          -9.6846   -2.4227   19.6991 H       1  UNL1        0.1522
     11 C         -11.2166   -1.7360   18.3288 C.ar    1  UNL1        0.0513
     12 C         -10.6782   -0.8441   17.2497 C.ar    1  UNL1        0.0353
     13 C         -11.5813    0.1448   16.5740 C.ar    1  UNL1        0.1001
     14 N         -13.0227    0.2417   16.9775 N.ar    1  UNL1       -0.2437
     15 C         -13.5611   -0.6502   18.0567 C.ar    1  UNL1        0.0833
     16 C         -15.0026   -0.5532   18.4602 C.ar    1  UNL1        0.0305
     17 C         -15.5409   -1.4452   19.5393 C.ar    1  UNL1        0.0592
     18 CL        -16.9824   -1.3482   19.9428 Cl      1  UNL1       -0.0822
     19 C         -14.6378   -2.4341   20.2150 C.ar    1  UNL1        0.0115
     20 C         -13.1964   -2.5310   19.8115 C.ar    1  UNL1        0.0036
     21 C         -12.6580   -1.6390   18.7323 C.ar    1  UNL1        0.0312
     22 C         -12.2243   -6.5200   16.0135 C.3     1  UNL1        0.1022
     23 N         -13.7041   -6.6169   16.2387 N.3     1  UNL1       -0.2689
     24 C         -15.0311   -4.5727   17.1390 C.3     1  UNL1        0.0188
     25 C         -14.5802   -5.4250   15.9900 C.3     1  UNL1        0.0724
     26 C         -14.3078   -7.9056   16.7128 C.3     1  UNL1        0.0724
     27 C         -14.0958   -8.3576   18.1272 C.3     1  UNL1        0.0188
@<TRIPOS>BOND
     1    24    25    1
     2    25    23    1
     3    23    26    1
     4    26    27    1
     5    23    22    1
     6    22     1    1
     7     1     2   ar
     8     2     3   ar
     9     3     9    1
    10     9    11    1
    11    11    12   ar
    12    12    13   ar
    13    13    14   ar
    14    14    15   ar
    15    15    16   ar
    16    16    17   ar
    17    17    18    1
    18    17    19   ar
    19    19    20   ar
    20    20    21   ar
    21     3     4   ar
    22     4     5   ar
    23     5     6   ar
    24     6     7    1
    25     6     1   ar
    26    21    11   ar
    27    21    15   ar
    28     9    10    1
    29     7     8    1
@<TRIPOS>MOLECULE
*****
 27 29 0 0 0
SMALL
GASTEIGER

@<TRIPOS>ATOM
      1 C          -8.2063  -16.2702   23.4287 C.ar    1  UNL1        0.0288
      2 C          -6.9012  -16.9397   23.1146 C.ar    1  UNL1        0.0147
      3 C          -5.7230  -16.7495   24.0232 C.ar    1  UNL1        0.0482
      4 C          -5.8498  -15.8897   25.2459 C.ar    1  UNL1        0.0177
      5 C          -7.1548  -15.2202   25.5599 C.ar    1  UNL1        0.0376
      6 C          -8.3331  -15.4105   24.6513 C.ar    1  UNL1        0.1310
      7 O          -9.6381  -14.7410   24.9653 O.3     1  UNL1       -0.5058
      8 H          -9.7174  -14.2039   25.7290 H       1  UNL1        0.2922
      9 N          -4.4179  -17.4189   23.7092 N.pl3   1  UNL1       -0.3125
     10 H          -3.6409  -17.2835   24.2983 H       1  UNL1        0.1522
     11 C          -4.2968  -18.2949   22.4975 C.ar    1  UNL1        0.0513
     12 C          -5.3081  -19.3743   22.2482 C.ar    1  UNL1        0.0353
     13 C          -5.1870  -20.2502   21.0366 C.ar    1  UNL1        0.1001
     14 N          -4.0545  -20.0467   20.0742 N.ar    1  UNL1       -0.2437
     15 C          -3.0432  -18.9673   20.3235 C.ar    1  UNL1        0.0833
     16 C          -1.9107  -18.7639   19.3612 C.ar    1  UNL1        0.0305
     17 C          -0.8994  -17.6845   19.6104 C.ar    1  UNL1        0.0592
     18 CL          0.2330  -17.4811   18.6481 Cl      1  UNL1       -0.0822
     19 C          -1.0205  -16.8086   20.8221 C.ar    1  UNL1        0.0115
     20 C          -2.1530  -17.0120   21.7845 C.ar    1  UNL1        0.0036
     21 C          -3.1643  -18.0914   21.5351 C.ar    1  UNL1        0.0312
     22 C          -9.3845  -16.4605   22.5200 C.3     1  UNL1        0.1022
     23 N         -10.6610  -17.0361   23.0577 N.3     1  UNL1       -0.2689
     24 C         -10.4443  -19.5949   23.4527 C.3     1  UNL1        0.0188
     25 C         -10.6197  -18.2070   23.9943 C.3     1  UNL1        0.0724
     26 C         -11.9788  -16.4409   22.6588 C.3     1  UNL1        0.0724
     27 C         -12.3978  -16.4437   21.2185 C.3     1  UNL1        0.0188
@<TRIPOS>BOND
     1    24    25    1
     2    25    23    1
     3    23    26    1
     4    26    27    1
     5    23    22    1
     6    22     1    1
     7     1     2   ar
     8     2     3   ar
     9     3     9    1
    10     9    11    1
    11    11    12   ar
    12    12    13   ar
    13    13    14   ar
    14    14    15   ar
    15    15    16   ar
    16    16    17   ar
    17    17    18    1
    18    17    19   ar
    19    19    20   ar
    20    20    21   ar
    21     3     4   ar
    22     4     5   ar
    23     5     6   ar
    24     6     7    1
    25     6     1   ar
    26    21    11   ar
    27    21    15   ar
    28     9    10    1
    29     7     8    1
@<TRIPOS>MOLECULE
*****
 27 29 0 0 0
SMALL
GASTEIGER

@<TRIPOS>ATOM
      1 C         -12.1680   -6.6841   18.5481 C.ar    1  UNL1        0.0288
      2 C         -12.5069   -5.3023   19.0233 C.ar    1  UNL1        0.0147
      3 C         -11.4230   -4.2783   19.1862 C.ar    1  UNL1        0.0482
      4 C         -10.0001   -4.6361   18.8740 C.ar    1  UNL1        0.0177
      5 C          -9.6612   -6.0179   18.3989 C.ar    1  UNL1        0.0376
      6 C         -10.7452   -7.0419   18.2359 C.ar    1  UNL1        0.1310
      7 O         -10.4063   -8.4237   17.7608 O.3     1  UNL1       -0.5058
      8 H          -9.5175   -8.6472   17.5658 H       1  UNL1        0.2922
      9 N         -11.7619   -2.8965   19.6614 N.pl3   1  UNL1       -0.3125
     10 H         -11.7471   -2.6894   20.6238 H       1  UNL1        0.1522
     11 C         -12.1234   -1.8302   18.6702 C.ar    1  UNL1        0.0513
     12 C         -11.0817   -1.2911   17.7352 C.ar    1  UNL1        0.0353
     13 C         -11.4432   -0.2249   16.7441 C.ar    1  UNL1        0.1001
     14 N         -12.8464    0.3024   16.6880 N.ar    1  UNL1       -0.2437
     15 C         -13.8881   -0.2367   17.6230 C.ar    1  UNL1        0.0833
     16 C         -15.2913    0.2905   17.5669 C.ar    1  UNL1        0.0305
     17 C         -16.3329   -0.2486   18.5019 C.ar    1  UNL1        0.0592
     18 CL        -17.7361    0.2787   18.4458 Cl      1  UNL1       -0.0822
     19 C         -15.9715   -1.3149   19.4931 C.ar    1  UNL1        0.0115
     20 C         -14.5683   -1.8421   19.5492 C.ar    1  UNL1        0.0036
     21 C         -13.5266   -1.3030   18.6141 C.ar    1  UNL1        0.0312
     22 C         -13.2520   -7.7081   18.3851 C.3     1  UNL1        0.1022
     23 N         -14.6759   -7.2711   18.2076 N.3     1  UNL1       -0.2689
     24 C         -16.3711   -8.5376   19.7151 C.3     1  UNL1        0.0188
     25 C         -15.6163   -7.2864   19.3761 C.3     1  UNL1        0.0724
     26 C         -15.1594   -6.8189   16.8616 C.3     1  UNL1        0.0724
     27 C         -15.6257   -5.4065   16.6678 C.3     1  UNL1        0.0188
@<TRIPOS>BOND
     1    24    25    1
     2    25    23    1
     3    23    26    1
     4    26    27    1
     5    23    22    1
     6    22     1    1
     7     1     2   ar
     8     2     3   ar
     9     3     9    1
    10     9    11    1
    11    11    12   ar
    12    12    13   ar
    13    13    14   ar
    14    14    15   ar
    15    15    16   ar
    16    16    17   ar
    17    17    18    1
    18    17    19   ar
    19    19    20   ar
    20    20    21   ar
    21     3     4   ar
    22     4     5   ar
    23     5     6   ar
    24     6     7    1
    25     6     1   ar
    26    21    11   ar
    27    21    15   ar
    28     9    10    1
    29     7     8    1
@<TRIPOS>MOLECULE
*****
 27 29 0 0 0
SMALL
GASTEIGER

@<TRIPOS>ATOM
      1 C           6.6778   -3.9181   24.3699 C.ar    1  UNL1        0.0288
      2 C           6.0768   -4.2657   23.0403 C.ar    1  UNL1        0.0147
      3 C           4.9307   -3.4615   22.5021 C.ar    1  UNL1        0.0482
      4 C           4.3857   -2.3096   23.2934 C.ar    1  UNL1        0.0177
      5 C           4.9868   -1.9620   24.6230 C.ar    1  UNL1        0.0376
      6 C           6.1329   -2.7663   25.1613 C.ar    1  UNL1        0.1310
      7 O           6.7339   -2.4187   26.4909 O.3     1  UNL1       -0.5058
      8 H           6.3935   -1.6992   26.9853 H       1  UNL1        0.2922
      9 N           4.3297   -3.8091   21.1724 N.pl3   1  UNL1       -0.3125
     10 H           3.7237   -4.5810   21.0928 H       1  UNL1        0.1522
     11 C           4.6518   -2.9807   19.9641 C.ar    1  UNL1        0.0513
     12 C           5.9090   -3.2422   19.1889 C.ar    1  UNL1        0.0353
     13 C           6.2310   -2.4138   17.9806 C.ar    1  UNL1        0.1001
     14 N           5.2960   -1.3238   17.5476 N.ar    1  UNL1       -0.2437
     15 C           4.0388   -1.0622   18.3229 C.ar    1  UNL1        0.0833
     16 C           3.1037    0.0278   17.8899 C.ar    1  UNL1        0.0305
     17 C           1.8466    0.2894   18.6652 C.ar    1  UNL1        0.0592
     18 CL          0.9115    1.3795   18.2322 Cl      1  UNL1       -0.0822
     19 C           1.5244   -0.5390   19.8735 C.ar    1  UNL1        0.0115
     20 C           2.4595   -1.6291   20.3065 C.ar    1  UNL1        0.0036
     21 C           3.7167   -1.8906   19.5311 C.ar    1  UNL1        0.0312
     22 C           7.8239   -4.7224   24.9082 C.3     1  UNL1        0.1022
     23 N           7.5707   -6.0586   25.5410 N.3     1  UNL1       -0.2689
     24 C           7.1062   -5.5803   28.0521 C.3     1  UNL1        0.0188
     25 C           6.6743   -6.1632   26.7391 C.3     1  UNL1        0.0724
     26 C           8.2138   -7.2902   24.9757 C.3     1  UNL1        0.0724
     27 C           8.7249   -7.2894   23.5655 C.3     1  UNL1        0.0188
@<TRIPOS>BOND
     1    24    25    1
     2    25    23    1
     3    23    26    1
     4    26    27    1
     5    23    22    1
     6    22     1    1
     7     1     2   ar
     8     2     3   ar
     9     3     9    1
    10     9    11    1
    11    11    12   ar
    12    12    13   ar
    13    13    14   ar
    14    14    15   ar
    15    15    16   ar
    16    16    17   ar
    17    17    18    1
    18    17    19   ar
    19    19    20   ar
    20    20    21   ar
    21     3     4   ar
    22     4     5   ar
    23     5     6   ar
    24     6     7    1
    25     6     1   ar
    26    21    11   ar
    27    21    15   ar
    28     9    10    1
    29     7     8    1
@<TRIPOS>MOLECULE
*****
 27 29 0 0 0
SMALL
GASTEIGER

@<TRIPOS>ATOM
      1 C         -15.1743   -7.1164   18.4970 C.ar    1  UNL1        0.0288
      2 C         -14.7650   -5.8782   19.2381 C.ar    1  UNL1        0.0147
      3 C         -13.3128   -5.5239   19.3622 C.ar    1  UNL1        0.0482
      4 C         -12.2697   -6.4080   18.7452 C.ar    1  UNL1        0.0177
      5 C         -12.6790   -7.6463   18.0041 C.ar    1  UNL1        0.0376
      6 C         -14.1314   -8.0005   17.8800 C.ar    1  UNL1        0.1310
      7 O         -14.5407   -9.2387   17.1390 O.3     1  UNL1       -0.5058
      8 H         -13.8892   -9.7910   16.7536 H       1  UNL1        0.2922
      9 N         -12.9034   -4.2857   20.1032 N.pl3   1  UNL1       -0.3125
     10 H         -12.8344   -4.2999   21.0852 H       1  UNL1        0.1522
     11 C         -12.5992   -3.0258   19.3481 C.ar    1  UNL1        0.0513
     12 C         -11.2761   -2.8646   18.6602 C.ar    1  UNL1        0.0353
     13 C         -10.9719   -1.6047   17.9051 C.ar    1  UNL1        0.1001
     14 N         -11.9910   -0.5061   17.8379 N.ar    1  UNL1       -0.2437
     15 C         -13.3141   -0.6672   18.5258 C.ar    1  UNL1        0.0833
     16 C         -14.3332    0.4314   18.4585 C.ar    1  UNL1        0.0305
     17 C         -15.6563    0.2702   19.1464 C.ar    1  UNL1        0.0592
     18 CL        -16.6754    1.3689   19.0791 Cl      1  UNL1       -0.0822
     19 C         -15.9605   -0.9897   19.9015 C.ar    1  UNL1        0.0115
     20 C         -14.9415   -2.0884   19.9687 C.ar    1  UNL1        0.0036
     21 C         -13.6183   -1.9271   19.2808 C.ar    1  UNL1        0.0312
     22 C         -16.6267   -7.4706   18.3729 C.3     1  UNL1        0.1022
     23 N         -17.2885   -8.3035   19.4303 N.3     1  UNL1       -0.2689
     24 C         -19.7584   -8.4287   20.2266 C.3     1  UNL1        0.0188
     25 C         -18.4267   -7.7382   20.2270 C.3     1  UNL1        0.0724
     26 C         -16.8121   -9.7018   19.6910 C.3     1  UNL1        0.0724
     27 C         -17.2062  -10.8134   18.7643 C.3     1  UNL1        0.0188
@<TRIPOS>BOND
     1    24    25    1
     2    25    23    1
     3    23    26    1
     4    26    27    1
     5    23    22    1
     6    22     1    1
     7     1     2   ar
     8     2     3   ar
     9     3     9    1
    10     9    11    1
    11    11    12   ar
    12    12    13   ar
    13    13    14   ar
    14    14    15   ar
    15    15    16   ar
    16    16    17   ar
    17    17    18    1
    18    17    19   ar
    19    19    20   ar
    20    20    21   ar
    21     3     4   ar
    22     4     5   ar
    23     5     6   ar
    24     6     7    1
    25     6     1   ar
    26    21    11   ar
    27    21    15   ar
    28     9    10    1
    29     7     8    1
