@<TRIPOS>MOLECULE
*****
 28 29 0 0 0
SMALL
GASTEIGER

@<TRIPOS>ATOM
      1 N          -6.7822  -18.7469   19.7603 N.pl3   1  UNL1       -0.2609
      2 H          -6.7693  -17.9571   19.1726 H       1  UNL1        0.2588
      3 N          -4.2922  -19.4749   19.9018 N.pl3   1  UNL1        0.0107
      4 C          -5.5741  -19.0918   20.5799 C.cat   1  UNL1        0.4029
      5 N          -1.8761  -20.1647   21.5410 N.1     1  UNL1       -0.1505
      6 C          -3.0842  -19.8197   20.7214 C.1     1  UNL1        0.2954
      7 N          -5.6481  -19.0535   22.0776 N.pl3   1  UNL1       -0.2412
      8 H          -5.6178  -19.8915   22.5935 H       1  UNL1        0.2649
      9 C          -5.7682  -17.7386   22.7893 C.ar    1  UNL1        0.1199
     10 C          -4.5502  -17.0896   23.3767 C.ar    1  UNL1        0.0541
     11 C          -4.6704  -15.7747   24.0883 C.ar    1  UNL1        0.1018
     12 N          -6.0087  -15.1087   24.2126 N.ar    1  UNL1       -0.2421
     13 C          -7.2267  -15.7577   23.6252 C.ar    1  UNL1        0.1018
     14 C          -7.1065  -17.0726   22.9135 C.ar    1  UNL1        0.0541
     15 C          -8.0099  -19.6053   19.8360 C.3     1  UNL1        0.1740
     16 C          -9.1910  -19.1553   20.6438 C.3     1  UNL1        0.0428
     17 C          -9.7187  -20.0225   21.7481 C.3     1  UNL1        0.0037
     18 C          -8.9837  -20.1052   23.0531 C.3     1  UNL1        0.0039
     19 C          -9.7449  -20.2925   24.3319 C.3     1  UNL1        0.0473
     20 C         -10.2157  -19.0973   25.1064 C.3     1  UNL1        0.2054
     21 O         -11.4938  -18.4116   24.7240 O.3     1  UNL1       -0.4755
     22 C         -11.6075  -17.7235   23.3960 C.ar    1  UNL1        0.1386
     23 C         -10.6357  -16.6427   23.0257 C.ar    1  UNL1        0.0378
     24 C         -10.7494  -15.9546   21.6977 C.ar    1  UNL1        0.0145
     25 C         -11.8350  -16.3474   20.7400 C.ar    1  UNL1        0.0579
     26 CL        -11.9487  -15.6593   19.4119 Cl      1  UNL1       -0.0822
     27 C         -12.8069  -17.4283   21.1103 C.ar    1  UNL1        0.0145
     28 C         -12.6931  -18.1163   22.4383 C.ar    1  UNL1        0.0378
@<TRIPOS>BOND
     1     5     6    3
     2     6     3    1
     3     3     4    2
     4     4     1    1
     5     1    15    1
     6    15    16    1
     7    16    17    1
     8    17    18    1
     9    18    19    1
    10    19    20    1
    11    20    21    1
    12    21    22    1
    13    22    23   ar
    14    23    24   ar
    15    24    25   ar
    16    25    26    1
    17    25    27   ar
    18    27    28   ar
    19     4     7    1
    20     7     9    1
    21     9    10   ar
    22    10    11   ar
    23    11    12   ar
    24    12    13   ar
    25    13    14   ar
    26    28    22   ar
    27    14     9   ar
    28     1     2    1
    29     7     8    1
@<TRIPOS>MOLECULE
*****
 28 29 0 0 0
SMALL
GASTEIGER

@<TRIPOS>ATOM
      1 N          -4.4140  -15.6938   23.2814 N.pl3   1  UNL1       -0.2609
      2 H          -4.5474  -14.7596   23.0010 H       1  UNL1        0.2588
      3 N          -2.4548  -15.9390   21.5928 N.pl3   1  UNL1        0.0107
      4 C          -3.4103  -16.5538   22.5721 C.cat   1  UNL1        0.4029
      5 N          -0.4473  -17.6588   20.1742 N.1     1  UNL1       -0.1505
      6 C          -1.4511  -16.7989   20.8835 C.1     1  UNL1        0.2954
      7 N          -3.3621  -18.0285   22.8421 N.pl3   1  UNL1       -0.2412
      8 H          -2.8157  -18.3755   23.5839 H       1  UNL1        0.2649
      9 C          -4.1465  -18.9745   21.9818 C.ar    1  UNL1        0.1199
     10 C          -5.6284  -19.1079   22.1719 C.ar    1  UNL1        0.0541
     11 C          -6.4127  -20.0538   21.3117 C.ar    1  UNL1        0.1018
     12 N          -5.7150  -20.8664   20.2614 N.ar    1  UNL1       -0.2421
     13 C          -4.2332  -20.7330   20.0714 C.ar    1  UNL1        0.1018
     14 C          -3.4489  -19.7871   20.9316 C.ar    1  UNL1        0.0541
     15 C          -5.2145  -16.2573   24.4179 C.3     1  UNL1        0.1740
     16 C          -5.0958  -15.6586   25.7881 C.3     1  UNL1        0.0428
     17 C          -6.3154  -15.1316   26.4846 C.3     1  UNL1        0.0037
     18 C          -7.0415  -15.9898   27.4776 C.3     1  UNL1        0.0039
     19 C          -8.4014  -16.5305   27.1487 C.3     1  UNL1        0.0473
     20 C          -8.7750  -16.8035   25.7218 C.3     1  UNL1        0.2054
     21 O          -9.6552  -17.9711   25.3872 O.3     1  UNL1       -0.4755
     22 C          -9.8549  -18.3740   23.9561 C.ar    1  UNL1        0.1386
     23 C         -10.6331  -19.6135   23.6275 C.ar    1  UNL1        0.0378
     24 C         -10.8327  -20.0164   22.1966 C.ar    1  UNL1        0.0145
     25 C         -10.2542  -19.1797   21.0941 C.ar    1  UNL1        0.0579
     26 CL        -10.4539  -19.5827   19.6631 Cl      1  UNL1       -0.0822
     27 C          -9.4760  -17.9402   21.4227 C.ar    1  UNL1        0.0145
     28 C          -9.2764  -17.5374   22.8537 C.ar    1  UNL1        0.0378
@<TRIPOS>BOND
     1     5     6    3
     2     6     3    1
     3     3     4    2
     4     4     1    1
     5     1    15    1
     6    15    16    1
     7    16    17    1
     8    17    18    1
     9    18    19    1
    10    19    20    1
    11    20    21    1
    12    21    22    1
    13    22    23   ar
    14    23    24   ar
    15    24    25   ar
    16    25    26    1
    17    25    27   ar
    18    27    28   ar
    19     4     7    1
    20     7     9    1
    21     9    10   ar
    22    10    11   ar
    23    11    12   ar
    24    12    13   ar
    25    13    14   ar
    26    28    22   ar
    27    14     9   ar
    28     1     2    1
    29     7     8    1
@<TRIPOS>MOLECULE
*****
 28 29 0 0 0
SMALL
GASTEIGER

@<TRIPOS>ATOM
      1 N          -6.5961  -18.2985   20.4634 N.pl3   1  UNL1       -0.2609
      2 H          -6.3978  -17.3342   20.4726 H       1  UNL1        0.2588
      3 N          -7.7479  -19.4055   22.5124 N.pl3   1  UNL1        0.0107
      4 C          -7.8332  -18.8161   21.1357 C.cat   1  UNL1        0.4029
      5 N         -10.2219  -20.4408   23.8568 N.1     1  UNL1       -0.1505
      6 C          -8.9849  -19.9232   23.1846 C.1     1  UNL1        0.2954
      7 N          -9.1555  -18.7443   20.4312 N.pl3   1  UNL1       -0.2412
      8 H          -9.2827  -19.2120   19.5743 H       1  UNL1        0.2649
      9 C         -10.2840  -17.9599   21.0323 C.ar    1  UNL1        0.1199
     10 C         -10.0086  -16.6536   21.7162 C.ar    1  UNL1        0.0541
     11 C         -11.1371  -15.8693   22.3172 C.ar    1  UNL1        0.1018
     12 N         -12.5409  -16.3913   22.2344 N.ar    1  UNL1       -0.2421
     13 C         -12.8163  -17.6975   21.5505 C.ar    1  UNL1        0.1018
     14 C         -11.6878  -18.4819   20.9495 C.ar    1  UNL1        0.0541
     15 C          -5.6614  -19.2500   19.7773 C.3     1  UNL1        0.1740
     16 C          -4.7114  -20.0824   20.5864 C.3     1  UNL1        0.0428
     17 C          -3.2397  -19.7955   20.5441 C.3     1  UNL1        0.0037
     18 C          -2.5536  -19.2165   21.7457 C.3     1  UNL1        0.0039
     19 C          -2.8501  -17.8097   22.1733 C.3     1  UNL1        0.0473
     20 C          -3.9006  -17.5468   23.2113 C.3     1  UNL1        0.2054
     21 O          -4.6188  -16.2302   23.2349 O.3     1  UNL1       -0.4755
     22 C          -5.6295  -15.9462   24.3064 C.ar    1  UNL1        0.1386
     23 C          -7.0931  -15.9566   23.9784 C.ar    1  UNL1        0.0378
     24 C          -8.1037  -15.6727   25.0499 C.ar    1  UNL1        0.0145
     25 C          -7.6507  -15.3784   26.4492 C.ar    1  UNL1        0.0579
     26 CL         -8.6614  -15.0944   27.5207 Cl      1  UNL1       -0.0822
     27 C          -6.1870  -15.3680   26.7771 C.ar    1  UNL1        0.0145
     28 C          -5.1764  -15.6519   25.7057 C.ar    1  UNL1        0.0378
@<TRIPOS>BOND
     1     5     6    3
     2     6     3    1
     3     3     4    2
     4     4     1    1
     5     1    15    1
     6    15    16    1
     7    16    17    1
     8    17    18    1
     9    18    19    1
    10    19    20    1
    11    20    21    1
    12    21    22    1
    13    22    23   ar
    14    23    24   ar
    15    24    25   ar
    16    25    26    1
    17    25    27   ar
    18    27    28   ar
    19     4     7    1
    20     7     9    1
    21     9    10   ar
    22    10    11   ar
    23    11    12   ar
    24    12    13   ar
    25    13    14   ar
    26    28    22   ar
    27    14     9   ar
    28     1     2    1
    29     7     8    1
@<TRIPOS>MOLECULE
*****
 28 29 0 0 0
SMALL
GASTEIGER

@<TRIPOS>ATOM
      1 N          -5.6756  -15.5194   23.7843 N.pl3   1  UNL1       -0.2609
      2 H          -5.6804  -14.7687   23.1474 H       1  UNL1        0.2588
      3 N          -6.5827  -17.6092   22.5355 N.pl3   1  UNL1        0.0107
      4 C          -5.4827  -16.9221   23.2890 C.cat   1  UNL1        0.4029
      5 N          -6.1971  -20.4146   21.5448 N.1     1  UNL1       -0.1505
      6 C          -6.3899  -19.0119   22.0401 C.1     1  UNL1        0.2954
      7 N          -4.1899  -17.6375   23.5472 N.pl3   1  UNL1       -0.2412
      8 H          -4.0293  -18.0644   24.4197 H       1  UNL1        0.2649
      9 C          -3.1418  -17.7026   22.4761 C.ar    1  UNL1        0.1199
     10 C          -2.4287  -16.4545   22.0477 C.ar    1  UNL1        0.0541
     11 C          -1.3806  -16.5196   20.9766 C.ar    1  UNL1        0.1018
     12 N          -1.0457  -17.8329   20.3339 N.ar    1  UNL1       -0.2421
     13 C          -1.7588  -19.0811   20.7623 C.ar    1  UNL1        0.1018
     14 C          -2.8069  -19.0159   21.8333 C.ar    1  UNL1        0.0541
     15 C          -5.8613  -15.2604   25.2501 C.3     1  UNL1        0.1740
     16 C          -7.1547  -15.6225   25.9177 C.3     1  UNL1        0.0428
     17 C          -8.4445  -15.5220   25.1584 C.3     1  UNL1        0.0037
     18 C          -9.0758  -16.7563   24.5856 C.3     1  UNL1        0.0039
     19 C          -9.5975  -17.8250   25.4997 C.3     1  UNL1        0.0473
     20 C          -9.9870  -19.1628   24.9440 C.3     1  UNL1        0.2054
     21 O         -11.2044  -19.2892   24.0770 O.3     1  UNL1       -0.4755
     22 C         -11.3669  -18.4024   22.8781 C.ar    1  UNL1        0.1386
     23 C         -10.6046  -18.6951   21.6199 C.ar    1  UNL1        0.0378
     24 C         -10.7671  -17.8082   20.4211 C.ar    1  UNL1        0.0145
     25 C         -11.6918  -16.6286   20.4806 C.ar    1  UNL1        0.0579
     26 CL        -11.8542  -15.7417   19.2818 Cl      1  UNL1       -0.0822
     27 C         -12.4540  -16.3359   21.7389 C.ar    1  UNL1        0.0145
     28 C         -12.2915  -17.2228   22.9376 C.ar    1  UNL1        0.0378
@<TRIPOS>BOND
     1     5     6    3
     2     6     3    1
     3     3     4    2
     4     4     1    1
     5     1    15    1
     6    15    16    1
     7    16    17    1
     8    17    18    1
     9    18    19    1
    10    19    20    1
    11    20    21    1
    12    21    22    1
    13    22    23   ar
    14    23    24   ar
    15    24    25   ar
    16    25    26    1
    17    25    27   ar
    18    27    28   ar
    19     4     7    1
    20     7     9    1
    21     9    10   ar
    22    10    11   ar
    23    11    12   ar
    24    12    13   ar
    25    13    14   ar
    26    28    22   ar
    27    14     9   ar
    28     1     2    1
    29     7     8    1
@<TRIPOS>MOLECULE
*****
 28 29 0 0 0
SMALL
GASTEIGER

@<TRIPOS>ATOM
      1 N          -6.7874  -17.1127   22.8527 N.pl3   1  UNL1       -0.2609
      2 H          -6.2494  -16.5834   23.4849 H       1  UNL1        0.2588
      3 N          -7.0431  -19.1742   21.2922 N.pl3   1  UNL1        0.0107
      4 C          -6.2190  -18.3614   22.2463 C.cat   1  UNL1        0.4029
      5 N          -5.9065  -21.6716   20.0795 N.1     1  UNL1       -0.1505
      6 C          -6.4748  -20.4229   20.6859 C.1     1  UNL1        0.2954
      7 N          -4.8265  -18.7974   22.5940 N.pl3   1  UNL1       -0.2412
      8 H          -4.6825  -19.4665   23.3016 H       1  UNL1        0.2649
      9 C          -3.6535  -18.2138   21.8635 C.ar    1  UNL1        0.1199
     10 C          -3.1483  -18.8681   20.6119 C.ar    1  UNL1        0.0541
     11 C          -1.9753  -18.2846   19.8815 C.ar    1  UNL1        0.1018
     12 N          -1.3076  -17.0466   20.4027 N.ar    1  UNL1       -0.2421
     13 C          -1.8128  -16.3923   21.6543 C.ar    1  UNL1        0.1018
     14 C          -2.9858  -16.9759   22.3847 C.ar    1  UNL1        0.0541
     15 C          -8.1756  -16.6703   22.4958 C.3     1  UNL1        0.1740
     16 C          -9.1335  -16.2624   23.5756 C.3     1  UNL1        0.0428
     17 C          -9.1486  -16.9988   24.8824 C.3     1  UNL1        0.0037
     18 C          -9.9514  -18.2578   25.0245 C.3     1  UNL1        0.0039
     19 C          -9.3623  -19.5737   24.6107 C.3     1  UNL1        0.0473
     20 C          -9.9670  -20.3414   23.4726 C.3     1  UNL1        0.2054
     21 O         -11.3181  -19.9600   22.9446 O.3     1  UNL1       -0.4755
     22 C         -11.4486  -18.8364   21.9594 C.ar    1  UNL1        0.1386
     23 C         -12.3147  -17.6545   22.2802 C.ar    1  UNL1        0.0378
     24 C         -12.4451  -16.5309   21.2950 C.ar    1  UNL1        0.0145
     25 C         -11.7094  -16.5893   19.9891 C.ar    1  UNL1        0.0579
     26 CL        -11.8399  -15.4657   19.0039 Cl      1  UNL1       -0.0822
     27 C         -10.8434  -17.7713   19.6683 C.ar    1  UNL1        0.0145
     28 C         -10.7129  -18.8948   20.6535 C.ar    1  UNL1        0.0378
@<TRIPOS>BOND
     1     5     6    3
     2     6     3    1
     3     3     4    2
     4     4     1    1
     5     1    15    1
     6    15    16    1
     7    16    17    1
     8    17    18    1
     9    18    19    1
    10    19    20    1
    11    20    21    1
    12    21    22    1
    13    22    23   ar
    14    23    24   ar
    15    24    25   ar
    16    25    26    1
    17    25    27   ar
    18    27    28   ar
    19     4     7    1
    20     7     9    1
    21     9    10   ar
    22    10    11   ar
    23    11    12   ar
    24    12    13   ar
    25    13    14   ar
    26    28    22   ar
    27    14     9   ar
    28     1     2    1
    29     7     8    1
@<TRIPOS>MOLECULE
*****
 28 29 0 0 0
SMALL
GASTEIGER

@<TRIPOS>ATOM
      1 N          -9.0189  -17.4825   24.8959 N.pl3   1  UNL1       -0.2609
      2 H          -9.3241  -18.0873   25.6103 H       1  UNL1        0.2588
      3 N          -7.4604  -17.8648   22.8525 N.pl3   1  UNL1        0.0107
      4 C          -8.8015  -18.0101   23.5086 C.cat   1  UNL1        0.4029
      5 N          -7.0257  -18.9200   20.0780 N.1     1  UNL1       -0.1505
      6 C          -7.2430  -18.3924   21.4653 C.1     1  UNL1        0.2954
      7 N          -9.9252  -18.6829   22.7774 N.pl3   1  UNL1       -0.2412
      8 H         -10.0544  -19.6553   22.8609 H       1  UNL1        0.2649
      9 C         -10.8521  -17.8740   21.9190 C.ar    1  UNL1        0.1199
     10 C         -11.9487  -17.0691   22.5510 C.ar    1  UNL1        0.0541
     11 C         -12.8756  -16.2603   21.6927 C.ar    1  UNL1        0.1018
     12 N         -12.7058  -16.2565   20.2023 N.ar    1  UNL1       -0.2421
     13 C         -11.6092  -17.0615   19.5703 C.ar    1  UNL1        0.1018
     14 C         -10.6824  -17.8702   20.4287 C.ar    1  UNL1        0.0541
     15 C          -8.7712  -16.0336   25.1946 C.3     1  UNL1        0.1740
     16 C          -8.4655  -15.5987   26.5972 C.3     1  UNL1        0.0428
     17 C          -7.0578  -15.6604   27.1116 C.3     1  UNL1        0.0037
     18 C          -5.9413  -15.0513   26.3164 C.3     1  UNL1        0.0039
     19 C          -4.8229  -15.9138   25.8114 C.3     1  UNL1        0.0473
     20 C          -4.8037  -16.3537   24.3774 C.3     1  UNL1        0.2054
     21 O          -4.0576  -17.5938   23.9832 O.3     1  UNL1       -0.4755
     22 C          -3.3984  -17.6769   22.6383 C.ar    1  UNL1        0.1386
     23 C          -3.6879  -18.8362   21.7316 C.ar    1  UNL1        0.0378
     24 C          -3.0288  -18.9192   20.3867 C.ar    1  UNL1        0.0145
     25 C          -2.0802  -17.8430   19.9486 C.ar    1  UNL1        0.0579
     26 CL         -1.4211  -17.9261   18.6037 Cl      1  UNL1       -0.0822
     27 C          -1.7908  -16.6837   20.8553 C.ar    1  UNL1        0.0145
     28 C          -2.4499  -16.6006   22.2002 C.ar    1  UNL1        0.0378
@<TRIPOS>BOND
     1     5     6    3
     2     6     3    1
     3     3     4    2
     4     4     1    1
     5     1    15    1
     6    15    16    1
     7    16    17    1
     8    17    18    1
     9    18    19    1
    10    19    20    1
    11    20    21    1
    12    21    22    1
    13    22    23   ar
    14    23    24   ar
    15    24    25   ar
    16    25    26    1
    17    25    27   ar
    18    27    28   ar
    19     4     7    1
    20     7     9    1
    21     9    10   ar
    22    10    11   ar
    23    11    12   ar
    24    12    13   ar
    25    13    14   ar
    26    28    22   ar
    27    14     9   ar
    28     1     2    1
    29     7     8    1
@<TRIPOS>MOLECULE
*****
 28 29 0 0 0
SMALL
GASTEIGER

@<TRIPOS>ATOM
      1 N          -7.2876  -18.7608   20.4139 N.pl3   1  UNL1       -0.2609
      2 H          -7.4770  -18.4560   19.4972 H       1  UNL1        0.2588
      3 N          -8.1706  -19.4688   22.7526 N.pl3   1  UNL1        0.0107
      4 C          -8.4042  -19.2522   21.2868 C.cat   1  UNL1        0.4029
      5 N         -10.4036  -20.4517   24.4983 N.1     1  UNL1       -0.1505
      6 C          -9.2871  -19.9602   23.6254 C.1     1  UNL1        0.2954
      7 N          -9.7542  -19.5271   20.6938 N.pl3   1  UNL1       -0.2412
      8 H          -9.9538  -20.4130   20.3136 H       1  UNL1        0.2649
      9 C         -10.8004  -18.4521   20.6801 C.ar    1  UNL1        0.1199
     10 C         -10.6438  -17.2646   19.7772 C.ar    1  UNL1        0.0541
     11 C         -11.6899  -16.1898   19.7636 C.ar    1  UNL1        0.1018
     12 N         -12.8926  -16.3024   20.6528 N.ar    1  UNL1       -0.2421
     13 C         -13.0492  -17.4899   21.5557 C.ar    1  UNL1        0.1018
     14 C         -12.0031  -18.5648   21.5694 C.ar    1  UNL1        0.0541
     15 C          -5.8823  -18.7337   20.9379 C.3     1  UNL1        0.1740
     16 C          -5.1656  -20.0188   21.2290 C.3     1  UNL1        0.0428
     17 C          -4.4023  -20.7149   20.1413 C.3     1  UNL1        0.0037
     18 C          -3.5955  -19.9155   19.1616 C.3     1  UNL1        0.0039
     19 C          -2.6357  -18.8733   19.6541 C.3     1  UNL1        0.0473
     20 C          -1.6975  -19.1904   20.7808 C.3     1  UNL1        0.2054
     21 O          -1.3951  -18.1517   21.8198 O.3     1  UNL1       -0.4755
     22 C          -2.5156  -17.4170   22.4942 C.ar    1  UNL1        0.1386
     23 C          -3.3356  -18.1024   23.5467 C.ar    1  UNL1        0.0378
     24 C          -4.4560  -17.3677   24.2211 C.ar    1  UNL1        0.0145
     25 C          -4.7565  -15.9476   23.8429 C.ar    1  UNL1        0.0579
     26 CL         -5.8770  -15.2129   24.5173 Cl      1  UNL1       -0.0822
     27 C          -3.9365  -15.2622   22.7904 C.ar    1  UNL1        0.0145
     28 C          -2.8161  -15.9969   22.1161 C.ar    1  UNL1        0.0378
@<TRIPOS>BOND
     1     5     6    3
     2     6     3    1
     3     3     4    2
     4     4     1    1
     5     1    15    1
     6    15    16    1
     7    16    17    1
     8    17    18    1
     9    18    19    1
    10    19    20    1
    11    20    21    1
    12    21    22    1
    13    22    23   ar
    14    23    24   ar
    15    24    25   ar
    16    25    26    1
    17    25    27   ar
    18    27    28   ar
    19     4     7    1
    20     7     9    1
    21     9    10   ar
    22    10    11   ar
    23    11    12   ar
    24    12    13   ar
    25    13    14   ar
    26    28    22   ar
    27    14     9   ar
    28     1     2    1
    29     7     8    1
@<TRIPOS>MOLECULE
*****
 28 29 0 0 0
SMALL
GASTEIGER

@<TRIPOS>ATOM
      1 N          -7.1510  -16.0988   24.6591 N.pl3   1  UNL1       -0.2609
      2 H          -7.3839  -16.8470   25.2551 H       1  UNL1        0.2588
      3 N          -7.5457  -15.0256   22.3262 N.pl3   1  UNL1        0.0107
      4 C          -8.0825  -15.7039   23.5517 C.cat   1  UNL1        0.4029
      5 N          -9.4086  -14.2358   20.1113 N.1     1  UNL1       -0.1505
      6 C          -8.4771  -14.6307   21.2188 C.1     1  UNL1        0.2954
      7 N          -9.5507  -15.9873   23.6697 N.pl3   1  UNL1       -0.2412
      8 H         -10.1669  -15.2779   23.9636 H       1  UNL1        0.2649
      9 C         -10.0802  -17.3515   23.3400 C.ar    1  UNL1        0.1199
     10 C         -10.4171  -17.7025   21.9212 C.ar    1  UNL1        0.0541
     11 C         -10.9465  -19.0666   21.5915 C.ar    1  UNL1        0.1018
     12 N         -11.1390  -20.0798   22.6807 N.ar    1  UNL1       -0.2421
     13 C         -10.8021  -19.7288   24.0996 C.ar    1  UNL1        0.1018
     14 C         -10.2726  -18.3647   24.4292 C.ar    1  UNL1        0.0541
     15 C          -5.8645  -15.3537   24.8586 C.3     1  UNL1        0.1740
     16 C          -4.5562  -16.0218   24.5555 C.3     1  UNL1        0.0428
     17 C          -4.2769  -16.5316   23.1727 C.3     1  UNL1        0.0037
     18 C          -3.1896  -15.9081   22.3488 C.3     1  UNL1        0.0039
     19 C          -1.9179  -16.6608   22.0921 C.3     1  UNL1        0.0473
     20 C          -1.6042  -17.1543   20.7107 C.3     1  UNL1        0.2054
     21 O          -2.1209  -18.4866   20.2548 O.3     1  UNL1       -0.4755
     22 C          -3.4983  -18.9315   20.6487 C.ar    1  UNL1        0.1386
     23 C          -4.6530  -18.7097   19.7174 C.ar    1  UNL1        0.0378
     24 C          -6.0303  -19.1546   20.1112 C.ar    1  UNL1        0.0145
     25 C          -6.2528  -19.8214   21.4363 C.ar    1  UNL1        0.0579
     26 CL         -7.6301  -20.2663   21.8302 Cl      1  UNL1       -0.0822
     27 C          -5.0980  -20.0432   22.3676 C.ar    1  UNL1        0.0145
     28 C          -3.7208  -19.5983   21.9738 C.ar    1  UNL1        0.0378
@<TRIPOS>BOND
     1     5     6    3
     2     6     3    1
     3     3     4    2
     4     4     1    1
     5     1    15    1
     6    15    16    1
     7    16    17    1
     8    17    18    1
     9    18    19    1
    10    19    20    1
    11    20    21    1
    12    21    22    1
    13    22    23   ar
    14    23    24   ar
    15    24    25   ar
    16    25    26    1
    17    25    27   ar
    18    27    28   ar
    19     4     7    1
    20     7     9    1
    21     9    10   ar
    22    10    11   ar
    23    11    12   ar
    24    12    13   ar
    25    13    14   ar
    26    28    22   ar
    27    14     9   ar
    28     1     2    1
    29     7     8    1
@<TRIPOS>MOLECULE
*****
 28 29 0 0 0
SMALL
GASTEIGER

@<TRIPOS>ATOM
      1 N           7.0438   -5.5091   29.7172 N.pl3   1  UNL1       -0.2609
      2 H           6.1097   -5.7445   29.5140 H       1  UNL1        0.2588
      3 N           8.7383   -4.0425   31.0318 N.pl3   1  UNL1        0.0107
      4 C           7.3542   -4.5966   30.8667 C.cat   1  UNL1        0.4029
      5 N           9.3592   -2.2177   33.3306 N.1     1  UNL1       -0.1505
      6 C           9.0487   -3.1301   32.1811 C.1     1  UNL1        0.2954
      7 N           6.2806   -4.2384   31.8510 N.pl3   1  UNL1       -0.2412
      8 H           5.9400   -4.9177   32.4769 H       1  UNL1        0.2649
      9 C           5.7258   -2.8450   31.8817 C.ar    1  UNL1        0.1199
     10 C           5.7843   -1.9872   30.6526 C.ar    1  UNL1        0.0541
     11 C           5.2295   -0.5940   30.6833 C.ar    1  UNL1        0.1018
     12 N           4.6162   -0.0585   31.9431 N.ar    1  UNL1       -0.2421
     13 C           4.5576   -0.9163   33.1722 C.ar    1  UNL1        0.1018
     14 C           5.1124   -2.3096   33.1414 C.ar    1  UNL1        0.0541
     15 C           8.1565   -6.0627   28.8775 C.3     1  UNL1        0.1740
     16 C           8.4633   -7.5306   28.9121 C.3     1  UNL1        0.0428
     17 C           8.5868   -8.3015   27.6313 C.3     1  UNL1        0.0037
     18 C           8.6159   -9.8009   27.6582 C.3     1  UNL1        0.0039
     19 C           7.3730  -10.5692   27.9972 C.3     1  UNL1        0.0473
     20 C           7.4136  -12.0669   28.0705 C.3     1  UNL1        0.2054
     21 O           6.4272  -12.8830   27.2889 O.3     1  UNL1       -0.4755
     22 C           5.0010  -12.9741   27.7446 C.ar    1  UNL1        0.1386
     23 C           4.5588  -12.2408   28.9761 C.ar    1  UNL1        0.0378
     24 C           3.1326  -12.3320   29.4318 C.ar    1  UNL1        0.0145
     25 C           2.1486  -13.1564   28.6559 C.ar    1  UNL1        0.0579
     26 CL          0.7224  -13.2475   29.1115 Cl      1  UNL1       -0.0822
     27 C           2.5908  -13.8897   27.4243 C.ar    1  UNL1        0.0145
     28 C           4.0170  -13.7985   26.9687 C.ar    1  UNL1        0.0378
@<TRIPOS>BOND
     1     5     6    3
     2     6     3    1
     3     3     4    2
     4     4     1    1
     5     1    15    1
     6    15    16    1
     7    16    17    1
     8    17    18    1
     9    18    19    1
    10    19    20    1
    11    20    21    1
    12    21    22    1
    13    22    23   ar
    14    23    24   ar
    15    24    25   ar
    16    25    26    1
    17    25    27   ar
    18    27    28   ar
    19     4     7    1
    20     7     9    1
    21     9    10   ar
    22    10    11   ar
    23    11    12   ar
    24    12    13   ar
    25    13    14   ar
    26    28    22   ar
    27    14     9   ar
    28     1     2    1
    29     7     8    1
