@<TRIPOS>MOLECULE
*****
 33 35 0 0 0
SMALL
GASTEIGER

@<TRIPOS>ATOM
      1 C          -0.8341    2.7296   26.9065 C.ar    1  UNL1        0.0594
      2 C           0.1268    3.6750   27.5646 C.ar    1  UNL1        0.0164
      3 C           0.8843    3.2448   28.7857 C.ar    1  UNL1        0.0181
      4 C           0.6811    1.8695   29.3487 C.ar    1  UNL1        0.0758
      5 C          -0.2798    0.9241   28.6907 C.ar    1  UNL1        0.1546
      6 F          -0.4831   -0.4512   29.2537 F       1  UNL1       -0.2028
      7 C          -1.0374    1.3542   27.4695 C.ar    1  UNL1        0.0459
      8 N           1.4387    1.4394   30.5698 N.pl3   1  UNL1       -0.3025
      9 C           1.2374    2.2856   31.7920 C.3     1  UNL1        0.1096
     10 C           1.8452    2.1214   33.1536 C.3     1  UNL1        0.1092
     11 N           2.8042    1.0707   33.6292 N.3     1  UNL1       -0.2249
     12 N           3.3924   -0.0754   32.8608 N.am    1  UNL1       -0.2207
     13 C           4.3301   -0.9601   33.6276 C.2     1  UNL1        0.2686
     14 O           4.6247   -0.6697   35.0694 O.2     1  UNL1       -0.2709
     15 C           3.1667   -0.4539   31.4269 C.3     1  UNL1        0.1327
     16 C           2.2972    0.2204   30.4074 C.3     1  UNL1        0.1140
     17 H           2.3316    0.6326   34.4198 H       1  UNL1        0.1453
     18 C           4.9732   -2.1352   32.9525 C.3     1  UNL1        0.2245
     19 O           4.5214   -3.5277   33.2796 O.3     1  UNL1       -0.3736
     20 H           4.7409   -3.7305   34.2024 H       1  UNL1        0.2111
     21 C          -2.1534    3.6846   23.3834 C.3     1  UNL1        0.2101
     22 C          -1.0596    3.1910   24.2833 C.3     1  UNL1        0.1468
     23 N          -1.5917    3.1597   25.6854 N.am    1  UNL1       -0.2212
     24 C          -3.0144    3.6339   25.6521 C.2     1  UNL1        0.4088
     25 O          -3.9292    3.7612   26.8339 O.2     1  UNL1       -0.2258
     26 O          -3.3615    3.9583   24.2293 O.3     1  UNL1       -0.4345
     27 C          -2.0562    3.8717   21.8983 C.3     1  UNL1        0.1358
     28 N          -2.8560    2.9976   20.9783 N.am    1  UNL1       -0.2954
     29 H          -2.4392    2.2081   20.5635 H       1  UNL1        0.1502
     30 C          -4.2909    3.3266   20.6902 C.2     1  UNL1        0.2296
     31 S          -4.6999    3.7555   19.3123 S.2     1  UNL1        0.0058
     32 C          -6.2449    4.3749   22.0438 C.3     1  UNL1        0.2545
     33 O          -5.3166    3.2266   21.7800 O.3     1  UNL1       -0.4543
@<TRIPOS>BOND
     1    32    33    1
     2    33    30    1
     3    30    31    2
     4    30    28    1
     5    28    27    1
     6    21    27    1
     7    21    22    1
     8    22    23    1
     9    23     1    1
    10     1     2   ar
    11     2     3   ar
    12     3     4   ar
    13     4     8    1
    14     8     9    1
    15     9    10    1
    16    10    11    1
    17    11    12    1
    18    12    13   am
    19    13    14    2
    20    13    18    1
    21    18    19    1
    22    12    15    1
    23    15    16    1
    24     4     5   ar
    25     5     6    1
    26     5     7   ar
    27    23    24   am
    28    24    25    2
    29    24    26    1
    30    26    21    1
    31     7     1   ar
    32    16     8    1
    33    28    29    1
    34    11    17    1
    35    19    20    1
@<TRIPOS>MOLECULE
*****
 33 35 0 0 0
SMALL
GASTEIGER

@<TRIPOS>ATOM
      1 C         -15.2244   -5.8095   18.8663 C.ar    1  UNL1        0.0594
      2 C         -16.0406   -4.9631   17.9350 C.ar    1  UNL1        0.0164
      3 C         -15.9182   -3.4687   17.9780 C.ar    1  UNL1        0.0181
      4 C         -14.9796   -2.8208   18.9524 C.ar    1  UNL1        0.0758
      5 C         -14.1635   -3.6672   19.8837 C.ar    1  UNL1        0.1546
      6 F         -13.2249   -3.0193   20.8580 F       1  UNL1       -0.2028
      7 C         -14.2859   -5.1616   19.8407 C.ar    1  UNL1        0.0459
      8 N         -14.8573   -1.3264   18.9953 N.pl3   1  UNL1       -0.3025
      9 C         -13.6328   -0.7547   18.3442 C.3     1  UNL1        0.1096
     10 C         -13.2242    0.6834   18.2206 C.3     1  UNL1        0.1092
     11 N         -13.9390    1.9047   18.7176 N.3     1  UNL1       -0.2249
     12 N         -15.2391    1.9899   19.4610 N.am    1  UNL1       -0.2207
     13 C         -15.6929    3.3731   19.8222 C.2     1  UNL1        0.2686
     14 O         -14.8594    4.5599   19.4389 O.2     1  UNL1       -0.2709
     15 C         -16.1454    0.8746   19.8909 C.3     1  UNL1        0.1327
     16 C         -15.9754   -0.6013   19.6836 C.3     1  UNL1        0.1140
     17 H         -14.0841    2.4731   17.8832 H       1  UNL1        0.1453
     18 C         -16.9802    3.5697   20.5667 C.3     1  UNL1        0.2245
     19 O         -16.9846    3.5829   22.0667 O.3     1  UNL1       -0.3736
     20 H         -16.7376    2.7055   22.3985 H       1  UNL1        0.2111
     21 C         -16.2498   -9.5513   18.9787 C.3     1  UNL1        0.2101
     22 C         -16.5751   -8.0979   19.1565 C.3     1  UNL1        0.1468
     23 N         -15.3468   -7.3039   18.8233 N.am    1  UNL1       -0.2212
     24 C         -14.2624   -8.2666   18.4395 C.2     1  UNL1        0.4088
     25 O         -12.8654   -7.9040   18.0314 O.2     1  UNL1       -0.2258
     26 O         -14.8206   -9.6556   18.5356 O.3     1  UNL1       -0.4345
     27 C         -17.1889  -10.6990   19.2043 C.3     1  UNL1        0.1358
     28 N         -18.2070  -11.0514   18.1606 N.am    1  UNL1       -0.2954
     29 H         -18.1238  -11.8926   17.6560 H       1  UNL1        0.1502
     30 C         -19.3520  -10.1221   17.8858 C.2     1  UNL1        0.2296
     31 S         -19.4117   -9.3681   16.5905 S.2     1  UNL1        0.0058
     32 C         -20.3663   -8.8164   19.8898 C.3     1  UNL1        0.2545
     33 O         -20.4371   -9.9468   18.9064 O.3     1  UNL1       -0.4543
@<TRIPOS>BOND
     1    32    33    1
     2    33    30    1
     3    30    31    2
     4    30    28    1
     5    28    27    1
     6    21    27    1
     7    21    22    1
     8    22    23    1
     9    23     1    1
    10     1     2   ar
    11     2     3   ar
    12     3     4   ar
    13     4     8    1
    14     8     9    1
    15     9    10    1
    16    10    11    1
    17    11    12    1
    18    12    13   am
    19    13    14    2
    20    13    18    1
    21    18    19    1
    22    12    15    1
    23    15    16    1
    24     4     5   ar
    25     5     6    1
    26     5     7   ar
    27    23    24   am
    28    24    25    2
    29    24    26    1
    30    26    21    1
    31     7     1   ar
    32    16     8    1
    33    28    29    1
    34    11    17    1
    35    19    20    1
@<TRIPOS>MOLECULE
*****
 33 35 0 0 0
SMALL
GASTEIGER

@<TRIPOS>ATOM
      1 C          -0.9413    2.6343   27.3406 C.ar    1  UNL1        0.0594
      2 C          -1.1856    1.3002   27.9813 C.ar    1  UNL1        0.0164
      3 C          -0.3745    0.8796   29.1709 C.ar    1  UNL1        0.0181
      4 C           0.6810    1.7931   29.7199 C.ar    1  UNL1        0.0758
      5 C           0.9254    3.1272   29.0793 C.ar    1  UNL1        0.1546
      6 F           1.9809    4.0408   29.6283 F       1  UNL1       -0.2028
      7 C           0.1142    3.5479   27.8896 C.ar    1  UNL1        0.0459
      8 N           1.4921    1.3725   30.9095 N.pl3   1  UNL1       -0.3025
      9 C           1.3665    2.2441   32.1239 C.3     1  UNL1        0.1096
     10 C           2.0393    2.0943   33.4562 C.3     1  UNL1        0.1092
     11 N           3.0038    1.0361   33.9031 N.3     1  UNL1       -0.2249
     12 N           3.5338   -0.1338   33.1282 N.am    1  UNL1       -0.2207
     13 C           4.4945   -1.0203   33.8638 C.2     1  UNL1        0.2686
     14 O           4.8660   -0.7088   35.2832 O.2     1  UNL1       -0.2709
     15 C           3.2301   -0.5344   31.7149 C.3     1  UNL1        0.1327
     16 C           2.3214    0.1361   30.7276 C.3     1  UNL1        0.1140
     17 H           2.5646    0.6206   34.7246 H       1  UNL1        0.1453
     18 C           5.0836   -2.2184   33.1799 C.3     1  UNL1        0.2245
     19 O           4.3712   -3.5375   33.2321 O.3     1  UNL1       -0.3736
     20 H           4.3585   -3.8621   34.1460 H       1  UNL1        0.2111
     21 C          -3.5598    3.9096   24.7751 C.3     1  UNL1        0.2101
     22 C          -3.1341    3.6378   26.1875 C.3     1  UNL1        0.1468
     23 N          -1.7524    3.0549   26.1511 N.am    1  UNL1       -0.2212
     24 C          -1.3242    2.9665   24.7162 C.2     1  UNL1        0.4088
     25 O          -0.0099    2.4420   24.2190 O.2     1  UNL1       -0.2258
     26 O          -2.4414    3.4947   23.8658 O.3     1  UNL1       -0.4345
     27 C          -4.8735    4.4937   24.3472 C.3     1  UNL1        0.1358
     28 N          -5.8829    3.6348   23.6446 N.am    1  UNL1       -0.2954
     29 H          -5.8106    2.6540   23.6887 H       1  UNL1        0.1502
     30 C          -7.0026    4.2704   22.8749 C.2     1  UNL1        0.2296
     31 S          -6.7552    4.8062   21.4959 S.2     1  UNL1        0.0058
     32 C          -8.6743    5.4609   24.4679 C.3     1  UNL1        0.2545
     33 O          -8.3695    4.3703   23.4843 O.3     1  UNL1       -0.4543
@<TRIPOS>BOND
     1    32    33    1
     2    33    30    1
     3    30    31    2
     4    30    28    1
     5    28    27    1
     6    21    27    1
     7    21    22    1
     8    22    23    1
     9    23     1    1
    10     1     2   ar
    11     2     3   ar
    12     3     4   ar
    13     4     8    1
    14     8     9    1
    15     9    10    1
    16    10    11    1
    17    11    12    1
    18    12    13   am
    19    13    14    2
    20    13    18    1
    21    18    19    1
    22    12    15    1
    23    15    16    1
    24     4     5   ar
    25     5     6    1
    26     5     7   ar
    27    23    24   am
    28    24    25    2
    29    24    26    1
    30    26    21    1
    31     7     1   ar
    32    16     8    1
    33    28    29    1
    34    11    17    1
    35    19    20    1
@<TRIPOS>MOLECULE
*****
 33 35 0 0 0
SMALL
GASTEIGER

@<TRIPOS>ATOM
      1 C           1.4674    0.8914   26.9229 C.ar    1  UNL1        0.0594
      2 C           2.8188    0.2867   26.6819 C.ar    1  UNL1        0.0164
      3 C           3.2954    0.0505   25.2793 C.ar    1  UNL1        0.0181
      4 C           2.4206    0.4189   24.1179 C.ar    1  UNL1        0.0758
      5 C           1.0693    1.0236   24.3589 C.ar    1  UNL1        0.1546
      6 F           0.1945    1.3920   23.1974 F       1  UNL1       -0.2028
      7 C           0.5926    1.2598   25.7615 C.ar    1  UNL1        0.0459
      8 N           2.8973    0.1827   22.7154 N.pl3   1  UNL1       -0.3025
      9 C           3.0011    1.4029   21.8491 C.3     1  UNL1        0.1096
     10 C           3.4404    1.4993   20.4180 C.3     1  UNL1        0.1092
     11 N           3.8843    0.3994   19.5000 N.3     1  UNL1       -0.2249
     12 N           3.9988   -1.0687   19.7861 N.am    1  UNL1       -0.2207
     13 C           4.4779   -1.9184   18.6466 C.2     1  UNL1        0.2686
     14 O           4.8073   -1.2865   17.3267 O.2     1  UNL1       -0.2709
     15 C           3.6974   -1.7993   21.0609 C.3     1  UNL1        0.1327
     16 C           3.2072   -1.2423   22.3646 C.3     1  UNL1        0.1140
     17 H           4.8205    0.6758   19.2042 H       1  UNL1        0.1453
     18 C           4.6276   -3.4000   18.8271 C.3     1  UNL1        0.2245
     19 O           3.4728   -4.3116   18.5346 O.3     1  UNL1       -0.3736
     20 H           2.7585   -4.1422   19.1686 H       1  UNL1        0.2111
     21 C           0.8157    1.9802   30.5910 C.3     1  UNL1        0.2101
     22 C           1.6141    2.0578   29.3235 C.3     1  UNL1        0.1468
     23 N           0.9908    1.1276   28.3254 N.am    1  UNL1       -0.2212
     24 C          -0.1928    0.4750   28.9760 C.2     1  UNL1        0.4088
     25 O          -1.1075   -0.5282   28.3384 O.2     1  UNL1       -0.2258
     26 O          -0.3009    1.0020   30.3763 O.3     1  UNL1       -0.4345
     27 C           1.0865    2.7462   31.8519 C.3     1  UNL1        0.1358
     28 N           1.2531    2.0164   33.1518 N.am    1  UNL1       -0.2954
     29 H           0.4823    1.5642   33.5647 H       1  UNL1        0.1502
     30 C           2.5942    1.9757   33.8226 C.2     1  UNL1        0.2296
     31 S           2.7766    2.6027   35.1730 S.2     1  UNL1        0.0058
     32 C           3.6763   -0.1471   32.7870 C.3     1  UNL1        0.2545
     33 O           3.7527    1.3081   33.1429 O.3     1  UNL1       -0.4543
@<TRIPOS>BOND
     1    32    33    1
     2    33    30    1
     3    30    31    2
     4    30    28    1
     5    28    27    1
     6    21    27    1
     7    21    22    1
     8    22    23    1
     9    23     1    1
    10     1     2   ar
    11     2     3   ar
    12     3     4   ar
    13     4     8    1
    14     8     9    1
    15     9    10    1
    16    10    11    1
    17    11    12    1
    18    12    13   am
    19    13    14    2
    20    13    18    1
    21    18    19    1
    22    12    15    1
    23    15    16    1
    24     4     5   ar
    25     5     6    1
    26     5     7   ar
    27    23    24   am
    28    24    25    2
    29    24    26    1
    30    26    21    1
    31     7     1   ar
    32    16     8    1
    33    28    29    1
    34    11    17    1
    35    19    20    1
@<TRIPOS>MOLECULE
*****
 33 35 0 0 0
SMALL
GASTEIGER

@<TRIPOS>ATOM
      1 C           7.0790   -4.2336   27.3214 C.ar    1  UNL1        0.0594
      2 C           6.8806   -2.8294   26.8325 C.ar    1  UNL1        0.0164
      3 C           6.9353   -2.5321   25.3633 C.ar    1  UNL1        0.0181
      4 C           7.1884   -3.6388   24.3829 C.ar    1  UNL1        0.0758
      5 C           7.3867   -5.0429   24.8718 C.ar    1  UNL1        0.1546
      6 F           7.6398   -6.1497   23.8914 F       1  UNL1       -0.2028
      7 C           7.3320   -5.3404   26.3411 C.ar    1  UNL1        0.0459
      8 N           7.2431   -3.3413   22.9137 N.pl3   1  UNL1       -0.3025
      9 C           8.6007   -3.4305   22.2819 C.3     1  UNL1        0.1096
     10 C           8.9834   -3.1943   20.8508 C.3     1  UNL1        0.1092
     11 N           8.1033   -2.8108   19.6984 N.3     1  UNL1       -0.2249
     12 N           6.6230   -2.5687   19.6922 N.am    1  UNL1       -0.2207
     13 C           6.0301   -2.1956   18.3659 C.2     1  UNL1        0.2686
     14 O           6.9092   -2.0863   17.1554 O.2     1  UNL1       -0.2709
     15 C           5.6572   -2.6502   20.8370 C.3     1  UNL1        0.1327
     16 C           5.9333   -2.9941   22.2707 C.3     1  UNL1        0.1140
     17 H           8.2439   -3.5520   19.0119 H       1  UNL1        0.1453
     18 C           4.5580   -1.9319   18.2499 C.3     1  UNL1        0.2245
     19 O           3.9133   -1.8591   16.8974 O.3     1  UNL1       -0.3736
     20 H           4.2546   -1.0882   16.4176 H       1  UNL1        0.2111
     21 C           6.6840   -4.2959   31.1821 C.3     1  UNL1        0.2101
     22 C           6.5778   -3.5849   29.8656 C.3     1  UNL1        0.1468
     23 N           7.0242   -4.5310   28.7905 N.am    1  UNL1       -0.2212
     24 C           7.4064   -5.8266   29.4427 C.2     1  UNL1        0.4088
     25 O           7.9103   -7.0523   28.7401 O.2     1  UNL1       -0.2258
     26 O           7.1961   -5.6813   30.9207 O.3     1  UNL1       -0.4345
     27 C           6.3387   -3.7222   32.5243 C.3     1  UNL1        0.1358
     28 N           4.9797   -3.1330   32.7611 N.am    1  UNL1       -0.2954
     29 H           4.1804   -3.7062   32.7182 H       1  UNL1        0.1502
     30 C           4.8384   -1.6706   33.0633 C.2     1  UNL1        0.2296
     31 S           6.0125   -0.8955   33.5836 S.2     1  UNL1        0.0058
     32 C           3.1696   -0.4544   31.4868 C.3     1  UNL1        0.2545
     33 O           3.5232   -0.9833   32.8452 O.3     1  UNL1       -0.4543
@<TRIPOS>BOND
     1    32    33    1
     2    33    30    1
     3    30    31    2
     4    30    28    1
     5    28    27    1
     6    21    27    1
     7    21    22    1
     8    22    23    1
     9    23     1    1
    10     1     2   ar
    11     2     3   ar
    12     3     4   ar
    13     4     8    1
    14     8     9    1
    15     9    10    1
    16    10    11    1
    17    11    12    1
    18    12    13   am
    19    13    14    2
    20    13    18    1
    21    18    19    1
    22    12    15    1
    23    15    16    1
    24     4     5   ar
    25     5     6    1
    26     5     7   ar
    27    23    24   am
    28    24    25    2
    29    24    26    1
    30    26    21    1
    31     7     1   ar
    32    16     8    1
    33    28    29    1
    34    11    17    1
    35    19    20    1
@<TRIPOS>MOLECULE
*****
 33 35 0 0 0
SMALL
GASTEIGER

@<TRIPOS>ATOM
      1 C          -1.1810    3.2295   21.6204 C.ar    1  UNL1        0.0594
      2 C          -0.1373    2.5809   22.4808 C.ar    1  UNL1        0.0164
      3 C           1.0079    1.8484   21.8470 C.ar    1  UNL1        0.0181
      4 C           1.1096    1.7645   20.3528 C.ar    1  UNL1        0.0758
      5 C           0.0661    2.4130   19.4924 C.ar    1  UNL1        0.1546
      6 F           0.1678    2.3291   17.9982 F       1  UNL1       -0.2028
      7 C          -1.0793    3.1455   20.1262 C.ar    1  UNL1        0.0459
      8 N           2.2550    1.0319   19.7190 N.pl3   1  UNL1       -0.3025
      9 C           3.1576    1.8599   18.8531 C.3     1  UNL1        0.1096
     10 C           4.3745    1.4287   18.0892 C.3     1  UNL1        0.1092
     11 N           4.9892    0.0633   18.0027 N.3     1  UNL1       -0.2249
     12 N           4.5389   -1.2084   18.6585 N.am    1  UNL1       -0.2207
     13 C           5.3754   -2.4200   18.3721 C.2     1  UNL1        0.2686
     14 O           6.5754   -2.3088   17.4790 O.2     1  UNL1       -0.2709
     15 C           3.3627   -1.4286   19.5630 C.3     1  UNL1        0.1327
     16 C           2.3463   -0.4315   20.0349 C.3     1  UNL1        0.1140
     17 H           5.9471    0.1933   18.3280 H       1  UNL1        0.1453
     18 C           5.0120   -3.7429   18.9788 C.3     1  UNL1        0.2245
     19 O           3.8797   -4.5441   18.4077 O.3     1  UNL1       -0.3736
     20 H           3.0456   -4.0682   18.5445 H       1  UNL1        0.2111
     21 C          -3.6056    5.5570   23.5617 C.3     1  UNL1        0.2101
     22 C          -2.2178    5.1495   23.1643 C.3     1  UNL1        0.1468
     23 N          -2.3262    3.9620   22.2542 N.am    1  UNL1       -0.2212
     24 C          -3.7810    3.6356   22.0892 C.2     1  UNL1        0.4088
     25 O          -4.3458    2.5195   21.2615 O.2     1  UNL1       -0.2258
     26 O          -4.5717    4.6214   22.8974 O.3     1  UNL1       -0.4345
     27 C          -3.9644    6.6995   24.4650 C.3     1  UNL1        0.1358
     28 N          -3.8963    6.5286   25.9538 N.am    1  UNL1       -0.2954
     29 H          -3.1845    6.9734   26.4683 H       1  UNL1        0.1502
     30 C          -4.9128    5.6800   26.6585 C.2     1  UNL1        0.2296
     31 S          -6.3429    6.1269   26.7301 S.2     1  UNL1        0.0058
     32 C          -3.3398    3.6138   26.7337 C.3     1  UNL1        0.2545
     33 O          -4.4992    4.3848   27.2917 O.3     1  UNL1       -0.4543
@<TRIPOS>BOND
     1    32    33    1
     2    33    30    1
     3    30    31    2
     4    30    28    1
     5    28    27    1
     6    21    27    1
     7    21    22    1
     8    22    23    1
     9    23     1    1
    10     1     2   ar
    11     2     3   ar
    12     3     4   ar
    13     4     8    1
    14     8     9    1
    15     9    10    1
    16    10    11    1
    17    11    12    1
    18    12    13   am
    19    13    14    2
    20    13    18    1
    21    18    19    1
    22    12    15    1
    23    15    16    1
    24     4     5   ar
    25     5     6    1
    26     5     7   ar
    27    23    24   am
    28    24    25    2
    29    24    26    1
    30    26    21    1
    31     7     1   ar
    32    16     8    1
    33    28    29    1
    34    11    17    1
    35    19    20    1
@<TRIPOS>MOLECULE
*****
 33 35 0 0 0
SMALL
GASTEIGER

@<TRIPOS>ATOM
      1 C           2.7281   -0.0840   19.1609 C.ar    1  UNL1        0.0594
      2 C           1.4889   -0.5248   19.8824 C.ar    1  UNL1        0.0164
      3 C           0.3725    0.4487   20.1188 C.ar    1  UNL1        0.0181
      4 C           0.4951    1.8628   19.6338 C.ar    1  UNL1        0.0758
      5 C           1.7341    2.3035   18.9125 C.ar    1  UNL1        0.1546
      6 F           1.8567    3.7177   18.4275 F       1  UNL1       -0.2028
      7 C           2.8507    1.3301   18.6760 C.ar    1  UNL1        0.0459
      8 N          -0.6215    2.8361   19.8703 N.pl3   1  UNL1       -0.3025
      9 C          -1.1324    3.5486   18.6531 C.3     1  UNL1        0.1096
     10 C          -2.2276    4.5693   18.5577 C.3     1  UNL1        0.1092
     11 N          -3.0821    5.1294   19.6557 N.3     1  UNL1       -0.2249
     12 N          -3.0527    4.8075   21.1205 N.am    1  UNL1       -0.2207
     13 C          -4.0459    5.5447   21.9690 C.2     1  UNL1        0.2686
     14 O          -4.9850    6.5304   21.3392 O.2     1  UNL1       -0.2709
     15 C          -2.1614    3.8457   21.8489 C.3     1  UNL1        0.1327
     16 C          -1.0794    2.9684   21.2925 C.3     1  UNL1        0.1140
     17 H          -4.0379    4.9207   19.3674 H       1  UNL1        0.1453
     18 C          -4.1000    5.2964   23.4473 C.3     1  UNL1        0.2245
     19 O          -5.3936    4.8984   24.0941 O.3     1  UNL1       -0.3736
     20 H          -6.0263    5.6308   24.0293 H       1  UNL1        0.2111
     21 C           5.6558   -2.6284   19.3013 C.3     1  UNL1        0.2101
     22 C           4.6515   -1.7478   19.9839 C.3     1  UNL1        0.1468
     23 N           3.8445   -1.0574   18.9245 N.am    1  UNL1       -0.2212
     24 C           4.3501   -1.5113   17.5872 C.2     1  UNL1        0.4088
     25 O           3.8280   -1.0716   16.2516 O.2     1  UNL1       -0.2258
     26 O           5.4695   -2.4823   17.8201 O.3     1  UNL1       -0.4345
     27 C           6.6685   -3.5019   19.9806 C.3     1  UNL1        0.1358
     28 N           7.1650   -3.1483   21.3512 N.am    1  UNL1       -0.2954
     29 H           7.7667   -2.3787   21.4734 H       1  UNL1        0.1502
     30 C           6.7447   -3.9672   22.5356 C.2     1  UNL1        0.2296
     31 S           5.6178   -3.5001   23.4085 S.2     1  UNL1        0.0058
     32 C           7.7404   -5.6241   24.2713 C.3     1  UNL1        0.2545
     33 O           7.4512   -5.2531   22.8470 O.3     1  UNL1       -0.4543
@<TRIPOS>BOND
     1    32    33    1
     2    33    30    1
     3    30    31    2
     4    30    28    1
     5    28    27    1
     6    21    27    1
     7    21    22    1
     8    22    23    1
     9    23     1    1
    10     1     2   ar
    11     2     3   ar
    12     3     4   ar
    13     4     8    1
    14     8     9    1
    15     9    10    1
    16    10    11    1
    17    11    12    1
    18    12    13   am
    19    13    14    2
    20    13    18    1
    21    18    19    1
    22    12    15    1
    23    15    16    1
    24     4     5   ar
    25     5     6    1
    26     5     7   ar
    27    23    24   am
    28    24    25    2
    29    24    26    1
    30    26    21    1
    31     7     1   ar
    32    16     8    1
    33    28    29    1
    34    11    17    1
    35    19    20    1
@<TRIPOS>MOLECULE
*****
 33 35 0 0 0
SMALL
GASTEIGER

@<TRIPOS>ATOM
      1 C           6.2496   -2.9247   31.4222 C.ar    1  UNL1        0.0594
      2 C           6.7792   -1.5276   31.2893 C.ar    1  UNL1        0.0164
      3 C           6.3125   -0.4561   32.2296 C.ar    1  UNL1        0.0181
      4 C           5.3161   -0.7817   33.3026 C.ar    1  UNL1        0.0758
      5 C           4.7865   -2.1787   33.4354 C.ar    1  UNL1        0.1546
      6 F           3.7902   -2.5043   34.5084 F       1  UNL1       -0.2028
      7 C           5.2533   -3.2503   32.4951 C.ar    1  UNL1        0.0459
      8 N           4.8494    0.2899   34.2427 N.pl3   1  UNL1       -0.3025
      9 C           3.6169    1.0338   33.8213 C.3     1  UNL1        0.1096
     10 C           2.9074    2.1475   34.5331 C.3     1  UNL1        0.1092
     11 N           3.2553    2.7922   35.8419 N.3     1  UNL1       -0.2249
     12 N           4.3985    2.4826   36.7624 N.am    1  UNL1       -0.2207
     13 C           4.4740    3.3138   38.0087 C.2     1  UNL1        0.2686
     14 O           3.4443    4.3735   38.2670 O.2     1  UNL1       -0.2709
     15 C           5.4762    1.4518   36.6013 C.3     1  UNL1        0.1327
     16 C           5.6768    0.4760   35.4799 C.3     1  UNL1        0.1140
     17 H           2.4226    2.6671   36.4176 H       1  UNL1        0.1453
     18 C           5.5791    3.0852   38.9969 C.3     1  UNL1        0.2245
     19 O           5.2691    2.5198   40.3513 O.3     1  UNL1       -0.3736
     20 H           4.7328    3.1546   40.8516 H       1  UNL1        0.2111
     21 C           7.4813   -5.1401   28.4827 C.3     1  UNL1        0.2101
     22 C           7.0662   -3.8088   29.0354 C.3     1  UNL1        0.1468
     23 N           6.7163   -3.9962   30.4820 N.am    1  UNL1       -0.2212
     24 C           6.9152   -5.4433   30.8233 C.2     1  UNL1        0.4088
     25 O           6.6822   -6.0729   32.1646 O.2     1  UNL1       -0.2258
     26 O           7.3879   -6.1502   29.5876 O.3     1  UNL1       -0.4345
     27 C           7.9137   -5.4132   27.0726 C.3     1  UNL1        0.1358
     28 N           7.4207   -6.6381   26.3608 N.am    1  UNL1       -0.2954
     29 H           6.5069   -6.6607   25.9953 H       1  UNL1        0.1502
     30 C           8.3201   -7.8285   26.2059 C.2     1  UNL1        0.2296
     31 S           8.4749   -8.8036   27.3352 S.2     1  UNL1        0.0058
     32 C           8.6469   -7.3121   23.6808 C.3     1  UNL1        0.2545
     33 O           9.0647   -8.0439   24.9218 O.3     1  UNL1       -0.4543
@<TRIPOS>BOND
     1    32    33    1
     2    33    30    1
     3    30    31    2
     4    30    28    1
     5    28    27    1
     6    21    27    1
     7    21    22    1
     8    22    23    1
     9    23     1    1
    10     1     2   ar
    11     2     3   ar
    12     3     4   ar
    13     4     8    1
    14     8     9    1
    15     9    10    1
    16    10    11    1
    17    11    12    1
    18    12    13   am
    19    13    14    2
    20    13    18    1
    21    18    19    1
    22    12    15    1
    23    15    16    1
    24     4     5   ar
    25     5     6    1
    26     5     7   ar
    27    23    24   am
    28    24    25    2
    29    24    26    1
    30    26    21    1
    31     7     1   ar
    32    16     8    1
    33    28    29    1
    34    11    17    1
    35    19    20    1
@<TRIPOS>MOLECULE
*****
 33 35 0 0 0
SMALL
GASTEIGER

@<TRIPOS>ATOM
      1 C           6.4932   -2.9109   31.5524 C.ar    1  UNL1        0.0594
      2 C           7.4700   -1.7979   31.7913 C.ar    1  UNL1        0.0164
      3 C           7.2346   -0.8192   32.9034 C.ar    1  UNL1        0.0181
      4 C           6.0223   -0.9536   33.7766 C.ar    1  UNL1        0.0758
      5 C           5.0455   -2.0665   33.5377 C.ar    1  UNL1        0.1546
      6 F           3.8333   -2.2009   34.4109 F       1  UNL1       -0.2028
      7 C           5.2810   -3.0452   32.4255 C.ar    1  UNL1        0.0459
      8 N           5.7870    0.0251   34.8887 N.pl3   1  UNL1       -0.3025
      9 C           6.8524    0.0804   35.9433 C.3     1  UNL1        0.1096
     10 C           6.9113    0.9434   37.1688 C.3     1  UNL1        0.1092
     11 N           5.9195    1.9640   37.6424 N.3     1  UNL1       -0.2249
     12 N           4.6237    2.3740   37.0076 N.am    1  UNL1       -0.2207
     13 C           3.8496    3.4335   37.7342 C.2     1  UNL1        0.2686
     14 O           4.3851    4.0112   39.0107 O.2     1  UNL1       -0.2709
     15 C           3.9998    1.8644   35.7423 C.3     1  UNL1        0.1327
     16 C           4.5176    0.8190   34.7994 C.3     1  UNL1        0.1140
     17 H           6.4557    2.8290   37.7103 H       1  UNL1        0.1453
     18 C           2.5398    3.9154   37.1842 C.3     1  UNL1        0.2245
     19 O           1.2597    3.2637   37.6162 O.3     1  UNL1       -0.3736
     20 H           1.2409    2.3468   37.3001 H       1  UNL1        0.2111
     21 C           7.0863   -4.8329   28.2329 C.3     1  UNL1        0.2101
     22 C           6.8595   -3.5545   28.9840 C.3     1  UNL1        0.1468
     23 N           6.7286   -3.8895   30.4403 N.am    1  UNL1       -0.2212
     24 C           6.8744   -5.3750   30.5891 C.2     1  UNL1        0.4088
     25 O           6.8104   -6.1425   31.8762 O.2     1  UNL1       -0.2258
     26 O           7.0955   -5.9580   29.2248 O.3     1  UNL1       -0.4345
     27 C           7.2713   -4.9634   26.7500 C.3     1  UNL1        0.1358
     28 N           7.4883   -6.3152   26.1373 N.am    1  UNL1       -0.2954
     29 H           7.3672   -7.1272   26.6807 H       1  UNL1        0.1502
     30 C           7.8900   -6.4300   24.6966 C.2     1  UNL1        0.2296
     31 S           8.8894   -7.4668   24.2770 S.2     1  UNL1        0.0058
     32 C           8.1188   -4.4031   23.0876 C.3     1  UNL1        0.2545
     33 O           7.2922   -5.5080   23.6757 O.3     1  UNL1       -0.4543
@<TRIPOS>BOND
     1    32    33    1
     2    33    30    1
     3    30    31    2
     4    30    28    1
     5    28    27    1
     6    21    27    1
     7    21    22    1
     8    22    23    1
     9    23     1    1
    10     1     2   ar
    11     2     3   ar
    12     3     4   ar
    13     4     8    1
    14     8     9    1
    15     9    10    1
    16    10    11    1
    17    11    12    1
    18    12    13   am
    19    13    14    2
    20    13    18    1
    21    18    19    1
    22    12    15    1
    23    15    16    1
    24     4     5   ar
    25     5     6    1
    26     5     7   ar
    27    23    24   am
    28    24    25    2
    29    24    26    1
    30    26    21    1
    31     7     1   ar
    32    16     8    1
    33    28    29    1
    34    11    17    1
    35    19    20    1
