@<TRIPOS>MOLECULE
*****
 37 41 0 0 0
SMALL
GASTEIGER

@<TRIPOS>ATOM
      1 C           9.2469   -2.9970   19.3434 C.3     1  UNL1        0.0666
      2 S           8.6188   -1.6409   19.4718 S.3     1  UNL1       -0.0756
      3 C           6.3586    0.4823   20.4881 C.3     1  UNL1        0.1340
      4 N           6.2732   -0.3765   19.2612 N.ar    1  UNL1       -0.2884
      5 C           7.3122   -1.3524   18.7941 C.ar    1  UNL1        0.1932
      6 N           6.8150   -1.9892   17.5302 N.ar    1  UNL1       -0.1221
      7 N           5.4688   -1.4069   17.2163 N.ar    1  UNL1       -0.1282
      8 C           5.1339   -0.4101   18.2861 C.ar    1  UNL1        0.1668
      9 C           3.8800    0.4091   18.3666 C.ar    1  UNL1        0.0360
     10 C           3.9633    1.9064   18.4020 C.ar    1  UNL1        0.0032
     11 C           2.7094    2.7256   18.4826 C.ar    1  UNL1        0.0047
     12 C           1.3722    2.0477   18.5276 C.ar    1  UNL1        0.0536
     13 C           1.2889    0.5504   18.4922 C.ar    1  UNL1        0.0047
     14 C           2.5428   -0.2688   18.4117 C.ar    1  UNL1        0.0032
     15 C           0.1182    2.8669   18.6081 C.ar    1  UNL1        0.2299
     16 N          -0.4206    3.7623   17.5320 N.ar    1  UNL1       -0.2065
     17 C          -1.6889    4.3834   18.0377 C.ar    1  UNL1        0.1427
     18 C          -1.9339    3.8718   19.4263 C.ar    1  UNL1        0.2021
     19 O          -0.8171    2.9346   19.7789 O.2     1  UNL1       -0.4314
     20 C           9.2707   -3.9270   20.5200 C.3     1  UNL1        0.0294
     21 C           8.0296   -4.6729   20.9116 C.3     1  UNL1        0.0732
     22 N           7.2808   -4.2841   22.1519 N.3     1  UNL1       -0.2682
     23 C           7.6278   -4.9169   23.4668 C.3     1  UNL1        0.1046
     24 C           6.8791   -4.5282   24.7070 C.3     1  UNL1        0.1598
     25 O           5.7833   -3.5066   24.6323 O.3     1  UNL1       -0.3489
     26 C           5.4362   -2.8738   23.3174 C.3     1  UNL1        0.1534
     27 C           6.1850   -3.2625   22.0772 C.3     1  UNL1        0.1067
     28 C           4.3404   -1.8522   23.2427 C.ar    1  UNL1        0.0059
     29 C           3.6683   -1.5678   21.9322 C.ar    1  UNL1       -0.0020
     30 C           2.5725   -0.5462   21.8575 C.ar    1  UNL1        0.0036
     31 C           2.1488    0.1910   23.0932 C.ar    1  UNL1        0.0714
     32 C           2.8210   -0.0934   24.4037 C.ar    1  UNL1        0.0036
     33 C           3.9168   -1.1150   24.4784 C.ar    1  UNL1       -0.0020
     34 C           1.0531    1.2126   23.0185 C.3     1  UNL1        0.4186
     35 F          -0.0427    2.2342   22.9438 F       1  UNL1       -0.1659
     36 F           0.4327    0.6378   24.2574 F       1  UNL1       -0.1659
     37 F           1.6734    1.7874   21.7796 F       1  UNL1       -0.1659
@<TRIPOS>BOND
     1     3     4    1
     2     4     5   ar
     3     5     2    1
     4     2     1    1
     5     1    20    1
     6    20    21    1
     7    21    22    1
     8    22    23    1
     9    23    24    1
    10    24    25    1
    11    25    26    1
    12    26    28    1
    13    28    29   ar
    14    29    30   ar
    15    30    31   ar
    16    31    34    1
    17    34    35    1
    18    34    36    1
    19    34    37    1
    20    31    32   ar
    21    32    33   ar
    22    26    27    1
    23     5     6   ar
    24     6     7   ar
    25     7     8   ar
    26     8     9    1
    27     9    10   ar
    28    10    11   ar
    29    11    12   ar
    30    12    15    1
    31    15    16   ar
    32    16    17   ar
    33    17    18   ar
    34    18    19   ar
    35    12    13   ar
    36    13    14   ar
    37     8     4   ar
    38    14     9   ar
    39    27    22    1
    40    19    15   ar
    41    33    28   ar
@<TRIPOS>MOLECULE
*****
 37 41 0 0 0
SMALL
GASTEIGER

@<TRIPOS>ATOM
      1 C           8.7281   -2.4973   19.4012 C.3     1  UNL1        0.0666
      2 S           8.3307   -1.0666   19.1892 S.3     1  UNL1       -0.0756
      3 C           6.0640    0.9619   20.3711 C.3     1  UNL1        0.1340
      4 N           5.9745    0.1914   19.0873 N.ar    1  UNL1       -0.2884
      5 C           7.0164   -0.7410   18.5440 C.ar    1  UNL1        0.1932
      6 N           6.5131   -1.2906   17.2423 N.ar    1  UNL1       -0.1221
      7 N           5.1602   -0.6979   16.9810 N.ar    1  UNL1       -0.1282
      8 C           4.8272    0.2181   18.1213 C.ar    1  UNL1        0.1668
      9 C           3.5682    1.0199   18.2695 C.ar    1  UNL1        0.0360
     10 C           3.6447    2.4978   18.5140 C.ar    1  UNL1        0.0032
     11 C           2.3856    3.2996   18.6622 C.ar    1  UNL1        0.0047
     12 C           1.0502    2.6235   18.5660 C.ar    1  UNL1        0.0536
     13 C           0.9738    1.1455   18.3215 C.ar    1  UNL1        0.0047
     14 C           2.2328    0.3437   18.1733 C.ar    1  UNL1        0.0032
     15 C          -0.2088    3.4253   18.7142 C.ar    1  UNL1        0.2299
     16 N          -0.6047    4.2310   19.9160 N.ar    1  UNL1       -0.2065
     17 C          -1.9336    4.8658   19.6312 C.ar    1  UNL1        0.1427
     18 C          -2.3590    4.4524   18.2535 C.ar    1  UNL1        0.2021
     19 O          -1.2931    3.5621   17.6868 O.2     1  UNL1       -0.4314
     20 C           8.4715   -3.1592   20.7226 C.3     1  UNL1        0.0294
     21 C           7.2686   -4.0374   20.9005 C.3     1  UNL1        0.0732
     22 N           5.9022   -3.5137   20.5709 N.3     1  UNL1       -0.2682
     23 C           5.2122   -3.9564   19.3147 C.3     1  UNL1        0.1046
     24 C           3.8459   -3.4327   18.9851 C.3     1  UNL1        0.1598
     25 O           3.1694   -2.4663   19.9116 O.3     1  UNL1       -0.3489
     26 C           3.8593   -2.0236   21.1678 C.3     1  UNL1        0.1534
     27 C           5.2257   -2.5473   21.4974 C.3     1  UNL1        0.1067
     28 C           3.1829   -1.0572   22.0943 C.ar    1  UNL1        0.0059
     29 C           2.1614   -0.0969   21.5611 C.ar    1  UNL1       -0.0020
     30 C           1.4849    0.8695   22.4877 C.ar    1  UNL1        0.0036
     31 C           1.8300    0.8756   23.9474 C.ar    1  UNL1        0.0714
     32 C           2.8515   -0.0846   24.4806 C.ar    1  UNL1        0.0036
     33 C           3.5280   -1.0511   23.5540 C.ar    1  UNL1       -0.0020
     34 C           1.1535    1.8420   24.8739 C.3     1  UNL1        0.4186
     35 F           0.4771    2.8084   25.8005 F       1  UNL1       -0.1659
     36 F           1.2940    0.8609   25.9998 F       1  UNL1       -0.1659
     37 F           1.0131    2.8232   23.7480 F       1  UNL1       -0.1659
@<TRIPOS>BOND
     1     3     4    1
     2     4     5   ar
     3     5     2    1
     4     2     1    1
     5     1    20    1
     6    20    21    1
     7    21    22    1
     8    22    23    1
     9    23    24    1
    10    24    25    1
    11    25    26    1
    12    26    28    1
    13    28    29   ar
    14    29    30   ar
    15    30    31   ar
    16    31    34    1
    17    34    35    1
    18    34    36    1
    19    34    37    1
    20    31    32   ar
    21    32    33   ar
    22    26    27    1
    23     5     6   ar
    24     6     7   ar
    25     7     8   ar
    26     8     9    1
    27     9    10   ar
    28    10    11   ar
    29    11    12   ar
    30    12    15    1
    31    15    16   ar
    32    16    17   ar
    33    17    18   ar
    34    18    19   ar
    35    12    13   ar
    36    13    14   ar
    37     8     4   ar
    38    14     9   ar
    39    27    22    1
    40    19    15   ar
    41    33    28   ar
@<TRIPOS>MOLECULE
*****
 37 41 0 0 0
SMALL
GASTEIGER

@<TRIPOS>ATOM
      1 C           6.5317   -5.4203   27.1410 C.3     1  UNL1        0.0666
      2 S           7.5611   -5.5284   28.2266 S.3     1  UNL1       -0.0756
      3 C           6.7427   -2.5773   29.3539 C.3     1  UNL1        0.1340
      4 N           6.8192   -3.8394   30.1610 N.ar    1  UNL1       -0.2884
      5 C           7.1954   -5.1959   29.6428 C.ar    1  UNL1        0.1932
      6 N           7.1417   -6.1614   30.7895 N.ar    1  UNL1       -0.1221
      7 N           6.7322   -5.4017   32.0163 N.ar    1  UNL1       -0.1282
      8 C           6.5329   -3.9666   31.6279 C.ar    1  UNL1        0.1668
      9 C           6.1199   -2.8540   32.5453 C.ar    1  UNL1        0.0360
     10 C           7.1052   -1.7874   32.9216 C.ar    1  UNL1        0.0032
     11 C           6.6921   -0.6749   33.8391 C.ar    1  UNL1        0.0047
     12 C           5.2939   -0.6289   34.3801 C.ar    1  UNL1        0.0536
     13 C           4.3087   -1.6955   34.0038 C.ar    1  UNL1        0.0047
     14 C           4.7217   -2.8081   33.0864 C.ar    1  UNL1        0.0032
     15 C           4.8809    0.4836   35.2975 C.ar    1  UNL1        0.2299
     16 N           4.5209    0.3435   36.7470 N.ar    1  UNL1       -0.2065
     17 C           4.1729    1.7049   37.2718 C.ar    1  UNL1        0.1427
     18 C           4.3178    2.6864   36.1468 C.ar    1  UNL1        0.2021
     19 O           4.7554    1.9316   34.9267 O.2     1  UNL1       -0.4314
     20 C           6.8798   -4.7590   25.8404 C.3     1  UNL1        0.0294
     21 C           7.4135   -5.5773   24.7022 C.3     1  UNL1        0.0732
     22 N           7.4319   -5.0093   23.3140 N.3     1  UNL1       -0.2682
     23 C           8.6045   -5.2652   22.4144 C.3     1  UNL1        0.1046
     24 C           8.6228   -4.6972   21.0262 C.3     1  UNL1        0.1598
     25 O           7.4685   -3.8733   20.5377 O.3     1  UNL1       -0.3489
     26 C           6.2958   -3.6174   21.4374 C.3     1  UNL1        0.1534
     27 C           6.2775   -4.1854   22.8255 C.3     1  UNL1        0.1067
     28 C           5.1415   -2.7935   20.9488 C.ar    1  UNL1        0.0059
     29 C           4.2612   -2.0791   21.9310 C.ar    1  UNL1       -0.0020
     30 C           3.1068   -1.2552   21.4425 C.ar    1  UNL1        0.0036
     31 C           2.8328   -1.1457   19.9718 C.ar    1  UNL1        0.0714
     32 C           3.7131   -1.8601   18.9897 C.ar    1  UNL1        0.0036
     33 C           4.8674   -2.6840   19.4782 C.ar    1  UNL1       -0.0020
     34 C           1.6784   -0.3217   19.4833 C.3     1  UNL1        0.4186
     35 F           0.5241    0.5022   18.9948 F       1  UNL1       -0.1659
     36 F           2.5559    0.2812   18.4267 F       1  UNL1       -0.1659
     37 F           0.8009   -0.9247   20.5399 F       1  UNL1       -0.1659
@<TRIPOS>BOND
     1     3     4    1
     2     4     5   ar
     3     5     2    1
     4     2     1    1
     5     1    20    1
     6    20    21    1
     7    21    22    1
     8    22    23    1
     9    23    24    1
    10    24    25    1
    11    25    26    1
    12    26    28    1
    13    28    29   ar
    14    29    30   ar
    15    30    31   ar
    16    31    34    1
    17    34    35    1
    18    34    36    1
    19    34    37    1
    20    31    32   ar
    21    32    33   ar
    22    26    27    1
    23     5     6   ar
    24     6     7   ar
    25     7     8   ar
    26     8     9    1
    27     9    10   ar
    28    10    11   ar
    29    11    12   ar
    30    12    15    1
    31    15    16   ar
    32    16    17   ar
    33    17    18   ar
    34    18    19   ar
    35    12    13   ar
    36    13    14   ar
    37     8     4   ar
    38    14     9   ar
    39    27    22    1
    40    19    15   ar
    41    33    28   ar
@<TRIPOS>MOLECULE
*****
 37 41 0 0 0
SMALL
GASTEIGER

@<TRIPOS>ATOM
      1 C           6.9861   -4.0451   26.6858 C.3     1  UNL1        0.0666
      2 S           7.0522   -2.5484   26.7585 S.3     1  UNL1       -0.0756
      3 C           4.0767   -1.3844   26.0946 C.3     1  UNL1        0.1340
      4 N           5.3071   -1.1872   25.2596 N.ar    1  UNL1       -0.2884
      5 C           6.6748   -1.7222   25.5648 C.ar    1  UNL1        0.1932
      6 N           7.5988   -1.2860   24.4666 N.ar    1  UNL1       -0.1221
      7 N           6.8021   -0.4814   23.4828 N.ar    1  UNL1       -0.1282
      8 C           5.3857   -0.4204   23.9729 C.ar    1  UNL1        0.1668
      9 C           4.2479    0.2839   23.2952 C.ar    1  UNL1        0.0360
     10 C           2.8955   -0.3622   23.2344 C.ar    1  UNL1        0.0032
     11 C           1.7576    0.3421   22.5567 C.ar    1  UNL1        0.0047
     12 C           1.9721    1.6924   21.9399 C.ar    1  UNL1        0.0536
     13 C           3.3244    2.3385   22.0008 C.ar    1  UNL1        0.0047
     14 C           4.4623    1.6342   22.6784 C.ar    1  UNL1        0.0032
     15 C           0.8342    2.3967   21.2623 C.ar    1  UNL1        0.2299
     16 N           0.8980    3.7419   20.6015 N.ar    1  UNL1       -0.2065
     17 C          -0.4641    4.0560   20.0573 C.ar    1  UNL1        0.1427
     18 C          -1.3696    2.9050   20.3816 C.ar    1  UNL1        0.2021
     19 O          -0.5672    1.8795   21.1263 O.2     1  UNL1       -0.4314
     20 C           7.7084   -4.7756   25.5927 C.3     1  UNL1        0.0294
     21 C           6.9491   -5.2906   24.4060 C.3     1  UNL1        0.0732
     22 N           7.1640   -4.6770   23.0542 N.3     1  UNL1       -0.2682
     23 C           8.4419   -4.9297   22.3104 C.3     1  UNL1        0.1046
     24 C           8.6567   -4.3161   20.9587 C.3     1  UNL1        0.1598
     25 O           7.5938   -3.4497   20.3507 O.3     1  UNL1       -0.3489
     26 C           6.3160   -3.1970   21.0945 C.3     1  UNL1        0.1534
     27 C           6.1011   -3.8106   22.4463 C.3     1  UNL1        0.1067
     28 C           5.2530   -2.3307   20.4866 C.ar    1  UNL1        0.0059
     29 C           3.8472   -2.8400   20.3683 C.ar    1  UNL1       -0.0020
     30 C           2.7842   -1.9737   19.7603 C.ar    1  UNL1        0.0036
     31 C           3.1271   -0.5980   19.2707 C.ar    1  UNL1        0.0714
     32 C           4.5330   -0.0886   19.3889 C.ar    1  UNL1        0.0036
     33 C           5.5959   -0.9550   19.9969 C.ar    1  UNL1       -0.0020
     34 C           2.0642    0.2683   18.6627 C.3     1  UNL1        0.4186
     35 F           1.0012    1.1347   18.0548 F       1  UNL1       -0.1659
     36 F           3.1129    1.0146   17.8925 F       1  UNL1       -0.1659
     37 F           1.0154   -0.4779   19.4329 F       1  UNL1       -0.1659
@<TRIPOS>BOND
     1     3     4    1
     2     4     5   ar
     3     5     2    1
     4     2     1    1
     5     1    20    1
     6    20    21    1
     7    21    22    1
     8    22    23    1
     9    23    24    1
    10    24    25    1
    11    25    26    1
    12    26    28    1
    13    28    29   ar
    14    29    30   ar
    15    30    31   ar
    16    31    34    1
    17    34    35    1
    18    34    36    1
    19    34    37    1
    20    31    32   ar
    21    32    33   ar
    22    26    27    1
    23     5     6   ar
    24     6     7   ar
    25     7     8   ar
    26     8     9    1
    27     9    10   ar
    28    10    11   ar
    29    11    12   ar
    30    12    15    1
    31    15    16   ar
    32    16    17   ar
    33    17    18   ar
    34    18    19   ar
    35    12    13   ar
    36    13    14   ar
    37     8     4   ar
    38    14     9   ar
    39    27    22    1
    40    19    15   ar
    41    33    28   ar
@<TRIPOS>MOLECULE
*****
 37 41 0 0 0
SMALL
GASTEIGER

@<TRIPOS>ATOM
      1 C           3.3234    0.0339   30.4041 C.3     1  UNL1        0.0666
      2 S           2.1210    0.9097   30.5971 S.3     1  UNL1       -0.0756
      3 C           1.5120    3.1582   28.3118 C.3     1  UNL1        0.1340
      4 N           0.7195    1.9073   28.5512 N.ar    1  UNL1       -0.2884
      5 C           0.9995    0.8738   29.6017 C.ar    1  UNL1        0.1932
      6 N          -0.0390   -0.2019   29.4820 N.ar    1  UNL1       -0.1221
      7 N          -0.9608    0.1668   28.3575 N.ar    1  UNL1       -0.1282
      8 C          -0.4920    1.4704   27.7823 C.ar    1  UNL1        0.1668
      9 C          -1.1237    2.2076   26.6388 C.ar    1  UNL1        0.0360
     10 C          -2.3834    2.9923   26.8569 C.ar    1  UNL1        0.0032
     11 C          -3.0151    3.7295   25.7134 C.ar    1  UNL1        0.0047
     12 C          -2.3873    3.6820   24.3520 C.ar    1  UNL1        0.0536
     13 C          -1.1277    2.8972   24.1340 C.ar    1  UNL1        0.0047
     14 C          -0.4959    2.1601   25.2774 C.ar    1  UNL1        0.0032
     15 C          -3.0191    4.4192   23.2086 C.ar    1  UNL1        0.2299
     16 N          -3.9047    3.8213   22.1558 N.ar    1  UNL1       -0.2065
     17 C          -4.3091    4.9163   21.2138 C.ar    1  UNL1        0.1427
     18 C          -3.6735    6.1908   21.6843 C.ar    1  UNL1        0.2021
     19 O          -2.8762    5.8836   22.9172 O.2     1  UNL1       -0.4314
     20 C           4.0755    0.0680   29.1067 C.3     1  UNL1        0.0294
     21 C           3.6802   -0.8477   27.9864 C.3     1  UNL1        0.0732
     22 N           3.6082   -0.3266   26.5816 N.3     1  UNL1       -0.2682
     23 C           3.3488    1.1299   26.3344 C.3     1  UNL1        0.1046
     24 C           3.2768    1.6510   24.9297 C.3     1  UNL1        0.1598
     25 O           3.4642    0.7156   23.7722 O.3     1  UNL1       -0.3489
     26 C           3.7236   -0.7410   24.0194 C.3     1  UNL1        0.1534
     27 C           3.7956   -1.2621   25.4241 C.3     1  UNL1        0.1067
     28 C           3.9110   -1.6764   22.8619 C.ar    1  UNL1        0.0059
     29 C           4.6611   -2.9617   23.0501 C.ar    1  UNL1       -0.0020
     30 C           4.8485   -3.8972   21.8926 C.ar    1  UNL1        0.0036
     31 C           4.2859   -3.5474   20.5469 C.ar    1  UNL1        0.0714
     32 C           3.5358   -2.2621   20.3587 C.ar    1  UNL1        0.0036
     33 C           3.3483   -1.3267   21.5162 C.ar    1  UNL1       -0.0020
     34 C           4.4733   -4.4828   19.3894 C.3     1  UNL1        0.4186
     35 F           4.6607   -5.4183   18.2319 F       1  UNL1       -0.1659
     36 F           3.1615   -5.1377   19.7063 F       1  UNL1       -0.1659
     37 F           5.7850   -3.8280   19.0726 F       1  UNL1       -0.1659
@<TRIPOS>BOND
     1     3     4    1
     2     4     5   ar
     3     5     2    1
     4     2     1    1
     5     1    20    1
     6    20    21    1
     7    21    22    1
     8    22    23    1
     9    23    24    1
    10    24    25    1
    11    25    26    1
    12    26    28    1
    13    28    29   ar
    14    29    30   ar
    15    30    31   ar
    16    31    34    1
    17    34    35    1
    18    34    36    1
    19    34    37    1
    20    31    32   ar
    21    32    33   ar
    22    26    27    1
    23     5     6   ar
    24     6     7   ar
    25     7     8   ar
    26     8     9    1
    27     9    10   ar
    28    10    11   ar
    29    11    12   ar
    30    12    15    1
    31    15    16   ar
    32    16    17   ar
    33    17    18   ar
    34    18    19   ar
    35    12    13   ar
    36    13    14   ar
    37     8     4   ar
    38    14     9   ar
    39    27    22    1
    40    19    15   ar
    41    33    28   ar
@<TRIPOS>MOLECULE
*****
 37 41 0 0 0
SMALL
GASTEIGER

@<TRIPOS>ATOM
      1 C          -3.0812  -20.3054   19.5868 C.3     1  UNL1        0.0666
      2 S          -4.3080  -20.8394   20.2648 S.3     1  UNL1       -0.0756
      3 C          -6.8619  -21.4969   22.1870 C.3     1  UNL1        0.1340
      4 N          -6.6551  -20.2400   21.3949 N.ar    1  UNL1       -0.2884
      5 C          -5.4811  -19.9378   20.5114 C.ar    1  UNL1        0.1932
      6 N          -5.6863  -18.5757   19.9177 N.ar    1  UNL1       -0.1221
      7 N          -6.9871  -18.0360   20.4343 N.ar    1  UNL1       -0.1282
      8 C          -7.5858  -19.0647   21.3473 C.ar    1  UNL1        0.1668
      9 C          -8.8868  -18.9399   22.0834 C.ar    1  UNL1        0.0360
     10 C          -8.9212  -18.3092   23.4440 C.ar    1  UNL1        0.0032
     11 C         -10.2222  -18.1844   24.1801 C.ar    1  UNL1        0.0047
     12 C         -11.4887  -18.6902   23.5557 C.ar    1  UNL1        0.0536
     13 C         -11.4543  -19.3209   22.1951 C.ar    1  UNL1        0.0047
     14 C         -10.1533  -19.4457   21.4590 C.ar    1  UNL1        0.0032
     15 C         -12.7897  -18.5654   24.2918 C.ar    1  UNL1        0.2299
     16 N         -14.1196  -18.2345   23.6819 N.ar    1  UNL1       -0.2065
     17 C         -15.1410  -18.2141   24.7802 C.ar    1  UNL1        0.1427
     18 C         -14.4425  -18.5325   26.0688 C.ar    1  UNL1        0.2021
     19 O         -12.9893  -18.7496   25.7669 O.2     1  UNL1       -0.4314
     20 C          -1.8536  -19.9969   20.3918 C.3     1  UNL1        0.0294
     21 C          -1.9862  -19.4752   21.7918 C.3     1  UNL1        0.0732
     22 N          -2.4336  -18.0627   22.0266 N.3     1  UNL1       -0.2682
     23 C          -1.8117  -16.9402   21.2500 C.3     1  UNL1        0.1046
     24 C          -2.2590  -15.5278   21.4848 C.3     1  UNL1        0.1598
     25 O          -3.3282  -15.2381   22.4962 O.3     1  UNL1       -0.3489
     26 C          -3.9501  -16.3606   23.2727 C.3     1  UNL1        0.1534
     27 C          -3.5028  -17.7730   23.0379 C.3     1  UNL1        0.1067
     28 C          -5.0193  -16.0709   24.2841 C.ar    1  UNL1        0.0059
     29 C          -6.3537  -15.5519   23.8370 C.ar    1  UNL1       -0.0020
     30 C          -7.4229  -15.2621   24.8484 C.ar    1  UNL1        0.0036
     31 C          -7.1577  -15.4913   26.3068 C.ar    1  UNL1        0.0714
     32 C          -5.8233  -16.0103   26.7539 C.ar    1  UNL1        0.0036
     33 C          -4.7541  -16.3001   25.7425 C.ar    1  UNL1       -0.0020
     34 C          -8.2269  -15.2016   27.3182 C.3     1  UNL1        0.4186
     35 F          -9.2961  -14.9118   28.3295 F       1  UNL1       -0.1659
     36 F          -9.0946  -16.2599   26.7040 F       1  UNL1       -0.1659
     37 F          -7.3592  -14.1433   27.9323 F       1  UNL1       -0.1659
@<TRIPOS>BOND
     1     3     4    1
     2     4     5   ar
     3     5     2    1
     4     2     1    1
     5     1    20    1
     6    20    21    1
     7    21    22    1
     8    22    23    1
     9    23    24    1
    10    24    25    1
    11    25    26    1
    12    26    28    1
    13    28    29   ar
    14    29    30   ar
    15    30    31   ar
    16    31    34    1
    17    34    35    1
    18    34    36    1
    19    34    37    1
    20    31    32   ar
    21    32    33   ar
    22    26    27    1
    23     5     6   ar
    24     6     7   ar
    25     7     8   ar
    26     8     9    1
    27     9    10   ar
    28    10    11   ar
    29    11    12   ar
    30    12    15    1
    31    15    16   ar
    32    16    17   ar
    33    17    18   ar
    34    18    19   ar
    35    12    13   ar
    36    13    14   ar
    37     8     4   ar
    38    14     9   ar
    39    27    22    1
    40    19    15   ar
    41    33    28   ar
@<TRIPOS>MOLECULE
*****
 37 41 0 0 0
SMALL
GASTEIGER

@<TRIPOS>ATOM
      1 C           7.9592   -3.9161   22.0564 C.3     1  UNL1        0.0666
      2 S           7.5711   -3.9791   20.6089 S.3     1  UNL1       -0.0756
      3 C           6.2486   -0.9957   20.6018 C.3     1  UNL1        0.1340
      4 N           5.5637   -2.2647   20.1888 N.ar    1  UNL1       -0.2884
      5 C           6.1716   -3.6360   20.1921 C.ar    1  UNL1        0.1932
      6 N           5.1343   -4.6040   19.7053 N.ar    1  UNL1       -0.1221
      7 N           3.8853   -3.8310   19.4012 N.ar    1  UNL1       -0.1282
      8 C           4.1507   -2.3852   19.7000 C.ar    1  UNL1        0.1668
      9 C           3.1745   -1.2579   19.5385 C.ar    1  UNL1        0.0360
     10 C           3.5077   -0.0993   18.6459 C.ar    1  UNL1        0.0032
     11 C           2.5315    1.0280   18.4843 C.ar    1  UNL1        0.0047
     12 C           1.2221    0.9968   19.2152 C.ar    1  UNL1        0.0536
     13 C           0.8889   -0.1617   20.1079 C.ar    1  UNL1        0.0047
     14 C           1.8651   -1.2890   20.2694 C.ar    1  UNL1        0.0032
     15 C           0.2459    2.1242   19.0537 C.ar    1  UNL1        0.2299
     16 N           0.1245    3.0207   17.8572 N.ar    1  UNL1       -0.2065
     17 C          -0.9768    4.0035   18.1242 C.ar    1  UNL1        0.1427
     18 C          -1.5359    3.7145   19.4857 C.ar    1  UNL1        0.2021
     19 O          -0.7803    2.5530   20.0601 O.2     1  UNL1       -0.4314
     20 C           6.9508   -4.2415   23.1182 C.3     1  UNL1        0.0294
     21 C           7.3317   -4.1538   24.5663 C.3     1  UNL1        0.0732
     22 N           6.5161   -3.3171   25.5070 N.3     1  UNL1       -0.2682
     23 C           6.7718   -3.3833   26.9836 C.3     1  UNL1        0.1046
     24 C           5.9563   -2.5466   27.9242 C.3     1  UNL1        0.1598
     25 O           4.8851   -1.6436   27.3883 O.3     1  UNL1       -0.3489
     26 C           4.6294   -1.5774   25.9117 C.3     1  UNL1        0.1534
     27 C           5.4450   -2.4141   24.9711 C.3     1  UNL1        0.1067
     28 C           3.5583   -0.6744   25.3758 C.ar    1  UNL1        0.0059
     29 C           3.2587   -0.6561   23.9062 C.ar    1  UNL1       -0.0020
     30 C           2.1875    0.2469   23.3703 C.ar    1  UNL1        0.0036
     31 C           1.4159    1.1316   24.3040 C.ar    1  UNL1        0.0714
     32 C           1.7155    1.1133   25.7736 C.ar    1  UNL1        0.0036
     33 C           2.7866    0.2103   26.3095 C.ar    1  UNL1       -0.0020
     34 C           0.3447    2.0346   23.7681 C.3     1  UNL1        0.4186
     35 F          -0.7264    2.9376   23.2322 F       1  UNL1       -0.1659
     36 F          -0.4572    1.8253   25.0183 F       1  UNL1       -0.1659
     37 F           1.1466    2.2438   22.5178 F       1  UNL1       -0.1659
@<TRIPOS>BOND
     1     3     4    1
     2     4     5   ar
     3     5     2    1
     4     2     1    1
     5     1    20    1
     6    20    21    1
     7    21    22    1
     8    22    23    1
     9    23    24    1
    10    24    25    1
    11    25    26    1
    12    26    28    1
    13    28    29   ar
    14    29    30   ar
    15    30    31   ar
    16    31    34    1
    17    34    35    1
    18    34    36    1
    19    34    37    1
    20    31    32   ar
    21    32    33   ar
    22    26    27    1
    23     5     6   ar
    24     6     7   ar
    25     7     8   ar
    26     8     9    1
    27     9    10   ar
    28    10    11   ar
    29    11    12   ar
    30    12    15    1
    31    15    16   ar
    32    16    17   ar
    33    17    18   ar
    34    18    19   ar
    35    12    13   ar
    36    13    14   ar
    37     8     4   ar
    38    14     9   ar
    39    27    22    1
    40    19    15   ar
    41    33    28   ar
@<TRIPOS>MOLECULE
*****
 37 41 0 0 0
SMALL
GASTEIGER

@<TRIPOS>ATOM
      1 C           3.6437    2.9552   28.2827 C.3     1  UNL1        0.0666
      2 S           2.3566    3.2109   29.0094 S.3     1  UNL1       -0.0756
      3 C           0.4942    4.9850   27.0009 C.3     1  UNL1        0.1340
      4 N           0.1984    3.5946   27.4798 N.ar    1  UNL1       -0.2884
      5 C           1.0544    2.7792   28.4030 C.ar    1  UNL1        0.1932
      6 N           0.3796    1.4561   28.6133 N.ar    1  UNL1       -0.1221
      7 N          -0.8935    1.4539   27.8200 N.ar    1  UNL1       -0.1282
      8 C          -1.0055    2.7755   27.1195 C.ar    1  UNL1        0.1668
      9 C          -2.1249    3.2030   26.2171 C.ar    1  UNL1        0.0360
     10 C          -3.4519    3.5897   26.7997 C.ar    1  UNL1        0.0032
     11 C          -4.5713    4.0171   25.8974 C.ar    1  UNL1        0.0047
     12 C          -4.3637    4.0580   24.4124 C.ar    1  UNL1        0.0536
     13 C          -3.0366    3.6714   23.8298 C.ar    1  UNL1        0.0047
     14 C          -1.9172    3.2439   24.7322 C.ar    1  UNL1        0.0032
     15 C          -5.4830    4.4855   23.5101 C.ar    1  UNL1        0.2299
     16 N          -5.7517    3.9627   22.1300 N.ar    1  UNL1       -0.2065
     17 C          -6.9649    4.6650   21.5963 C.ar    1  UNL1        0.1427
     18 C          -7.4461    5.6218   22.6465 C.ar    1  UNL1        0.2021
     19 O          -6.5303    5.5109   23.8293 O.2     1  UNL1       -0.4314
     20 C           3.6417    2.7788   26.7931 C.3     1  UNL1        0.0294
     21 C           3.5841    1.4018   26.2010 C.3     1  UNL1        0.0732
     22 N           2.9182    1.1829   24.8748 N.3     1  UNL1       -0.2682
     23 C           1.8071    2.0894   24.4348 C.3     1  UNL1        0.1046
     24 C           1.1413    1.8704   23.1086 C.3     1  UNL1        0.1598
     25 O           1.5865    0.7449   22.2226 O.3     1  UNL1       -0.3489
     26 C           2.6976   -0.1616   22.6627 C.3     1  UNL1        0.1534
     27 C           3.3634    0.0574   23.9888 C.3     1  UNL1        0.1067
     28 C           3.1428   -1.2871   21.7766 C.ar    1  UNL1        0.0059
     29 C           3.9926   -2.3899   22.3348 C.ar    1  UNL1       -0.0020
     30 C           4.4379   -3.5153   21.4487 C.ar    1  UNL1        0.0036
     31 C           4.0333   -3.5380   20.0045 C.ar    1  UNL1        0.0714
     32 C           3.1835   -2.4352   19.4464 C.ar    1  UNL1        0.0036
     33 C           2.7382   -1.3097   20.3324 C.ar    1  UNL1       -0.0020
     34 C           4.4785   -4.6635   19.1185 C.3     1  UNL1        0.4186
     35 F           4.9238   -5.7890   18.2324 F       1  UNL1       -0.1659
     36 F           3.5328   -5.5913   19.8219 F       1  UNL1       -0.1659
     37 F           5.4242   -3.7356   18.4151 F       1  UNL1       -0.1659
@<TRIPOS>BOND
     1     3     4    1
     2     4     5   ar
     3     5     2    1
     4     2     1    1
     5     1    20    1
     6    20    21    1
     7    21    22    1
     8    22    23    1
     9    23    24    1
    10    24    25    1
    11    25    26    1
    12    26    28    1
    13    28    29   ar
    14    29    30   ar
    15    30    31   ar
    16    31    34    1
    17    34    35    1
    18    34    36    1
    19    34    37    1
    20    31    32   ar
    21    32    33   ar
    22    26    27    1
    23     5     6   ar
    24     6     7   ar
    25     7     8   ar
    26     8     9    1
    27     9    10   ar
    28    10    11   ar
    29    11    12   ar
    30    12    15    1
    31    15    16   ar
    32    16    17   ar
    33    17    18   ar
    34    18    19   ar
    35    12    13   ar
    36    13    14   ar
    37     8     4   ar
    38    14     9   ar
    39    27    22    1
    40    19    15   ar
    41    33    28   ar
@<TRIPOS>MOLECULE
*****
 37 41 0 0 0
SMALL
GASTEIGER

@<TRIPOS>ATOM
      1 C           6.8532   -4.2279   23.3819 C.3     1  UNL1        0.0666
      2 S           7.0201   -3.9241   21.9226 S.3     1  UNL1       -0.0756
      3 C           5.5112   -1.0310   21.9763 C.3     1  UNL1        0.1340
      4 N           5.1364   -2.2051   21.1214 N.ar    1  UNL1       -0.2884
      5 C           5.8300   -3.5349   21.0967 C.ar    1  UNL1        0.1932
      6 N           5.1245   -4.4073   20.1011 N.ar    1  UNL1       -0.1221
      7 N           3.9948   -3.6166   19.5105 N.ar    1  UNL1       -0.1282
      8 C           4.0022   -2.2556   20.1411 C.ar    1  UNL1        0.1668
      9 C           3.0437   -1.1408   19.8436 C.ar    1  UNL1        0.0360
     10 C           1.8987   -0.8679   20.7734 C.ar    1  UNL1        0.0032
     11 C           0.9402    0.2468   20.4759 C.ar    1  UNL1        0.0047
     12 C           1.1266    1.0887   19.2486 C.ar    1  UNL1        0.0536
     13 C           2.2716    0.8159   18.3187 C.ar    1  UNL1        0.0047
     14 C           3.2301   -0.2989   18.6163 C.ar    1  UNL1        0.0032
     15 C           0.1681    2.2035   18.9511 C.ar    1  UNL1        0.2299
     16 N          -0.7903    2.8253   19.9232 N.ar    1  UNL1       -0.2065
     17 C          -1.5510    3.8983   19.2021 C.ar    1  UNL1        0.1427
     18 C          -1.0628    3.9397   17.7844 C.ar    1  UNL1        0.2021
     19 O          -0.0003    2.8923   17.6293 O.2     1  UNL1       -0.4314
     20 C           7.9543   -4.9128   24.1361 C.3     1  UNL1        0.0294
     21 C           7.7820   -6.3316   24.5910 C.3     1  UNL1        0.0732
     22 N           7.9792   -6.6854   26.0354 N.3     1  UNL1       -0.2682
     23 C           8.6445   -7.9774   26.4070 C.3     1  UNL1        0.1046
     24 C           8.8417   -8.3311   27.8513 C.3     1  UNL1        0.1598
     25 O           8.3736   -7.3928   28.9239 O.3     1  UNL1       -0.3489
     26 C           7.7084   -6.1008   28.5523 C.3     1  UNL1        0.1534
     27 C           7.5112   -5.7471   27.1080 C.3     1  UNL1        0.1067
     28 C           7.2404   -5.1626   29.6249 C.ar    1  UNL1        0.0059
     29 C           7.0684   -5.6565   31.0307 C.ar    1  UNL1       -0.0020
     30 C           6.6003   -4.7182   32.1034 C.ar    1  UNL1        0.0036
     31 C           6.3043   -3.2860   31.7702 C.ar    1  UNL1        0.0714
     32 C           6.4763   -2.7920   30.3644 C.ar    1  UNL1        0.0036
     33 C           6.9444   -3.7303   29.2917 C.ar    1  UNL1       -0.0020
     34 C           5.8363   -2.3477   32.8429 C.3     1  UNL1        0.4186
     35 F           5.3683   -1.4094   33.9155 F       1  UNL1       -0.1659
     36 F           7.2285   -1.8054   32.9760 F       1  UNL1       -0.1659
     37 F           4.4441   -2.8900   32.7097 F       1  UNL1       -0.1659
@<TRIPOS>BOND
     1     3     4    1
     2     4     5   ar
     3     5     2    1
     4     2     1    1
     5     1    20    1
     6    20    21    1
     7    21    22    1
     8    22    23    1
     9    23    24    1
    10    24    25    1
    11    25    26    1
    12    26    28    1
    13    28    29   ar
    14    29    30   ar
    15    30    31   ar
    16    31    34    1
    17    34    35    1
    18    34    36    1
    19    34    37    1
    20    31    32   ar
    21    32    33   ar
    22    26    27    1
    23     5     6   ar
    24     6     7   ar
    25     7     8   ar
    26     8     9    1
    27     9    10   ar
    28    10    11   ar
    29    11    12   ar
    30    12    15    1
    31    15    16   ar
    32    16    17   ar
    33    17    18   ar
    34    18    19   ar
    35    12    13   ar
    36    13    14   ar
    37     8     4   ar
    38    14     9   ar
    39    27    22    1
    40    19    15   ar
    41    33    28   ar
