@<TRIPOS>MOLECULE
*****
 30 32 0 0 0
SMALL
GASTEIGER

@<TRIPOS>ATOM
      1 N           2.8279   -1.0813   21.3199 N.ar    1  UNL1       -0.3134
      2 C           3.6707   -2.1700   20.7247 C.ar    1  UNL1        0.1203
      3 N           4.5074   -2.7602   21.8208 N.ar    1  UNL1       -0.2309
      4 C           4.1817   -2.0363   23.0936 C.ar    1  UNL1        0.0996
      5 C           4.6962   -2.1879   24.4944 C.ar    1  UNL1        0.0389
      6 C           4.1726   -1.3019   25.5856 C.ar    1  UNL1        0.1073
      7 C           3.1346   -0.2642   25.2760 C.ar    1  UNL1        0.0199
      8 C           2.6202   -0.1126   23.8752 C.ar    1  UNL1        0.0201
      9 C           3.1437   -0.9986   22.7840 C.ar    1  UNL1        0.0787
     10 S           4.6871   -1.4534   26.9865 S.O2    1  UNL1        0.0097
     11 O           6.0890   -1.2490   26.4938 O.2     1  UNL1       -0.1686
     12 O           3.2852   -1.6579   27.4792 O.2     1  UNL1       -0.1686
     13 C           5.2015   -1.6050   28.3873 C.3     1  UNL1        0.1655
     14 C           6.2471   -2.4543   29.0472 C.3     1  UNL1        0.0979
     15 N           5.9290   -1.8194   30.3684 N.3     1  UNL1       -0.2676
     16 C           4.8834   -0.9701   29.7086 C.3     1  UNL1        0.0979
     17 C           6.4434   -1.9710   31.7694 C.3     1  UNL1        0.1043
     18 C           5.9230   -3.0726   32.6443 C.3     1  UNL1        0.1544
     19 O           6.3681   -4.4865   32.4146 O.3     1  UNL1       -0.3805
     20 H           6.0398   -4.7932   31.5549 H       1  UNL1        0.2105
     21 C           1.8423   -0.2254   20.5809 C.3     1  UNL1        0.1245
     22 C           2.2497    1.1304   20.0854 C.3     1  UNL1        0.0970
     23 C           4.6661    1.9586   20.5597 C.3     1  UNL1        0.0897
     24 N           3.6561    1.3679   19.6211 N.3     1  UNL1       -0.2687
     25 C           4.0525    1.0148   18.2182 C.3     1  UNL1        0.0897
     26 C           3.6760   -2.5940   19.2859 C.3     1  UNL1        0.0639
     27 C           4.2918   -3.9039   18.8922 C.3     1  UNL1        0.0071
     28 C           5.5672   -3.1980   18.5387 C.3     1  UNL1        0.0004
     29 C           3.0165   -4.6098   19.2457 C.3     1  UNL1        0.0004
     30 C           4.9077   -5.2138   18.4986 C.3     1  UNL1        0.0004
@<TRIPOS>BOND
     1    23    24    1
     2    24    25    1
     3    24    22    1
     4    22    21    1
     5    21     1    1
     6     1     2   ar
     7     2    26    1
     8    26    27    1
     9    27    28    1
    10    27    29    1
    11    27    30    1
    12     2     3   ar
    13     3     4   ar
    14     4     5   ar
    15     5     6   ar
    16     6    10    1
    17    10    11    2
    18    10    12    2
    19    10    13    1
    20    13    14    1
    21    14    15    1
    22    15    17    1
    23    17    18    1
    24    18    19    1
    25    15    16    1
    26     6     7   ar
    27     7     8   ar
    28     8     9   ar
    29     9     1   ar
    30     9     4   ar
    31    16    13    1
    32    19    20    1
@<TRIPOS>MOLECULE
*****
 30 32 0 0 0
SMALL
GASTEIGER

@<TRIPOS>ATOM
      1 N           5.0032   -2.4527   19.8479 N.ar    1  UNL1       -0.3134
      2 C           3.7674   -1.6948   20.2331 C.ar    1  UNL1        0.1203
      3 N           3.6143   -1.7841   21.7225 N.ar    1  UNL1       -0.2309
      4 C           4.7554   -2.5972   22.2579 C.ar    1  UNL1        0.0996
      5 C           5.1237   -3.0148   23.6508 C.ar    1  UNL1        0.0389
      6 C           6.3504   -3.8456   23.8850 C.ar    1  UNL1        0.1073
      7 C           7.2088   -4.2588   22.7263 C.ar    1  UNL1        0.0199
      8 C           6.8405   -3.8413   21.3335 C.ar    1  UNL1        0.0201
      9 C           5.6138   -3.0105   21.0993 C.ar    1  UNL1        0.0787
     10 S           6.7188   -4.2631   25.2778 S.O2    1  UNL1        0.0097
     11 O           7.3182   -5.5286   24.7400 O.2     1  UNL1       -0.1686
     12 O           6.1194   -2.9977   25.8157 O.2     1  UNL1       -0.1686
     13 C           7.0872   -4.6807   26.6706 C.3     1  UNL1        0.1655
     14 C           8.0978   -4.2265   27.6817 C.3     1  UNL1        0.0979
     15 N           7.6081   -5.2711   28.6404 N.3     1  UNL1       -0.2676
     16 C           6.5974   -5.7252   27.6293 C.3     1  UNL1        0.0979
     17 C           7.9764   -5.6887   30.0333 C.3     1  UNL1        0.1043
     18 C           7.1881   -5.1777   31.2026 C.3     1  UNL1        0.1544
     19 O           6.5332   -6.1434   32.1452 O.3     1  UNL1       -0.3805
     20 H           5.8349   -6.6281   31.6780 H       1  UNL1        0.2105
     21 C           5.5350   -2.6231   18.4557 C.3     1  UNL1        0.1245
     22 C           6.8402   -1.9932   18.0691 C.3     1  UNL1        0.0970
     23 C           7.5804    0.1595   19.3214 C.3     1  UNL1        0.0897
     24 N           6.9942   -0.5016   18.1093 N.3     1  UNL1       -0.2687
     25 C           6.5621    0.3288   16.9373 C.3     1  UNL1        0.0897
     26 C           2.8465   -0.9740   19.2937 C.3     1  UNL1        0.0639
     27 C           2.3655    0.4071   19.6272 C.3     1  UNL1        0.0071
     28 C           0.9968   -0.1377   19.9093 C.3     1  UNL1        0.0004
     29 C           3.7343    0.9518   19.3451 C.3     1  UNL1        0.0004
     30 C           1.8846    1.7882   19.9607 C.3     1  UNL1        0.0004
@<TRIPOS>BOND
     1    23    24    1
     2    24    25    1
     3    24    22    1
     4    22    21    1
     5    21     1    1
     6     1     2   ar
     7     2    26    1
     8    26    27    1
     9    27    28    1
    10    27    29    1
    11    27    30    1
    12     2     3   ar
    13     3     4   ar
    14     4     5   ar
    15     5     6   ar
    16     6    10    1
    17    10    11    2
    18    10    12    2
    19    10    13    1
    20    13    14    1
    21    14    15    1
    22    15    17    1
    23    17    18    1
    24    18    19    1
    25    15    16    1
    26     6     7   ar
    27     7     8   ar
    28     8     9   ar
    29     9     1   ar
    30     9     4   ar
    31    16    13    1
    32    19    20    1
@<TRIPOS>MOLECULE
*****
 30 32 0 0 0
SMALL
GASTEIGER

@<TRIPOS>ATOM
      1 N           3.4356    0.4236   18.5264 N.ar    1  UNL1       -0.3134
      2 C           3.1984   -0.9549   19.0680 C.ar    1  UNL1        0.1203
      3 N           1.8783   -0.9522   19.7801 N.ar    1  UNL1       -0.2309
      4 C           1.2996    0.4279   19.6787 C.ar    1  UNL1        0.0996
      5 C           0.0206    1.0202   20.1918 C.ar    1  UNL1        0.0389
      6 C          -0.2959    2.4628   19.9299 C.ar    1  UNL1        0.1073
      7 C           0.6666    3.3132   19.1550 C.ar    1  UNL1        0.0199
      8 C           1.9456    2.7209   18.6419 C.ar    1  UNL1        0.0201
      9 C           2.2621    1.2783   18.9038 C.ar    1  UNL1        0.0787
     10 S          -1.5750    3.0552   20.4430 S.O2    1  UNL1        0.0097
     11 O          -1.2812    2.5072   21.8081 O.2     1  UNL1       -0.1686
     12 O          -1.8687    3.6032   19.0780 O.2     1  UNL1       -0.1686
     13 C          -2.8540    3.6476   20.9560 C.3     1  UNL1        0.1655
     14 C          -4.3071    3.2926   20.8444 C.3     1  UNL1        0.0979
     15 N          -4.6628    4.4853   21.6816 N.3     1  UNL1       -0.2676
     16 C          -3.2097    4.8403   21.7932 C.3     1  UNL1        0.0979
     17 C          -5.9418    5.0777   22.1946 C.3     1  UNL1        0.1043
     18 C          -6.6879    4.4025   23.3070 C.3     1  UNL1        0.1544
     19 O          -8.0954    3.9321   23.0888 O.3     1  UNL1       -0.3805
     20 H          -8.6738    4.6976   22.9467 H       1  UNL1        0.2105
     21 C           4.6357    0.8693   17.7445 C.3     1  UNL1        0.1245
     22 C           5.7316    1.6353   18.4243 C.3     1  UNL1        0.0970
     23 C           7.8222    1.5258   19.9630 C.3     1  UNL1        0.0897
     24 N           6.9689    0.9241   18.8860 N.3     1  UNL1       -0.2687
     25 C           7.3531   -0.3889   18.2707 C.3     1  UNL1        0.0897
     26 C           4.1196   -2.1298   18.9229 C.3     1  UNL1        0.0639
     27 C           4.3467   -3.0526   20.0834 C.3     1  UNL1        0.0071
     28 C           5.1005   -1.9697   20.7969 C.3     1  UNL1        0.0004
     29 C           3.5929   -4.1354   19.3699 C.3     1  UNL1        0.0004
     30 C           4.5738   -3.9754   21.2440 C.3     1  UNL1        0.0004
@<TRIPOS>BOND
     1    23    24    1
     2    24    25    1
     3    24    22    1
     4    22    21    1
     5    21     1    1
     6     1     2   ar
     7     2    26    1
     8    26    27    1
     9    27    28    1
    10    27    29    1
    11    27    30    1
    12     2     3   ar
    13     3     4   ar
    14     4     5   ar
    15     5     6   ar
    16     6    10    1
    17    10    11    2
    18    10    12    2
    19    10    13    1
    20    13    14    1
    21    14    15    1
    22    15    17    1
    23    17    18    1
    24    18    19    1
    25    15    16    1
    26     6     7   ar
    27     7     8   ar
    28     8     9   ar
    29     9     1   ar
    30     9     4   ar
    31    16    13    1
    32    19    20    1
@<TRIPOS>MOLECULE
*****
 30 32 0 0 0
SMALL
GASTEIGER

@<TRIPOS>ATOM
      1 N           3.7212   -1.7517   21.6088 N.ar    1  UNL1       -0.3134
      2 C           4.6907   -2.8876   21.7493 C.ar    1  UNL1        0.1203
      3 N           5.0273   -3.0325   23.2039 N.ar    1  UNL1       -0.2309
      4 C           4.2659   -1.9861   23.9623 C.ar    1  UNL1        0.0996
      5 C           4.2033   -1.6518   25.4232 C.ar    1  UNL1        0.0389
      6 C           3.3334   -0.5259   25.8984 C.ar    1  UNL1        0.1073
      7 C           2.5262    0.2657   24.9126 C.ar    1  UNL1        0.0199
      8 C           2.5888   -0.0686   23.4517 C.ar    1  UNL1        0.0201
      9 C           3.4586   -1.1945   22.9765 C.ar    1  UNL1        0.0787
     10 S           3.2708   -0.1916   27.3593 S.O2    1  UNL1        0.0097
     11 O           3.0905    1.2583   27.0198 O.2     1  UNL1       -0.1686
     12 O           3.4511   -1.6414   27.6988 O.2     1  UNL1       -0.1686
     13 C           3.2082    0.1427   28.8202 C.3     1  UNL1        0.1655
     14 C           2.4270   -0.3709   29.9933 C.3     1  UNL1        0.0979
     15 N           3.1196    0.6155   30.8863 N.3     1  UNL1       -0.2676
     16 C           3.9008    1.1290   29.7133 C.3     1  UNL1        0.0979
     17 C           3.0570    0.9498   32.3473 C.3     1  UNL1        0.1043
     18 C           1.9857    1.8649   32.8620 C.3     1  UNL1        0.1544
     19 O           0.5711    1.7038   32.3900 O.3     1  UNL1       -0.3805
     20 H           0.5205    1.9107   31.4437 H       1  UNL1        0.2105
     21 C           3.1198   -1.2593   20.3259 C.3     1  UNL1        0.1245
     22 C           3.4716    0.1033   19.8070 C.3     1  UNL1        0.0970
     23 C           5.5640    1.0101   18.5623 C.3     1  UNL1        0.0897
     24 N           4.2756    0.2422   18.5484 N.3     1  UNL1       -0.2687
     25 C           3.7913   -0.3870   17.2757 C.3     1  UNL1        0.0897
     26 C           5.2290   -3.7307   20.6315 C.3     1  UNL1        0.0639
     27 C           5.9833   -3.0894   19.5047 C.3     1  UNL1        0.0071
     28 C           6.9600   -2.5131   20.4864 C.3     1  UNL1        0.0004
     29 C           5.0065   -3.6657   18.5230 C.3     1  UNL1        0.0004
     30 C           6.7375   -2.4481   18.3777 C.3     1  UNL1        0.0004
@<TRIPOS>BOND
     1    23    24    1
     2    24    25    1
     3    24    22    1
     4    22    21    1
     5    21     1    1
     6     1     2   ar
     7     2    26    1
     8    26    27    1
     9    27    28    1
    10    27    29    1
    11    27    30    1
    12     2     3   ar
    13     3     4   ar
    14     4     5   ar
    15     5     6   ar
    16     6    10    1
    17    10    11    2
    18    10    12    2
    19    10    13    1
    20    13    14    1
    21    14    15    1
    22    15    17    1
    23    17    18    1
    24    18    19    1
    25    15    16    1
    26     6     7   ar
    27     7     8   ar
    28     8     9   ar
    29     9     1   ar
    30     9     4   ar
    31    16    13    1
    32    19    20    1
@<TRIPOS>MOLECULE
*****
 30 32 0 0 0
SMALL
GASTEIGER

@<TRIPOS>ATOM
      1 N           4.4307    0.2803   19.2895 N.ar    1  UNL1       -0.3134
      2 C           4.0870   -1.0325   19.9286 C.ar    1  UNL1        0.1203
      3 N           2.6372   -0.9959   20.3117 N.ar    1  UNL1       -0.2309
      4 C           2.0849    0.3395   19.9094 C.ar    1  UNL1        0.0996
      5 C           0.7159    0.9391   20.0368 C.ar    1  UNL1        0.0389
      6 C           0.4554    2.3274   19.5323 C.ar    1  UNL1        0.1073
      7 C           1.5639    3.1162   18.9005 C.ar    1  UNL1        0.0199
      8 C           2.9329    2.5166   18.7732 C.ar    1  UNL1        0.0201
      9 C           3.1934    1.1282   19.2777 C.ar    1  UNL1        0.0787
     10 S          -0.9137    2.9271   19.6596 S.O2    1  UNL1        0.0097
     11 O          -0.6546    3.7753   18.4499 O.2     1  UNL1       -0.1686
     12 O          -1.1727    2.0789   20.8693 O.2     1  UNL1       -0.1686
     13 C          -2.2826    3.5268   19.7869 C.3     1  UNL1        0.1655
     14 C          -3.0449    4.5942   19.0593 C.3     1  UNL1        0.0979
     15 N          -4.2187    4.3748   19.9670 N.3     1  UNL1       -0.2676
     16 C          -3.4565    3.3073   20.6946 C.3     1  UNL1        0.0979
     17 C          -5.5878    4.9744   20.0944 C.3     1  UNL1        0.1043
     18 C          -6.6754    4.5692   19.1441 C.3     1  UNL1        0.1544
     19 O          -6.8323    3.1295   18.7537 O.3     1  UNL1       -0.3805
     20 H          -6.0573    2.8465   18.2436 H       1  UNL1        0.2105
     21 C           5.7757    0.6758   18.7560 C.3     1  UNL1        0.1245
     22 C           5.9768    0.8443   17.2792 C.3     1  UNL1        0.0970
     23 C           6.0052    3.4170   16.9174 C.3     1  UNL1        0.0897
     24 N           6.6527    2.0743   16.7498 N.3     1  UNL1       -0.2687
     25 C           7.9761    1.9617   16.0527 C.3     1  UNL1        0.0897
     26 C           5.0278   -2.1803   20.1464 C.3     1  UNL1        0.0639
     27 C           4.7633   -3.5020   19.4885 C.3     1  UNL1        0.0071
     28 C           5.1882   -2.9301   18.1686 C.3     1  UNL1        0.0004
     29 C           4.3383   -4.0740   20.8085 C.3     1  UNL1        0.0004
     30 C           4.4987   -4.8239   18.8306 C.3     1  UNL1        0.0004
@<TRIPOS>BOND
     1    23    24    1
     2    24    25    1
     3    24    22    1
     4    22    21    1
     5    21     1    1
     6     1     2   ar
     7     2    26    1
     8    26    27    1
     9    27    28    1
    10    27    29    1
    11    27    30    1
    12     2     3   ar
    13     3     4   ar
    14     4     5   ar
    15     5     6   ar
    16     6    10    1
    17    10    11    2
    18    10    12    2
    19    10    13    1
    20    13    14    1
    21    14    15    1
    22    15    17    1
    23    17    18    1
    24    18    19    1
    25    15    16    1
    26     6     7   ar
    27     7     8   ar
    28     8     9   ar
    29     9     1   ar
    30     9     4   ar
    31    16    13    1
    32    19    20    1
@<TRIPOS>MOLECULE
*****
 30 32 0 0 0
SMALL
GASTEIGER

@<TRIPOS>ATOM
      1 N          -9.3488  -19.2168   22.6889 N.ar    1  UNL1       -0.3134
      2 C          -9.5300  -18.0332   23.5925 C.ar    1  UNL1        0.1203
      3 N          -8.2279  -17.2907   23.6504 N.ar    1  UNL1       -0.2309
      4 C          -7.2420  -18.0153   22.7827 C.ar    1  UNL1        0.0996
      5 C          -5.8030  -17.7450   22.4569 C.ar    1  UNL1        0.0389
      6 C          -5.0568  -18.6651   21.5368 C.ar    1  UNL1        0.1073
      7 C          -5.7495  -19.8554   20.9426 C.ar    1  UNL1        0.0199
      8 C          -7.1885  -20.1258   21.2684 C.ar    1  UNL1        0.0201
      9 C          -7.9348  -19.2057   22.1884 C.ar    1  UNL1        0.0787
     10 S          -3.6177  -18.3948   21.2110 S.O2    1  UNL1        0.0097
     11 O          -3.9697  -18.2720   19.7581 O.2     1  UNL1       -0.1686
     12 O          -3.2657  -18.5175   22.6639 O.2     1  UNL1       -0.1686
     13 C          -2.1787  -18.1245   20.8852 C.3     1  UNL1        0.1655
     14 C          -1.2908  -16.9162   20.9262 C.3     1  UNL1        0.0979
     15 N          -0.1436  -17.7422   20.4245 N.3     1  UNL1       -0.2676
     16 C          -1.0315  -18.9505   20.3835 C.3     1  UNL1        0.0979
     17 C           1.2955  -17.4720   20.0987 C.3     1  UNL1        0.1043
     18 C           2.3783  -17.9920   20.9971 C.3     1  UNL1        0.1544
     19 O           3.6252  -17.1866   21.2127 O.3     1  UNL1       -0.3805
     20 H           4.1196  -17.1271   20.3803 H       1  UNL1        0.2105
     21 C         -10.3974  -20.2330   22.3460 C.3     1  UNL1        0.1245
     22 C         -11.2219  -20.0700   21.1037 C.3     1  UNL1        0.0970
     23 C          -9.7453  -19.9519   18.9693 C.3     1  UNL1        0.0897
     24 N         -10.6800  -19.2936   19.9403 N.3     1  UNL1       -0.2687
     25 C         -11.0729  -17.8588   19.7479 C.3     1  UNL1        0.0897
     26 C         -10.7917  -17.6581   24.3118 C.3     1  UNL1        0.0639
     27 C         -12.0572  -17.4331   23.5386 C.3     1  UNL1        0.0071
     28 C         -12.7138  -18.5551   24.2870 C.3     1  UNL1        0.0004
     29 C         -11.4006  -16.3112   22.7903 C.3     1  UNL1        0.0004
     30 C         -13.3228  -17.2081   22.7654 C.3     1  UNL1        0.0004
@<TRIPOS>BOND
     1    23    24    1
     2    24    25    1
     3    24    22    1
     4    22    21    1
     5    21     1    1
     6     1     2   ar
     7     2    26    1
     8    26    27    1
     9    27    28    1
    10    27    29    1
    11    27    30    1
    12     2     3   ar
    13     3     4   ar
    14     4     5   ar
    15     5     6   ar
    16     6    10    1
    17    10    11    2
    18    10    12    2
    19    10    13    1
    20    13    14    1
    21    14    15    1
    22    15    17    1
    23    17    18    1
    24    18    19    1
    25    15    16    1
    26     6     7   ar
    27     7     8   ar
    28     8     9   ar
    29     9     1   ar
    30     9     4   ar
    31    16    13    1
    32    19    20    1
@<TRIPOS>MOLECULE
*****
 30 32 0 0 0
SMALL
GASTEIGER

@<TRIPOS>ATOM
      1 N           4.1848   -0.1175   20.3897 N.ar    1  UNL1       -0.3134
      2 C           3.7629   -1.5469   20.2201 C.ar    1  UNL1        0.1203
      3 N           3.3715   -2.0776   21.5674 N.ar    1  UNL1       -0.2309
      4 C           3.5515   -0.9762   22.5696 C.ar    1  UNL1        0.0996
      5 C           3.3226   -0.9199   24.0510 C.ar    1  UNL1        0.0389
      6 C           3.5963    0.3478   24.8045 C.ar    1  UNL1        0.1073
      7 C           4.0989    1.5593   24.0766 C.ar    1  UNL1        0.0199
      8 C           4.3278    1.5030   22.5953 C.ar    1  UNL1        0.0201
      9 C           4.0541    0.2352   21.8418 C.ar    1  UNL1        0.0787
     10 S           3.3674    0.4042   26.2859 S.O2    1  UNL1        0.0097
     11 O           3.1967    1.8921   26.2030 O.2     1  UNL1       -0.1686
     12 O           3.5381   -1.0837   26.3688 O.2     1  UNL1       -0.1686
     13 C           3.1385    0.4605   27.7672 C.3     1  UNL1        0.1655
     14 C           3.1457    1.5474   28.8010 C.3     1  UNL1        0.0979
     15 N           2.8149    0.5401   29.8622 N.3     1  UNL1       -0.2676
     16 C           2.8077   -0.5467   28.8284 C.3     1  UNL1        0.0979
     17 C           2.5860    0.5964   31.3436 C.3     1  UNL1        0.1043
     18 C           3.4786   -0.1747   32.2702 C.3     1  UNL1        0.1544
     19 O           3.5354   -1.6711   32.1845 O.3     1  UNL1       -0.3805
     20 H           2.6765   -2.0424   32.4401 H       1  UNL1        0.2105
     21 C           4.6548    0.7985   19.2988 C.3     1  UNL1        0.1245
     22 C           3.6619    1.4228   18.3639 C.3     1  UNL1        0.0970
     23 C           1.1708    0.6862   18.4089 C.3     1  UNL1        0.0897
     24 N           2.2484    1.6485   18.8124 N.3     1  UNL1       -0.2687
     25 C           1.9125    2.8364   19.6643 C.3     1  UNL1        0.0897
     26 C           3.7370   -2.3114   18.9298 C.3     1  UNL1        0.0639
     27 C           4.3567   -3.6752   18.8535 C.3     1  UNL1        0.0071
     28 C           3.0090   -4.2993   19.0637 C.3     1  UNL1        0.0004
     29 C           5.7044   -3.0511   18.6433 C.3     1  UNL1        0.0004
     30 C           4.9765   -5.0391   18.7772 C.3     1  UNL1        0.0004
@<TRIPOS>BOND
     1    23    24    1
     2    24    25    1
     3    24    22    1
     4    22    21    1
     5    21     1    1
     6     1     2   ar
     7     2    26    1
     8    26    27    1
     9    27    28    1
    10    27    29    1
    11    27    30    1
    12     2     3   ar
    13     3     4   ar
    14     4     5   ar
    15     5     6   ar
    16     6    10    1
    17    10    11    2
    18    10    12    2
    19    10    13    1
    20    13    14    1
    21    14    15    1
    22    15    17    1
    23    17    18    1
    24    18    19    1
    25    15    16    1
    26     6     7   ar
    27     7     8   ar
    28     8     9   ar
    29     9     1   ar
    30     9     4   ar
    31    16    13    1
    32    19    20    1
@<TRIPOS>MOLECULE
*****
 30 32 0 0 0
SMALL
GASTEIGER

@<TRIPOS>ATOM
      1 N           4.1345   -2.0456   22.2378 N.ar    1  UNL1       -0.3134
      2 C           3.0928   -1.1942   21.5745 C.ar    1  UNL1        0.1203
      3 N           2.5039   -0.2878   22.6146 N.ar    1  UNL1       -0.2309
      4 C           3.1817   -0.5790   23.9206 C.ar    1  UNL1        0.0996
      5 C           3.0114    0.0047   25.2918 C.ar    1  UNL1        0.0389
      6 C           3.8489   -0.4979   26.4302 C.ar    1  UNL1        0.1073
      7 C           4.8567   -1.5843   26.1974 C.ar    1  UNL1        0.0199
      8 C           5.0269   -2.1680   24.8262 C.ar    1  UNL1        0.0201
      9 C           4.1895   -1.6654   23.6878 C.ar    1  UNL1        0.0787
     10 S           3.6787    0.0858   27.8015 S.O2    1  UNL1        0.0097
     11 O           3.4314   -1.2863   28.3549 O.2     1  UNL1       -0.1686
     12 O           3.9259    1.4578   27.2481 O.2     1  UNL1       -0.1686
     13 C           3.5084    0.6695   29.1727 C.3     1  UNL1        0.1655
     14 C           3.2641    2.0459   29.7167 C.3     1  UNL1        0.0979
     15 N           3.2677    1.4951   31.1119 N.3     1  UNL1       -0.2676
     16 C           3.5120    0.1187   30.5679 C.3     1  UNL1        0.0979
     17 C           3.0974    2.0788   32.4832 C.3     1  UNL1        0.1043
     18 C           1.7217    2.3113   33.0338 C.3     1  UNL1        0.1544
     19 O           0.5312    1.6910   32.3645 O.3     1  UNL1       -0.3805
     20 H           0.4198    2.0761   31.4812 H       1  UNL1        0.2105
     21 C           4.9739   -3.0933   21.5687 C.3     1  UNL1        0.1245
     22 C           6.0958   -2.6876   20.6595 C.3     1  UNL1        0.0970
     23 C           4.9166   -3.8189   18.6397 C.3     1  UNL1        0.0897
     24 N           5.9811   -2.9111   19.1807 N.3     1  UNL1       -0.2687
     25 C           6.9308   -2.2267   18.2429 C.3     1  UNL1        0.0897
     26 C           2.7075   -1.2410   20.1256 C.3     1  UNL1        0.0639
     27 C           2.5497    0.0331   19.3500 C.3     1  UNL1        0.0071
     28 C           1.0615   -0.0485   19.5189 C.3     1  UNL1        0.0004
     29 C           4.0378    0.1147   19.1810 C.3     1  UNL1        0.0004
     30 C           2.3918    1.3073   18.5743 C.3     1  UNL1        0.0004
@<TRIPOS>BOND
     1    23    24    1
     2    24    25    1
     3    24    22    1
     4    22    21    1
     5    21     1    1
     6     1     2   ar
     7     2    26    1
     8    26    27    1
     9    27    28    1
    10    27    29    1
    11    27    30    1
    12     2     3   ar
    13     3     4   ar
    14     4     5   ar
    15     5     6   ar
    16     6    10    1
    17    10    11    2
    18    10    12    2
    19    10    13    1
    20    13    14    1
    21    14    15    1
    22    15    17    1
    23    17    18    1
    24    18    19    1
    25    15    16    1
    26     6     7   ar
    27     7     8   ar
    28     8     9   ar
    29     9     1   ar
    30     9     4   ar
    31    16    13    1
    32    19    20    1
@<TRIPOS>MOLECULE
*****
 30 32 0 0 0
SMALL
GASTEIGER

@<TRIPOS>ATOM
      1 N           4.5352    0.2797   20.7661 N.ar    1  UNL1       -0.3134
      2 C           4.0391   -1.1198   20.5533 C.ar    1  UNL1        0.1203
      3 N           2.5548   -1.1233   20.7701 N.ar    1  UNL1       -0.2309
      4 C           2.1336    0.2740   21.1167 C.ar    1  UNL1        0.0996
      5 C           0.7938    0.8688   21.4343 C.ar    1  UNL1        0.0389
      6 C           0.6779    2.3307   21.7494 C.ar    1  UNL1        0.1073
      7 C           1.9018    3.1978   21.7470 C.ar    1  UNL1        0.0199
      8 C           3.2417    2.6030   21.4294 C.ar    1  UNL1        0.0201
      9 C           3.3576    1.1411   21.1143 C.ar    1  UNL1        0.0787
     10 S          -0.6621    2.9256   22.0670 S.O2    1  UNL1        0.0097
     11 O          -1.2448    2.2597   20.8559 O.2     1  UNL1       -0.1686
     12 O          -0.0793    3.5915   23.2782 O.2     1  UNL1       -0.1686
     13 C          -2.0019    3.5205   22.3847 C.3     1  UNL1        0.1655
     14 C          -3.3073    3.6437   21.6562 C.3     1  UNL1        0.0979
     15 N          -3.8967    4.3618   22.8339 N.3     1  UNL1       -0.2676
     16 C          -2.5913    4.2385   23.5624 C.3     1  UNL1        0.0979
     17 C          -5.2366    4.9567   23.1516 C.3     1  UNL1        0.1043
     18 C          -6.0695    4.3809   24.2583 C.3     1  UNL1        0.1544
     19 O          -5.5919    3.1705   25.0045 O.3     1  UNL1       -0.3805
     20 H          -5.5701    2.4086   24.4045 H       1  UNL1        0.2105
     21 C           5.9590    0.7374   20.6508 C.3     1  UNL1        0.1245
     22 C           6.5898    0.8930   19.2989 C.3     1  UNL1        0.0970
     23 C           5.4786    0.1072   17.0858 C.3     1  UNL1        0.0897
     24 N           5.7345    1.1815   18.1009 N.3     1  UNL1       -0.2687
     25 C           5.1352    2.5443   17.9179 C.3     1  UNL1        0.0897
     26 C           4.8796   -2.3073   20.1880 C.3     1  UNL1        0.0639
     27 C           4.2321   -3.6385   19.9459 C.3     1  UNL1        0.0071
     28 C           4.3656   -3.9684   21.4031 C.3     1  UNL1        0.0004
     29 C           4.0986   -3.3085   18.4888 C.3     1  UNL1        0.0004
     30 C           3.5846   -4.9697   19.7038 C.3     1  UNL1        0.0004
@<TRIPOS>BOND
     1    23    24    1
     2    24    25    1
     3    24    22    1
     4    22    21    1
     5    21     1    1
     6     1     2   ar
     7     2    26    1
     8    26    27    1
     9    27    28    1
    10    27    29    1
    11    27    30    1
    12     2     3   ar
    13     3     4   ar
    14     4     5   ar
    15     5     6   ar
    16     6    10    1
    17    10    11    2
    18    10    12    2
    19    10    13    1
    20    13    14    1
    21    14    15    1
    22    15    17    1
    23    17    18    1
    24    18    19    1
    25    15    16    1
    26     6     7   ar
    27     7     8   ar
    28     8     9   ar
    29     9     1   ar
    30     9     4   ar
    31    16    13    1
    32    19    20    1
