@<TRIPOS>MOLECULE
*****
 22 24 0 0 0
SMALL
GASTEIGER

@<TRIPOS>ATOM
      1 C          -7.2379  -18.1469   21.8734 C.3     1  UNL1        0.1894
      2 C          -8.5534  -18.8671   21.9029 C.ar    1  UNL1        0.0172
      3 C          -9.4287  -18.8803   20.6848 C.ar    1  UNL1       -0.0008
      4 C         -10.7441  -19.6004   20.7143 C.ar    1  UNL1       -0.0002
      5 C         -11.1844  -20.3074   21.9619 C.ar    1  UNL1       -0.0000
      6 C         -10.3091  -20.2942   23.1800 C.ar    1  UNL1       -0.0002
      7 C          -8.9936  -19.5740   23.1505 C.ar    1  UNL1       -0.0008
      8 C          -5.9826  -18.8919   21.5281 C.3     1  UNL1        0.0615
      9 C          -5.7709  -19.7481   20.3148 C.3     1  UNL1        0.0224
     10 C          -4.3761  -20.2969   20.3723 C.3     1  UNL1        0.0687
     11 N          -3.7257  -19.7798   21.6212 N.3     1  UNL1       -0.2973
     12 C          -4.7185  -18.9115   22.3356 C.3     1  UNL1        0.0725
     13 H          -2.8986  -19.2337   21.3801 H       1  UNL1        0.1232
     14 O          -7.1777  -16.6817   22.1892 O.3     1  UNL1       -0.4739
     15 F          -6.5098  -14.8615   27.8672 F       1  UNL1       -0.2041
     16 C          -6.6768  -15.3165   26.4477 C.ar    1  UNL1        0.1412
     17 C          -5.4701  -15.5467   25.5870 C.ar    1  UNL1        0.0328
     18 C          -5.6370  -16.0018   24.1675 C.ar    1  UNL1        0.0401
     19 C          -7.0107  -16.2267   23.6087 C.ar    1  UNL1        0.1494
     20 C          -8.2174  -15.9965   24.4694 C.ar    1  UNL1        0.0938
     21 CL         -9.5912  -16.2214   23.9105 Cl      1  UNL1       -0.0790
     22 C          -8.0505  -15.5415   25.8889 C.ar    1  UNL1        0.0441
@<TRIPOS>BOND
     1    15    16    1
     2    16    17   ar
     3    17    18   ar
     4    18    19   ar
     5    19    14    1
     6     1    14    1
     7     1     2    1
     8     2     3   ar
     9     3     4   ar
    10     4     5   ar
    11     5     6   ar
    12     6     7   ar
    13     1     8    1
    14     8     9    1
    15     9    10    1
    16    10    11    1
    17    11    12    1
    18    19    20   ar
    19    20    21    1
    20    20    22   ar
    21    22    16   ar
    22     7     2   ar
    23    12     8    1
    24    11    13    1
@<TRIPOS>MOLECULE
*****
 22 24 0 0 0
SMALL
GASTEIGER

@<TRIPOS>ATOM
      1 C          -7.3655  -18.5822   22.3383 C.3     1  UNL1        0.1894
      2 C          -6.0200  -19.0292   21.8485 C.ar    1  UNL1        0.0172
      3 C          -4.7768  -18.5815   22.5584 C.ar    1  UNL1       -0.0008
      4 C          -3.4313  -19.0284   22.0686 C.ar    1  UNL1       -0.0002
      5 C          -3.3290  -19.9230   20.8688 C.ar    1  UNL1       -0.0000
      6 C          -4.5723  -20.3706   20.1589 C.ar    1  UNL1       -0.0002
      7 C          -5.9178  -19.9237   20.6488 C.ar    1  UNL1       -0.0008
      8 C          -7.5665  -17.1664   22.7911 C.3     1  UNL1        0.0615
      9 C          -7.3628  -16.6488   24.1842 C.3     1  UNL1        0.0224
     10 C          -7.6768  -15.1821   24.1844 C.3     1  UNL1        0.0687
     11 N          -8.0746  -14.7931   22.7914 N.3     1  UNL1       -0.2973
     12 C          -8.0064  -16.0194   21.9303 C.3     1  UNL1        0.0725
     13 H          -7.4350  -14.0833   22.4343 H       1  UNL1        0.1232
     14 O          -8.5100  -19.5511   22.3754 O.3     1  UNL1       -0.4739
     15 F         -14.0090  -17.6441   23.8329 F       1  UNL1       -0.2041
     16 C         -12.6343  -18.1209   23.4685 C.ar    1  UNL1        0.1412
     17 C         -11.7205  -18.6570   24.5303 C.ar    1  UNL1        0.0328
     18 C         -10.3457  -19.1337   24.1659 C.ar    1  UNL1        0.0401
     19 C          -9.8848  -19.0743   22.7398 C.ar    1  UNL1        0.1494
     20 C         -10.7986  -18.5382   21.6780 C.ar    1  UNL1        0.0938
     21 CL        -10.3377  -18.4788   20.2517 Cl      1  UNL1       -0.0790
     22 C         -12.1734  -18.0615   22.0424 C.ar    1  UNL1        0.0441
@<TRIPOS>BOND
     1    15    16    1
     2    16    17   ar
     3    17    18   ar
     4    18    19   ar
     5    19    14    1
     6     1    14    1
     7     1     2    1
     8     2     3   ar
     9     3     4   ar
    10     4     5   ar
    11     5     6   ar
    12     6     7   ar
    13     1     8    1
    14     8     9    1
    15     9    10    1
    16    10    11    1
    17    11    12    1
    18    19    20   ar
    19    20    21    1
    20    20    22   ar
    21    22    16   ar
    22     7     2   ar
    23    12     8    1
    24    11    13    1
@<TRIPOS>MOLECULE
*****
 22 24 0 0 0
SMALL
GASTEIGER

@<TRIPOS>ATOM
      1 C          -8.2644  -17.2774   22.0269 C.3     1  UNL1        0.1894
      2 C          -9.7586  -17.4067   22.0556 C.ar    1  UNL1        0.0172
      3 C         -10.4098  -18.3727   23.0004 C.ar    1  UNL1       -0.0008
      4 C         -11.9039  -18.5021   23.0291 C.ar    1  UNL1       -0.0002
      5 C         -12.7469  -17.6654   22.1129 C.ar    1  UNL1       -0.0000
      6 C         -12.0958  -16.6994   21.1681 C.ar    1  UNL1       -0.0002
      7 C         -10.6016  -16.5701   21.1394 C.ar    1  UNL1       -0.0008
      8 C          -7.4224  -18.4164   21.5333 C.3     1  UNL1        0.0615
      9 C          -6.1083  -18.8552   22.1082 C.3     1  UNL1        0.0224
     10 C          -5.6203  -20.0266   21.3084 C.3     1  UNL1        0.0687
     11 N          -6.6329  -20.3117   20.2391 N.3     1  UNL1       -0.2973
     12 C          -7.7467  -19.3166   20.3780 C.3     1  UNL1        0.0725
     13 H          -6.9978  -21.2576   20.3513 H       1  UNL1        0.1232
     14 O          -7.6124  -16.0091   22.4918 O.3     1  UNL1       -0.4739
     15 F          -6.6112  -15.1196   28.3404 F       1  UNL1       -0.2041
     16 C          -6.8615  -15.3420   26.8783 C.ar    1  UNL1        0.1412
     17 C          -8.2665  -15.4680   26.3685 C.ar    1  UNL1        0.0328
     18 C          -8.5168  -15.6903   24.9064 C.ar    1  UNL1        0.0401
     19 C          -7.3621  -15.7867   23.9540 C.ar    1  UNL1        0.1494
     20 C          -5.9570  -15.6607   24.4637 C.ar    1  UNL1        0.0938
     21 CL         -4.8021  -15.7571   23.5112 Cl      1  UNL1       -0.0790
     22 C          -5.7067  -15.4384   25.9258 C.ar    1  UNL1        0.0441
@<TRIPOS>BOND
     1    15    16    1
     2    16    17   ar
     3    17    18   ar
     4    18    19   ar
     5    19    14    1
     6     1    14    1
     7     1     2    1
     8     2     3   ar
     9     3     4   ar
    10     4     5   ar
    11     5     6   ar
    12     6     7   ar
    13     1     8    1
    14     8     9    1
    15     9    10    1
    16    10    11    1
    17    11    12    1
    18    19    20   ar
    19    20    21    1
    20    20    22   ar
    21    22    16   ar
    22     7     2   ar
    23    12     8    1
    24    11    13    1
@<TRIPOS>MOLECULE
*****
 22 24 0 0 0
SMALL
GASTEIGER

@<TRIPOS>ATOM
      1 C          -8.3788  -16.5671   23.6500 C.3     1  UNL1        0.1894
      2 C          -9.7858  -17.0856   23.6086 C.ar    1  UNL1        0.0172
      3 C         -10.8475  -16.3163   22.8799 C.ar    1  UNL1       -0.0008
      4 C         -12.2544  -16.8348   22.8385 C.ar    1  UNL1       -0.0002
      5 C         -12.5996  -18.1226   23.5258 C.ar    1  UNL1       -0.0000
      6 C         -11.5379  -18.8919   24.2545 C.ar    1  UNL1       -0.0002
      7 C         -10.1310  -18.3734   24.2959 C.ar    1  UNL1       -0.0008
      8 C          -7.8259  -15.9992   24.9235 C.3     1  UNL1        0.0615
      9 C          -8.4442  -16.1211   26.2847 C.3     1  UNL1        0.0224
     10 C          -7.5581  -15.4070   27.2620 C.3     1  UNL1        0.0687
     11 N          -6.3922  -14.8439   26.5047 N.3     1  UNL1       -0.2973
     12 C          -6.5576  -15.2099   25.0595 C.3     1  UNL1        0.0725
     13 H          -5.5229  -15.2382   26.8643 H       1  UNL1        0.1232
     14 O          -7.5248  -16.6163   22.4178 O.3     1  UNL1       -0.4739
     15 F          -5.7662  -21.9051   20.1960 F       1  UNL1       -0.2041
     16 C          -6.2059  -20.5829   20.7515 C.ar    1  UNL1        0.1412
     17 C          -7.5461  -20.0214   20.3794 C.ar    1  UNL1        0.0328
     18 C          -7.9857  -18.6992   20.9349 C.ar    1  UNL1        0.0401
     19 C          -7.0851  -17.9385   21.8624 C.ar    1  UNL1        0.1494
     20 C          -5.7449  -18.5000   22.2344 C.ar    1  UNL1        0.0938
     21 CL         -4.8443  -17.7394   23.1620 Cl      1  UNL1       -0.0790
     22 C          -5.3053  -19.8222   21.6790 C.ar    1  UNL1        0.0441
@<TRIPOS>BOND
     1    15    16    1
     2    16    17   ar
     3    17    18   ar
     4    18    19   ar
     5    19    14    1
     6     1    14    1
     7     1     2    1
     8     2     3   ar
     9     3     4   ar
    10     4     5   ar
    11     5     6   ar
    12     6     7   ar
    13     1     8    1
    14     8     9    1
    15     9    10    1
    16    10    11    1
    17    11    12    1
    18    19    20   ar
    19    20    21    1
    20    20    22   ar
    21    22    16   ar
    22     7     2   ar
    23    12     8    1
    24    11    13    1
@<TRIPOS>MOLECULE
*****
 22 24 0 0 0
SMALL
GASTEIGER

@<TRIPOS>ATOM
      1 C          -8.6929  -16.5872   23.2566 C.3     1  UNL1        0.1894
      2 C         -10.1105  -17.0628   23.3762 C.ar    1  UNL1        0.0172
      3 C         -11.2130  -16.3155   22.6862 C.ar    1  UNL1       -0.0008
      4 C         -12.6306  -16.7910   22.8058 C.ar    1  UNL1       -0.0002
      5 C         -12.9457  -18.0138   23.6155 C.ar    1  UNL1       -0.0000
      6 C         -11.8432  -18.7611   24.3055 C.ar    1  UNL1       -0.0002
      7 C         -10.4256  -18.2855   24.1859 C.ar    1  UNL1       -0.0008
      8 C          -8.0059  -15.9718   24.4395 C.3     1  UNL1        0.0615
      9 C          -8.4297  -16.1038   25.8724 C.3     1  UNL1        0.0224
     10 C          -7.4603  -15.3299   26.7157 C.3     1  UNL1        0.0687
     11 N          -6.4373  -14.7196   25.8042 N.3     1  UNL1       -0.2973
     12 C          -6.7744  -15.1163   24.3974 C.3     1  UNL1        0.0725
     13 H          -5.5081  -15.0631   26.0474 H       1  UNL1        0.1232
     14 O          -7.9623  -16.7271   21.9541 O.3     1  UNL1       -0.4739
     15 F          -5.6954  -22.0431   20.3415 F       1  UNL1       -0.2041
     16 C          -6.2621  -20.7141   20.7447 C.ar    1  UNL1        0.1412
     17 C          -5.4908  -19.8190   21.6686 C.ar    1  UNL1        0.0328
     18 C          -6.0575  -18.4899   22.0717 C.ar    1  UNL1        0.0401
     19 C          -7.3956  -18.0561   21.5509 C.ar    1  UNL1        0.1494
     20 C          -8.1669  -18.9512   20.6270 C.ar    1  UNL1        0.0938
     21 CL         -9.5051  -18.5174   20.1062 Cl      1  UNL1       -0.0790
     22 C          -7.6002  -20.2803   20.2239 C.ar    1  UNL1        0.0441
@<TRIPOS>BOND
     1    15    16    1
     2    16    17   ar
     3    17    18   ar
     4    18    19   ar
     5    19    14    1
     6     1    14    1
     7     1     2    1
     8     2     3   ar
     9     3     4   ar
    10     4     5   ar
    11     5     6   ar
    12     6     7   ar
    13     1     8    1
    14     8     9    1
    15     9    10    1
    16    10    11    1
    17    11    12    1
    18    19    20   ar
    19    20    21    1
    20    20    22   ar
    21    22    16   ar
    22     7     2   ar
    23    12     8    1
    24    11    13    1
@<TRIPOS>MOLECULE
*****
 22 24 0 0 0
SMALL
GASTEIGER

@<TRIPOS>ATOM
      1 C          -8.6245  -16.9903   23.8397 C.3     1  UNL1        0.1894
      2 C          -7.9093  -16.3030   24.9650 C.ar    1  UNL1        0.0172
      3 C          -6.4997  -15.8257   24.7773 C.ar    1  UNL1       -0.0008
      4 C          -5.7845  -15.1384   25.9025 C.ar    1  UNL1       -0.0002
      5 C          -6.4789  -14.9284   27.2154 C.ar    1  UNL1       -0.0000
      6 C          -7.8885  -15.4056   27.4031 C.ar    1  UNL1       -0.0002
      7 C          -8.6037  -16.0930   26.2778 C.ar    1  UNL1       -0.0008
      8 C          -9.8842  -17.7586   24.1098 C.3     1  UNL1        0.0615
      9 C         -11.2369  -17.4652   23.5320 C.3     1  UNL1        0.0224
     10 C         -12.2011  -18.4804   24.0703 C.3     1  UNL1        0.0687
     11 N         -11.4442  -19.4013   24.9808 N.3     1  UNL1       -0.2973
     12 C         -10.0122  -18.9552   25.0053 C.3     1  UNL1        0.0725
     13 H         -11.5028  -20.3580   24.6321 H       1  UNL1        0.1232
     14 O          -8.0800  -16.9093   22.4444 O.3     1  UNL1       -0.4739
     15 F          -5.4149  -21.6878   19.9820 F       1  UNL1       -0.2041
     16 C          -6.0812  -20.4932   20.5976 C.ar    1  UNL1        0.1412
     17 C          -5.3520  -19.6708   21.6183 C.ar    1  UNL1        0.0328
     18 C          -6.0183  -18.4762   22.2339 C.ar    1  UNL1        0.0401
     19 C          -7.4137  -18.1040   21.8288 C.ar    1  UNL1        0.1494
     20 C          -8.1429  -18.9264   20.8081 C.ar    1  UNL1        0.0938
     21 CL         -9.5384  -18.5542   20.4029 Cl      1  UNL1       -0.0790
     22 C          -7.4767  -20.1210   20.1925 C.ar    1  UNL1        0.0441
@<TRIPOS>BOND
     1    15    16    1
     2    16    17   ar
     3    17    18   ar
     4    18    19   ar
     5    19    14    1
     6     1    14    1
     7     1     2    1
     8     2     3   ar
     9     3     4   ar
    10     4     5   ar
    11     5     6   ar
    12     6     7   ar
    13     1     8    1
    14     8     9    1
    15     9    10    1
    16    10    11    1
    17    11    12    1
    18    19    20   ar
    19    20    21    1
    20    20    22   ar
    21    22    16   ar
    22     7     2   ar
    23    12     8    1
    24    11    13    1
@<TRIPOS>MOLECULE
*****
 22 24 0 0 0
SMALL
GASTEIGER

@<TRIPOS>ATOM
      1 C          -8.3389  -16.7032   23.5106 C.3     1  UNL1        0.1894
      2 C          -7.8063  -16.1897   24.8156 C.ar    1  UNL1        0.0172
      3 C          -8.6604  -16.2436   26.0475 C.ar    1  UNL1       -0.0008
      4 C          -8.1279  -15.7302   27.3523 C.ar    1  UNL1       -0.0002
      5 C          -6.7413  -15.1627   27.4254 C.ar    1  UNL1       -0.0000
      6 C          -5.8872  -15.1087   26.1935 C.ar    1  UNL1       -0.0002
      7 C          -6.4197  -15.6222   24.8885 C.ar    1  UNL1       -0.0008
      8 C          -9.7560  -17.1859   23.4168 C.3     1  UNL1        0.0615
      9 C         -10.9212  -16.4025   22.8890 C.3     1  UNL1        0.0224
     10 C         -12.1420  -17.2692   22.9803 C.3     1  UNL1        0.0687
     11 N         -11.7314  -18.5883   23.5645 N.3     1  UNL1       -0.2973
     12 C         -10.2567  -18.5369   23.8343 C.3     1  UNL1        0.0725
     13 H         -11.9365  -19.3382   22.9043 H       1  UNL1        0.1232
     14 O          -7.4543  -16.7339   22.2996 O.3     1  UNL1       -0.4739
     15 F          -5.9844  -21.9822   19.7906 F       1  UNL1       -0.2041
     16 C          -6.3519  -20.6701   20.4178 C.ar    1  UNL1        0.1412
     17 C          -7.6605  -20.0185   20.0818 C.ar    1  UNL1        0.0328
     18 C          -8.0280  -18.7065   20.7090 C.ar    1  UNL1        0.0401
     19 C          -7.0869  -18.0460   21.6723 C.ar    1  UNL1        0.1494
     20 C          -5.7783  -18.6976   22.0084 C.ar    1  UNL1        0.0938
     21 CL         -4.8371  -18.0371   22.9718 Cl      1  UNL1       -0.0790
     22 C          -5.4108  -20.0096   21.3811 C.ar    1  UNL1        0.0441
@<TRIPOS>BOND
     1    15    16    1
     2    16    17   ar
     3    17    18   ar
     4    18    19   ar
     5    19    14    1
     6     1    14    1
     7     1     2    1
     8     2     3   ar
     9     3     4   ar
    10     4     5   ar
    11     5     6   ar
    12     6     7   ar
    13     1     8    1
    14     8     9    1
    15     9    10    1
    16    10    11    1
    17    11    12    1
    18    19    20   ar
    19    20    21    1
    20    20    22   ar
    21    22    16   ar
    22     7     2   ar
    23    12     8    1
    24    11    13    1
@<TRIPOS>MOLECULE
*****
 22 24 0 0 0
SMALL
GASTEIGER

@<TRIPOS>ATOM
      1 C          -7.8721  -17.0576   23.2832 C.3     1  UNL1        0.1894
      2 C          -7.5035  -16.4103   24.5852 C.ar    1  UNL1        0.0172
      3 C          -8.4935  -16.3741   25.7116 C.ar    1  UNL1       -0.0008
      4 C          -8.1250  -15.7268   27.0135 C.ar    1  UNL1       -0.0002
      5 C          -6.7664  -15.1157   27.1892 C.ar    1  UNL1       -0.0000
      6 C          -5.7764  -15.1519   26.0629 C.ar    1  UNL1       -0.0002
      7 C          -6.1450  -15.7992   24.7609 C.ar    1  UNL1       -0.0008
      8 C          -8.7185  -16.3170   22.2906 C.3     1  UNL1        0.0615
      9 C         -10.0821  -16.7246   21.8168 C.3     1  UNL1        0.0224
     10 C         -10.5563  -15.6984   20.8309 C.3     1  UNL1        0.0687
     11 N          -9.4857  -14.6565   20.6954 N.3     1  UNL1       -0.2973
     12 C          -8.3499  -15.0388   21.5975 C.3     1  UNL1        0.0725
     13 H          -9.8532  -13.7451   20.9687 H       1  UNL1        0.1232
     14 O          -7.3944  -18.4454   22.9738 O.3     1  UNL1       -0.4739
     15 F          -2.5707  -19.2525   19.4981 F       1  UNL1       -0.2041
     16 C          -3.7766  -19.0507   20.3670 C.ar    1  UNL1        0.1412
     17 C          -3.6088  -18.6280   21.7964 C.ar    1  UNL1        0.0328
     18 C          -4.8148  -18.4262   22.6653 C.ar    1  UNL1        0.0401
     19 C          -6.1884  -18.6471   22.1049 C.ar    1  UNL1        0.1494
     20 C          -6.3562  -19.0699   20.6755 C.ar    1  UNL1        0.0938
     21 CL         -7.7300  -19.2908   20.1151 Cl      1  UNL1       -0.0790
     22 C          -5.1503  -19.2716   19.8066 C.ar    1  UNL1        0.0441
@<TRIPOS>BOND
     1    15    16    1
     2    16    17   ar
     3    17    18   ar
     4    18    19   ar
     5    19    14    1
     6     1    14    1
     7     1     2    1
     8     2     3   ar
     9     3     4   ar
    10     4     5   ar
    11     5     6   ar
    12     6     7   ar
    13     1     8    1
    14     8     9    1
    15     9    10    1
    16    10    11    1
    17    11    12    1
    18    19    20   ar
    19    20    21    1
    20    20    22   ar
    21    22    16   ar
    22     7     2   ar
    23    12     8    1
    24    11    13    1
@<TRIPOS>MOLECULE
*****
 22 24 0 0 0
SMALL
GASTEIGER

@<TRIPOS>ATOM
      1 C          -9.6712  -18.2200   23.1353 C.3     1  UNL1        0.1894
      2 C          -9.1874  -17.4098   24.3014 C.ar    1  UNL1        0.0172
      3 C          -8.5303  -16.0813   24.0705 C.ar    1  UNL1       -0.0008
      4 C          -8.0465  -15.2712   25.2365 C.ar    1  UNL1       -0.0002
      5 C          -8.2198  -15.7895   26.6335 C.ar    1  UNL1       -0.0000
      6 C          -8.8769  -17.1180   26.8643 C.ar    1  UNL1       -0.0002
      7 C          -9.3607  -17.9282   25.6982 C.ar    1  UNL1       -0.0008
      8 C         -10.8890  -17.7862   22.3744 C.3     1  UNL1        0.0615
      9 C         -12.2993  -18.2179   22.6473 C.3     1  UNL1        0.0224
     10 C         -13.1922  -17.5431   21.6486 C.3     1  UNL1        0.0687
     11 N         -12.3336  -16.6943   20.7584 N.3     1  UNL1       -0.2973
     12 C         -10.9101  -16.8445   21.2070 C.3     1  UNL1        0.0725
     13 H         -12.6185  -15.7176   20.8318 H       1  UNL1        0.1232
     14 O          -8.9373  -19.4638   22.7302 O.3     1  UNL1       -0.4739
     15 F          -4.0866  -19.0762   19.2201 F       1  UNL1       -0.2041
     16 C          -5.2993  -19.1731   20.0976 C.ar    1  UNL1        0.1412
     17 C          -5.1546  -19.0932   21.5884 C.ar    1  UNL1        0.0328
     18 C          -6.3672  -19.1901   22.4659 C.ar    1  UNL1        0.0401
     19 C          -7.7246  -19.3669   21.8526 C.ar    1  UNL1        0.1494
     20 C          -7.8694  -19.4468   20.3618 C.ar    1  UNL1        0.0938
     21 CL         -9.2268  -19.6237   19.7484 Cl      1  UNL1       -0.0790
     22 C          -6.6567  -19.3499   19.4843 C.ar    1  UNL1        0.0441
@<TRIPOS>BOND
     1    15    16    1
     2    16    17   ar
     3    17    18   ar
     4    18    19   ar
     5    19    14    1
     6     1    14    1
     7     1     2    1
     8     2     3   ar
     9     3     4   ar
    10     4     5   ar
    11     5     6   ar
    12     6     7   ar
    13     1     8    1
    14     8     9    1
    15     9    10    1
    16    10    11    1
    17    11    12    1
    18    19    20   ar
    19    20    21    1
    20    20    22   ar
    21    22    16   ar
    22     7     2   ar
    23    12     8    1
    24    11    13    1
