@<TRIPOS>MOLECULE
*****
 37 41 0 0 0
SMALL
GASTEIGER

@<TRIPOS>ATOM
      1 C           0.1406    2.1274   20.5726 C.ar    1  UNL1        0.0383
      2 C           0.0758    2.5303   22.0160 C.ar    1  UNL1        0.1018
      3 N           0.8744    1.7804   23.0407 N.ar    1  UNL1       -0.2292
      4 C           1.7377    0.6274   22.6218 C.ar    1  UNL1        0.1318
      5 C           1.8024    0.2244   21.1784 C.ar    1  UNL1        0.0306
      6 C           1.0039    0.9744   20.1538 C.ar    1  UNL1        0.0033
      7 C           2.7350   -0.9450   21.0650 C.3     1  UNL1        0.1338
      8 C           2.4038   -0.8662   19.6041 C.3     1  UNL1        0.0298
      9 C           3.2466   -1.2647   22.4383 C.2     1  UNL1        0.2437
     10 O           4.2061   -2.3635   22.7881 O.2     1  UNL1       -0.2730
     11 N           2.6303   -0.2930   23.4005 N.am    1  UNL1       -0.2682
     12 H           2.7845   -0.2643   24.3724 H       1  UNL1        0.1563
     13 N          -3.9747    4.8241   19.5856 N.ar    1  UNL1       -0.2967
     14 C          -3.9342    4.4083   21.0263 C.ar    1  UNL1        0.1480
     15 N          -2.6826    3.6107   21.2435 N.ar    1  UNL1       -0.2236
     16 C          -1.9496    3.5336   19.9370 C.ar    1  UNL1        0.1346
     17 C          -0.6580    2.8774   19.5480 C.ar    1  UNL1        0.1051
     18 N          -0.1651    2.9711   18.1344 N.ar    1  UNL1       -0.2223
     19 C          -0.9637    3.7211   17.1099 C.ar    1  UNL1        0.2003
     20 N          -2.2552    4.3773   17.4989 N.ar    1  UNL1       -0.2049
     21 C          -2.7481    4.2836   18.9124 C.ar    1  UNL1        0.1659
     22 C          -4.9646    4.7330   22.0670 C.ar    1  UNL1        0.0725
     23 C          -4.6797    5.7791   23.1036 C.ar    1  UNL1        0.1048
     24 N          -5.7100    6.1038   24.1442 N.ar    1  UNL1       -0.2290
     25 C          -7.0251    5.3825   24.1483 C.ar    1  UNL1        0.1396
     26 C          -8.0555    5.7073   25.1890 C.3     1  UNL1        0.0737
     27 N          -7.3100    4.3364   23.1117 N.ar    1  UNL1       -0.2290
     28 C          -6.2797    4.0117   22.0711 C.ar    1  UNL1        0.1048
     29 C          -5.9648    5.0035   17.9251 C.3     1  UNL1        0.0266
     30 C          -5.0526    5.6378   18.9328 C.3     1  UNL1        0.1090
     31 N           3.5983   -2.0979   20.6462 N.3     1  UNL1       -0.2872
     32 H           3.3597   -2.8808   21.2550 H       1  UNL1        0.1240
     33 C           3.5346   -2.6097   19.2377 C.3     1  UNL1        0.1020
     34 C           4.2915   -3.8466   18.8542 C.3     1  UNL1        0.1484
     35 C           3.1609   -4.6944   19.3571 C.3     1  UNL1        0.0368
     36 C           5.4221   -2.9988   18.3512 C.3     1  UNL1        0.0368
     37 F           5.0485   -5.0835   18.4707 F       1  UNL1       -0.2386
@<TRIPOS>BOND
     1    29    30    1
     2    30    13    1
     3    13    14   ar
     4    14    22    1
     5    22    23   ar
     6    23    24   ar
     7    24    25   ar
     8    25    26    1
     9    25    27   ar
    10    27    28   ar
    11    14    15   ar
    12    15    16   ar
    13    16    17   ar
    14    17     1    1
    15     1     2   ar
    16     2     3   ar
    17     3     4   ar
    18     4     5   ar
    19     5     6   ar
    20     5     7    1
    21     7     8    1
    22     7    31    1
    23    31    33    1
    24    33    34    1
    25    34    35    1
    26    34    36    1
    27    34    37    1
    28     7     9    1
    29     9    10    2
    30     9    11   am
    31    17    18   ar
    32    18    19   ar
    33    19    20   ar
    34    20    21   ar
    35    21    13   ar
    36    28    22   ar
    37    21    16   ar
    38     6     1   ar
    39    11     4    1
    40    31    32    1
    41    11    12    1
@<TRIPOS>MOLECULE
*****
 37 41 0 0 0
SMALL
GASTEIGER

@<TRIPOS>ATOM
      1 C          -0.2968    3.7350   18.0216 C.ar    1  UNL1        0.0383
      2 C           0.5273    4.9882   18.0420 C.ar    1  UNL1        0.1018
      3 N           2.0068    4.9091   18.2767 N.ar    1  UNL1       -0.2292
      4 C           2.6620    3.5770   18.4911 C.ar    1  UNL1        0.1318
      5 C           1.8378    2.3238   18.4707 C.ar    1  UNL1        0.0306
      6 C           0.3584    2.4029   18.2359 C.ar    1  UNL1        0.0033
      7 C           2.7553    1.1617   18.7109 C.3     1  UNL1        0.1338
      8 C           1.5011    0.3483   18.5868 C.3     1  UNL1        0.0298
      9 C           4.1465    1.6966   18.8799 C.2     1  UNL1        0.2437
     10 O           5.3789    0.8818   19.1392 O.2     1  UNL1       -0.2730
     11 N           4.0888    3.1893   18.7440 N.am    1  UNL1       -0.2682
     12 H           4.8532    3.8063   18.8093 H       1  UNL1        0.1563
     13 N          -4.8665    4.1813   20.0469 N.ar    1  UNL1       -0.2967
     14 C          -3.8035    4.1899   21.1052 C.ar    1  UNL1        0.1480
     15 N          -2.4727    4.0535   20.4267 N.ar    1  UNL1       -0.2236
     16 C          -2.7133    3.9605   18.9490 C.ar    1  UNL1        0.1346
     17 C          -1.7763    3.8141   17.7868 C.ar    1  UNL1        0.1051
     18 N          -2.3187    3.7467   16.3900 N.ar    1  UNL1       -0.2223
     19 C          -3.7981    3.8257   16.1553 C.ar    1  UNL1        0.2003
     20 N          -4.7351    3.9721   17.3174 N.ar    1  UNL1       -0.2049
     21 C          -4.1927    4.0395   18.7143 C.ar    1  UNL1        0.1659
     22 C          -4.0313    4.3134   22.5827 C.ar    1  UNL1        0.0725
     23 C          -3.5686    5.5391   23.3131 C.ar    1  UNL1        0.1048
     24 N          -3.7965    5.6625   24.7905 N.ar    1  UNL1       -0.2290
     25 C          -4.4871    4.5602   25.5375 C.ar    1  UNL1        0.1396
     26 C          -4.7149    4.6836   27.0150 C.3     1  UNL1        0.0737
     27 N          -4.9498    3.3345   24.8071 N.ar    1  UNL1       -0.2290
     28 C          -4.7220    3.2111   23.3297 C.ar    1  UNL1        0.1048
     29 C          -6.9444    5.6161   20.6582 C.3     1  UNL1        0.0266
     30 C          -6.3439    4.2946   20.2802 C.3     1  UNL1        0.1090
     31 N           3.4105   -0.1705   18.9253 N.3     1  UNL1       -0.2872
     32 H           4.2959    0.0096   19.3987 H       1  UNL1        0.1240
     33 C           2.7064   -1.2344   19.7141 C.3     1  UNL1        0.1020
     34 C           3.4994   -2.2118   20.5300 C.3     1  UNL1        0.1484
     35 C           3.4430   -1.2784   21.7029 C.3     1  UNL1        0.0368
     36 C           3.5558   -3.1452   19.3572 C.3     1  UNL1        0.0368
     37 F           4.2925   -3.1891   21.3460 F       1  UNL1       -0.2386
@<TRIPOS>BOND
     1    29    30    1
     2    30    13    1
     3    13    14   ar
     4    14    22    1
     5    22    23   ar
     6    23    24   ar
     7    24    25   ar
     8    25    26    1
     9    25    27   ar
    10    27    28   ar
    11    14    15   ar
    12    15    16   ar
    13    16    17   ar
    14    17     1    1
    15     1     2   ar
    16     2     3   ar
    17     3     4   ar
    18     4     5   ar
    19     5     6   ar
    20     5     7    1
    21     7     8    1
    22     7    31    1
    23    31    33    1
    24    33    34    1
    25    34    35    1
    26    34    36    1
    27    34    37    1
    28     7     9    1
    29     9    10    2
    30     9    11   am
    31    17    18   ar
    32    18    19   ar
    33    19    20   ar
    34    20    21   ar
    35    21    13   ar
    36    28    22   ar
    37    21    16   ar
    38     6     1   ar
    39    11     4    1
    40    31    32    1
    41    11    12    1
@<TRIPOS>MOLECULE
*****
 37 41 0 0 0
SMALL
GASTEIGER

@<TRIPOS>ATOM
      1 C         -15.0588   -1.3969   19.0832 C.ar    1  UNL1        0.0383
      2 C         -14.3066   -0.1978   18.5871 C.ar    1  UNL1        0.1018
      3 N         -12.8413   -0.3040   18.2843 N.ar    1  UNL1       -0.2292
      4 C         -12.1282   -1.6095   18.4776 C.ar    1  UNL1        0.1318
      5 C         -12.8805   -2.8087   18.9737 C.ar    1  UNL1        0.0306
      6 C         -14.3458   -2.7024   19.2765 C.ar    1  UNL1        0.0033
      7 C         -11.9169   -3.9544   19.0669 C.3     1  UNL1        0.1338
      8 C         -13.1156   -4.7184   19.5459 C.3     1  UNL1        0.0298
      9 C         -10.5691   -3.4634   18.6284 C.2     1  UNL1        0.2437
     10 O          -9.3114   -4.2785   18.5651 O.2     1  UNL1       -0.2730
     11 N         -10.6997   -2.0141   18.2641 N.am    1  UNL1       -0.2682
     12 H          -9.9751   -1.4309   17.9416 H       1  UNL1        0.1563
     13 N         -18.7312    1.2423   21.2582 N.ar    1  UNL1       -0.2967
     14 C         -17.4023    1.9135   21.4415 C.ar    1  UNL1        0.1480
     15 N         -16.3604    1.0704   20.7682 N.ar    1  UNL1       -0.2236
     16 C         -17.0453   -0.1219   20.1686 C.ar    1  UNL1        0.1346
     17 C         -16.5241   -1.2906   19.3861 C.ar    1  UNL1        0.1051
     18 N         -17.4681   -2.3530   18.9064 N.ar    1  UNL1       -0.2223
     19 C         -18.9333   -2.2467   19.2092 C.ar    1  UNL1        0.2003
     20 N         -19.4545   -1.0780   19.9918 N.ar    1  UNL1       -0.2049
     21 C         -18.5106   -0.0156   20.4715 C.ar    1  UNL1        0.1659
     22 C         -17.1582    3.2017   22.1703 C.ar    1  UNL1        0.0725
     23 C         -17.0164    4.4825   21.4027 C.ar    1  UNL1        0.1048
     24 N         -16.7724    5.7706   22.1315 N.ar    1  UNL1       -0.2290
     25 C         -16.6702    5.7779   23.6280 C.ar    1  UNL1        0.1396
     26 C         -16.4261    7.0661   24.3568 C.3     1  UNL1        0.0737
     27 N         -16.8120    4.4971   24.3957 N.ar    1  UNL1       -0.2290
     28 C         -17.0560    3.2090   23.6668 C.ar    1  UNL1        0.1048
     29 C         -20.4316    1.5131   23.2037 C.3     1  UNL1        0.0266
     30 C         -20.0493    1.7415   21.7714 C.3     1  UNL1        0.1090
     31 N         -11.2039   -5.2599   19.2602 N.3     1  UNL1       -0.2872
     32 H         -10.9948   -5.3366   20.2556 H       1  UNL1        0.1240
     33 C         -11.8668   -6.5435   18.8569 C.3     1  UNL1        0.1020
     34 C         -11.1879   -7.4663   17.8886 C.3     1  UNL1        0.1484
     35 C          -9.9901   -7.5301   18.7893 C.3     1  UNL1        0.0368
     36 C         -12.3858   -7.4025   16.9880 C.3     1  UNL1        0.0368
     37 F         -10.5091   -8.3891   16.9204 F       1  UNL1       -0.2386
@<TRIPOS>BOND
     1    29    30    1
     2    30    13    1
     3    13    14   ar
     4    14    22    1
     5    22    23   ar
     6    23    24   ar
     7    24    25   ar
     8    25    26    1
     9    25    27   ar
    10    27    28   ar
    11    14    15   ar
    12    15    16   ar
    13    16    17   ar
    14    17     1    1
    15     1     2   ar
    16     2     3   ar
    17     3     4   ar
    18     4     5   ar
    19     5     6   ar
    20     5     7    1
    21     7     8    1
    22     7    31    1
    23    31    33    1
    24    33    34    1
    25    34    35    1
    26    34    36    1
    27    34    37    1
    28     7     9    1
    29     9    10    2
    30     9    11   am
    31    17    18   ar
    32    18    19   ar
    33    19    20   ar
    34    20    21   ar
    35    21    13   ar
    36    28    22   ar
    37    21    16   ar
    38     6     1   ar
    39    11     4    1
    40    31    32    1
    41    11    12    1
@<TRIPOS>MOLECULE
*****
 37 41 0 0 0
SMALL
GASTEIGER

@<TRIPOS>ATOM
      1 C           7.9925   -4.3905   22.5027 C.ar    1  UNL1        0.0383
      2 C           9.3389   -3.7887   22.2291 C.ar    1  UNL1        0.1018
      3 N           9.5360   -2.9033   21.0343 N.ar    1  UNL1       -0.2292
      4 C           8.3866   -2.6199   20.1132 C.ar    1  UNL1        0.1318
      5 C           7.0401   -3.2218   20.3868 C.ar    1  UNL1        0.0306
      6 C           6.8431   -4.1071   21.5815 C.ar    1  UNL1        0.0033
      7 C           6.1011   -2.7660   19.3095 C.3     1  UNL1        0.1338
      8 C           5.0947   -3.5903   20.0563 C.3     1  UNL1        0.0298
      9 C           6.8672   -1.8825   18.3701 C.2     1  UNL1        0.2437
     10 O           6.3173   -1.2077   17.1484 O.2     1  UNL1       -0.2730
     11 N           8.2797   -1.7922   18.8668 N.am    1  UNL1       -0.2682
     12 H           9.0086   -1.2797   18.4483 H       1  UNL1        0.1563
     13 N           6.5954   -4.7302   27.3105 N.ar    1  UNL1       -0.2967
     14 C           6.4820   -3.3194   26.8136 C.ar    1  UNL1        0.1480
     15 N           6.9143   -3.2978   25.3774 N.ar    1  UNL1       -0.2236
     16 C           7.2949   -4.6952   24.9868 C.ar    1  UNL1        0.1346
     17 C           7.7954   -5.2758   23.6975 C.ar    1  UNL1        0.1051
     18 N           8.0989   -6.7417   23.6029 N.ar    1  UNL1       -0.2223
     19 C           7.9018   -7.6270   24.7977 C.ar    1  UNL1        0.2003
     20 N           7.4012   -7.0463   26.0870 N.ar    1  UNL1       -0.2049
     21 C           7.0978   -5.5804   26.1815 C.ar    1  UNL1        0.1659
     22 C           6.0178   -2.1378   27.6126 C.ar    1  UNL1        0.0725
     23 C           6.9845   -1.3994   28.4902 C.ar    1  UNL1        0.1048
     24 N           6.5203   -0.2179   29.2892 N.ar    1  UNL1       -0.2290
     25 C           5.0894    0.2253   29.2105 C.ar    1  UNL1        0.1396
     26 C           4.6252    1.4070   30.0095 C.3     1  UNL1        0.0737
     27 N           4.1227   -0.5131   28.3328 N.ar    1  UNL1       -0.2290
     28 C           4.5870   -1.6946   27.5339 C.ar    1  UNL1        0.1048
     29 C           7.3356   -5.8042   29.5575 C.3     1  UNL1        0.0266
     30 C           6.2646   -5.2070   28.6937 C.3     1  UNL1        0.1090
     31 N           4.9517   -2.4826   18.3883 N.3     1  UNL1       -0.2872
     32 H           4.8523   -3.2970   17.7823 H       1  UNL1        0.1240
     33 C           3.5921   -2.1940   18.9523 C.3     1  UNL1        0.1020
     34 C           3.0837   -0.7836   18.9998 C.3     1  UNL1        0.1484
     35 C           3.3612   -0.6342   17.5333 C.3     1  UNL1        0.0368
     36 C           2.8063   -0.9329   20.4663 C.3     1  UNL1        0.0368
     37 F           2.5754    0.6268   19.0473 F       1  UNL1       -0.2386
@<TRIPOS>BOND
     1    29    30    1
     2    30    13    1
     3    13    14   ar
     4    14    22    1
     5    22    23   ar
     6    23    24   ar
     7    24    25   ar
     8    25    26    1
     9    25    27   ar
    10    27    28   ar
    11    14    15   ar
    12    15    16   ar
    13    16    17   ar
    14    17     1    1
    15     1     2   ar
    16     2     3   ar
    17     3     4   ar
    18     4     5   ar
    19     5     6   ar
    20     5     7    1
    21     7     8    1
    22     7    31    1
    23    31    33    1
    24    33    34    1
    25    34    35    1
    26    34    36    1
    27    34    37    1
    28     7     9    1
    29     9    10    2
    30     9    11   am
    31    17    18   ar
    32    18    19   ar
    33    19    20   ar
    34    20    21   ar
    35    21    13   ar
    36    28    22   ar
    37    21    16   ar
    38     6     1   ar
    39    11     4    1
    40    31    32    1
    41    11    12    1
@<TRIPOS>MOLECULE
*****
 37 41 0 0 0
SMALL
GASTEIGER

@<TRIPOS>ATOM
      1 C           5.3204   -2.8997   21.9737 C.ar    1  UNL1        0.0383
      2 C           4.7852   -2.5787   20.6097 C.ar    1  UNL1        0.1018
      3 N           3.6679   -1.5897   20.4560 N.ar    1  UNL1       -0.2292
      4 C           3.0858   -0.9217   21.6664 C.ar    1  UNL1        0.1318
      5 C           3.6210   -1.2428   23.0305 C.ar    1  UNL1        0.0306
      6 C           4.7383   -2.2318   23.1841 C.ar    1  UNL1        0.0033
      7 C           2.8532   -0.4322   24.0322 C.3     1  UNL1        0.1338
      8 C           3.7412   -1.1146   25.0301 C.3     1  UNL1        0.0298
      9 C           1.8436    0.3898   23.2872 C.2     1  UNL1        0.2437
     10 O           0.8624    1.3465   23.8974 O.2     1  UNL1       -0.2730
     11 N           1.9873    0.0873   21.8251 N.am    1  UNL1       -0.2682
     12 H           1.4543    0.4817   21.0974 H       1  UNL1        0.1563
     13 N           8.2661   -5.4741   25.1167 N.ar    1  UNL1       -0.2967
     14 C           7.2999   -4.6081   25.8693 C.ar    1  UNL1        0.1480
     15 N           6.4583   -3.8739   24.8680 N.ar    1  UNL1       -0.2236
     16 C           6.9045   -4.2861   23.4964 C.ar    1  UNL1        0.1346
     17 C           6.4377   -3.8887   22.1274 C.ar    1  UNL1        0.1051
     18 N           7.0881   -4.4803   20.9121 N.ar    1  UNL1       -0.2223
     19 C           8.2054   -5.4692   21.0659 C.ar    1  UNL1        0.2003
     20 N           8.6722   -5.8666   22.4349 N.ar    1  UNL1       -0.2049
     21 C           8.0217   -5.2751   23.6501 C.ar    1  UNL1        0.1659
     22 C           7.1938   -4.4960   27.3614 C.ar    1  UNL1        0.0725
     23 C           7.5946   -3.2242   28.0483 C.ar    1  UNL1        0.1048
     24 N           7.4885   -3.1122   29.5404 N.ar    1  UNL1       -0.2290
     25 C           6.9817   -4.2719   30.3454 C.ar    1  UNL1        0.1396
     26 C           6.8757   -4.1598   31.8375 C.3     1  UNL1        0.0737
     27 N           6.5810   -5.5437   29.6585 N.ar    1  UNL1       -0.2290
     28 C           6.6870   -5.6557   28.1665 C.ar    1  UNL1        0.1048
     29 C           9.0759   -7.8637   25.7363 C.3     1  UNL1        0.0266
     30 C           9.2959   -6.3800   25.7239 C.3     1  UNL1        0.1090
     31 N           2.2711    0.2358   25.2425 N.3     1  UNL1       -0.2872
     32 H           1.3221   -0.1226   25.3488 H       1  UNL1        0.1240
     33 C           2.9417    0.0879   26.5761 C.3     1  UNL1        0.1020
     34 C           2.3313    0.7121   27.7958 C.3     1  UNL1        0.1484
     35 C           2.2630    2.0319   27.0863 C.3     1  UNL1        0.0368
     36 C           2.3995   -0.6077   28.5054 C.3     1  UNL1        0.0368
     37 F           1.7209    1.3363   29.0156 F       1  UNL1       -0.2386
@<TRIPOS>BOND
     1    29    30    1
     2    30    13    1
     3    13    14   ar
     4    14    22    1
     5    22    23   ar
     6    23    24   ar
     7    24    25   ar
     8    25    26    1
     9    25    27   ar
    10    27    28   ar
    11    14    15   ar
    12    15    16   ar
    13    16    17   ar
    14    17     1    1
    15     1     2   ar
    16     2     3   ar
    17     3     4   ar
    18     4     5   ar
    19     5     6   ar
    20     5     7    1
    21     7     8    1
    22     7    31    1
    23    31    33    1
    24    33    34    1
    25    34    35    1
    26    34    36    1
    27    34    37    1
    28     7     9    1
    29     9    10    2
    30     9    11   am
    31    17    18   ar
    32    18    19   ar
    33    19    20   ar
    34    20    21   ar
    35    21    13   ar
    36    28    22   ar
    37    21    16   ar
    38     6     1   ar
    39    11     4    1
    40    31    32    1
    41    11    12    1
@<TRIPOS>MOLECULE
*****
 37 41 0 0 0
SMALL
GASTEIGER

@<TRIPOS>ATOM
      1 C          -0.9074    3.0788   20.2288 C.ar    1  UNL1        0.0383
      2 C          -0.2886    4.2586   19.5396 C.ar    1  UNL1        0.1018
      3 N           1.0311    4.1124   18.8416 N.ar    1  UNL1       -0.2292
      4 C           1.7320    2.7862   18.8330 C.ar    1  UNL1        0.1318
      5 C           1.1132    1.6064   19.5222 C.ar    1  UNL1        0.0306
      6 C          -0.2065    1.7526   20.2201 C.ar    1  UNL1        0.0033
      7 C           2.0315    0.4333   19.3472 C.3     1  UNL1        0.1338
      8 C           0.9917   -0.2988   20.1428 C.3     1  UNL1        0.0298
      9 C           3.2178    0.8881   18.5498 C.2     1  UNL1        0.2437
     10 O           4.3844    0.0380   18.1419 O.2     1  UNL1       -0.2730
     11 N           3.0327    2.3423   18.2320 N.am    1  UNL1       -0.2682
     12 H           3.6555    2.9064   17.7191 H       1  UNL1        0.1563
     13 N          -3.3395    3.4958   24.5983 N.ar    1  UNL1       -0.2967
     14 C          -1.8595    3.3795   24.8130 C.ar    1  UNL1        0.1480
     15 N          -1.2043    3.2592   23.4691 N.ar    1  UNL1       -0.2236
     16 C          -2.2794    3.3011   22.4238 C.ar    1  UNL1        0.1346
     17 C          -2.2271    3.2250   20.9267 C.ar    1  UNL1        0.1051
     18 N          -3.4945    3.2952   20.1274 N.ar    1  UNL1       -0.2223
     19 C          -4.8141    3.4414   20.8254 C.ar    1  UNL1        0.2003
     20 N          -4.8664    3.5175   22.3225 N.ar    1  UNL1       -0.2049
     21 C          -3.5990    3.4474   23.1218 C.ar    1  UNL1        0.1659
     22 C          -1.1580    3.3830   26.1389 C.ar    1  UNL1        0.0725
     23 C          -0.7946    2.0858   26.7985 C.ar    1  UNL1        0.1048
     24 N          -0.0931    2.0892   28.1243 N.ar    1  UNL1       -0.2290
     25 C           0.2451    3.3899   28.7905 C.ar    1  UNL1        0.1396
     26 C           0.9466    3.3934   30.1164 C.3     1  UNL1        0.0737
     27 N          -0.1183    4.6872   28.1309 N.ar    1  UNL1       -0.2290
     28 C          -0.8198    4.6837   26.8051 C.ar    1  UNL1        0.1048
     29 C          -5.0775    4.9476   25.8719 C.3     1  UNL1        0.0266
     30 C          -4.3778    3.6360   25.6718 C.3     1  UNL1        0.1090
     31 N           2.7324   -0.8929   19.3385 N.3     1  UNL1       -0.2872
     32 H           3.6704   -0.7277   18.9736 H       1  UNL1        0.1240
     33 C           2.8939   -1.6642   20.6148 C.3     1  UNL1        0.1020
     34 C           3.9108   -2.7632   20.7034 C.3     1  UNL1        0.1484
     35 C           4.2858   -2.3052   22.0817 C.3     1  UNL1        0.0368
     36 C           3.5359   -3.2212   19.3251 C.3     1  UNL1        0.0368
     37 F           4.9278   -3.8623   20.7920 F       1  UNL1       -0.2386
@<TRIPOS>BOND
     1    29    30    1
     2    30    13    1
     3    13    14   ar
     4    14    22    1
     5    22    23   ar
     6    23    24   ar
     7    24    25   ar
     8    25    26    1
     9    25    27   ar
    10    27    28   ar
    11    14    15   ar
    12    15    16   ar
    13    16    17   ar
    14    17     1    1
    15     1     2   ar
    16     2     3   ar
    17     3     4   ar
    18     4     5   ar
    19     5     6   ar
    20     5     7    1
    21     7     8    1
    22     7    31    1
    23    31    33    1
    24    33    34    1
    25    34    35    1
    26    34    36    1
    27    34    37    1
    28     7     9    1
    29     9    10    2
    30     9    11   am
    31    17    18   ar
    32    18    19   ar
    33    19    20   ar
    34    20    21   ar
    35    21    13   ar
    36    28    22   ar
    37    21    16   ar
    38     6     1   ar
    39    11     4    1
    40    31    32    1
    41    11    12    1
@<TRIPOS>MOLECULE
*****
 37 41 0 0 0
SMALL
GASTEIGER

@<TRIPOS>ATOM
      1 C           7.6160    0.5843   35.0358 C.ar    1  UNL1        0.0383
      2 C           8.5955    1.6976   35.2618 C.ar    1  UNL1        0.1018
      3 N           8.3746    2.6761   36.3771 N.ar    1  UNL1       -0.2292
      4 C           7.1742    2.5412   37.2664 C.ar    1  UNL1        0.1318
      5 C           6.1947    1.4278   37.0404 C.ar    1  UNL1        0.0306
      6 C           6.4156    0.4494   35.9251 C.ar    1  UNL1        0.0033
      7 C           5.1117    1.5469   38.0713 C.3     1  UNL1        0.1338
      8 C           4.5506    0.3318   37.3941 C.3     1  UNL1        0.0298
      9 C           5.4218    2.7339   38.9344 C.2     1  UNL1        0.2437
     10 O           4.6012    3.2209   40.0919 O.2     1  UNL1       -0.2730
     11 N           6.6965    3.3484   38.4370 N.am    1  UNL1       -0.2682
     12 H           7.1415    4.1421   38.8128 H       1  UNL1        0.1563
     13 N           5.9627   -1.2862   30.6826 N.ar    1  UNL1       -0.2967
     14 C           5.0486   -0.2107   31.1902 C.ar    1  UNL1        0.1480
     15 N           5.6054    0.2969   32.4872 N.ar    1  UNL1       -0.2236
     16 C           6.8637   -0.4650   32.7812 C.ar    1  UNL1        0.1346
     17 C           7.8369   -0.3941   33.9205 C.ar    1  UNL1        0.1051
     18 N           9.0309   -1.3017   33.9444 N.ar    1  UNL1       -0.2223
     19 C           9.2517   -2.2801   32.8291 C.ar    1  UNL1        0.2003
     20 N           8.2785   -2.3509   31.6899 N.ar    1  UNL1       -0.2049
     21 C           7.0845   -1.4434   31.6659 C.ar    1  UNL1        0.1659
     22 C           3.7973    0.2724   30.5186 C.ar    1  UNL1        0.0725
     23 C           3.8046    1.5670   29.7610 C.ar    1  UNL1        0.1048
     24 N           2.5534    2.0500   29.0894 N.ar    1  UNL1       -0.2290
     25 C           1.2948    1.2385   29.1755 C.ar    1  UNL1        0.1396
     26 C           0.0435    1.7216   28.5039 C.3     1  UNL1        0.0737
     27 N           1.2875   -0.0560   29.9331 N.ar    1  UNL1       -0.2290
     28 C           2.5387   -0.5391   30.6047 C.ar    1  UNL1        0.1048
     29 C           6.1347   -1.4447   28.0951 C.3     1  UNL1        0.0266
     30 C           5.7861   -2.0675   29.4144 C.3     1  UNL1        0.1090
     31 N           3.9113    1.4120   38.9606 N.3     1  UNL1       -0.2872
     32 H           3.7507    2.3281   39.3794 H       1  UNL1        0.1240
     33 C           2.6001    0.9620   38.3876 C.3     1  UNL1        0.1020
     34 C           1.3160    1.5252   38.9204 C.3     1  UNL1        0.1484
     35 C           1.0105    0.2101   39.5741 C.3     1  UNL1        0.0368
     36 C           1.6215    2.8402   38.2666 C.3     1  UNL1        0.0368
     37 F           0.0318    2.0883   39.4531 F       1  UNL1       -0.2386
@<TRIPOS>BOND
     1    29    30    1
     2    30    13    1
     3    13    14   ar
     4    14    22    1
     5    22    23   ar
     6    23    24   ar
     7    24    25   ar
     8    25    26    1
     9    25    27   ar
    10    27    28   ar
    11    14    15   ar
    12    15    16   ar
    13    16    17   ar
    14    17     1    1
    15     1     2   ar
    16     2     3   ar
    17     3     4   ar
    18     4     5   ar
    19     5     6   ar
    20     5     7    1
    21     7     8    1
    22     7    31    1
    23    31    33    1
    24    33    34    1
    25    34    35    1
    26    34    36    1
    27    34    37    1
    28     7     9    1
    29     9    10    2
    30     9    11   am
    31    17    18   ar
    32    18    19   ar
    33    19    20   ar
    34    20    21   ar
    35    21    13   ar
    36    28    22   ar
    37    21    16   ar
    38     6     1   ar
    39    11     4    1
    40    31    32    1
    41    11    12    1
@<TRIPOS>MOLECULE
*****
 37 41 0 0 0
SMALL
GASTEIGER

@<TRIPOS>ATOM
      1 C           1.4195    2.2979   22.1840 C.ar    1  UNL1        0.0383
      2 C           1.8343    3.6009   21.5677 C.ar    1  UNL1        0.1018
      3 N           2.6199    3.6098   20.2898 N.ar    1  UNL1       -0.2292
      4 C           2.9906    2.3156   19.6283 C.ar    1  UNL1        0.1318
      5 C           2.5757    1.0125   20.2447 C.ar    1  UNL1        0.0306
      6 C           1.7902    1.0036   21.5226 C.ar    1  UNL1        0.0033
      7 C           3.0824   -0.0960   19.3703 C.3     1  UNL1        0.1338
      8 C           2.4320   -0.9846   20.3888 C.3     1  UNL1        0.0298
      9 C           3.8104    0.5221   18.2135 C.2     1  UNL1        0.2437
     10 O           4.4779   -0.2201   17.0938 O.2     1  UNL1       -0.2730
     11 N           3.7536    2.0125   18.3730 N.am    1  UNL1       -0.2682
     12 H           4.1479    2.6753   17.7612 H       1  UNL1        0.1563
     13 N           1.2862    1.0363   27.0393 N.ar    1  UNL1       -0.2967
     14 C           2.5923    0.6435   26.4149 C.ar    1  UNL1        0.1480
     15 N           2.5572    1.0507   24.9717 N.ar    1  UNL1       -0.2236
     16 C           1.2293    1.6952   24.7041 C.ar    1  UNL1        0.1346
     17 C           0.6340    2.2890   23.4619 C.ar    1  UNL1        0.1051
     18 N          -0.7468    2.8739   23.4976 N.ar    1  UNL1       -0.2223
     19 C          -1.5322    2.8650   24.7754 C.ar    1  UNL1        0.2003
     20 N          -0.9369    2.2712   26.0176 N.ar    1  UNL1       -0.2049
     21 C           0.4438    1.6863   25.9819 C.ar    1  UNL1        0.1659
     22 C           3.7332   -0.0371   27.1115 C.ar    1  UNL1        0.0725
     23 C           4.7024    0.7679   27.9256 C.ar    1  UNL1        0.1048
     24 N           5.8432    0.0873   28.6221 N.ar    1  UNL1       -0.2290
     25 C           6.0149   -1.3982   28.5046 C.ar    1  UNL1        0.1396
     26 C           7.1559   -2.0787   29.2012 C.3     1  UNL1        0.0737
     27 N           5.0458   -2.2031   27.6906 N.ar    1  UNL1       -0.2290
     28 C           3.9049   -1.5226   26.9940 C.ar    1  UNL1        0.1048
     29 C          -0.2629   -0.0810   28.8005 C.3     1  UNL1        0.0266
     30 C           0.8917    0.8176   28.4698 C.3     1  UNL1        0.1090
     31 N           3.4531   -1.3902   18.7088 N.3     1  UNL1       -0.2872
     32 H           4.3035   -1.2144   18.1738 H       1  UNL1        0.1240
     33 C           3.7099   -2.6113   19.5412 C.3     1  UNL1        0.1020
     34 C           4.3430   -3.8218   18.9216 C.3     1  UNL1        0.1484
     35 C           3.0810   -4.5994   19.1513 C.3     1  UNL1        0.0368
     36 C           5.6050   -3.0442   18.6919 C.3     1  UNL1        0.0368
     37 F           4.9760   -5.0323   18.3020 F       1  UNL1       -0.2386
@<TRIPOS>BOND
     1    29    30    1
     2    30    13    1
     3    13    14   ar
     4    14    22    1
     5    22    23   ar
     6    23    24   ar
     7    24    25   ar
     8    25    26    1
     9    25    27   ar
    10    27    28   ar
    11    14    15   ar
    12    15    16   ar
    13    16    17   ar
    14    17     1    1
    15     1     2   ar
    16     2     3   ar
    17     3     4   ar
    18     4     5   ar
    19     5     6   ar
    20     5     7    1
    21     7     8    1
    22     7    31    1
    23    31    33    1
    24    33    34    1
    25    34    35    1
    26    34    36    1
    27    34    37    1
    28     7     9    1
    29     9    10    2
    30     9    11   am
    31    17    18   ar
    32    18    19   ar
    33    19    20   ar
    34    20    21   ar
    35    21    13   ar
    36    28    22   ar
    37    21    16   ar
    38     6     1   ar
    39    11     4    1
    40    31    32    1
    41    11    12    1
@<TRIPOS>MOLECULE
*****
 37 41 0 0 0
SMALL
GASTEIGER

@<TRIPOS>ATOM
      1 C           1.7405    2.3286   21.6120 C.ar    1  UNL1        0.0383
      2 C           2.2060    3.5272   20.8397 C.ar    1  UNL1        0.1018
      3 N           2.9474    3.3458   19.5483 N.ar    1  UNL1       -0.2292
      4 C           3.2232    1.9657   19.0294 C.ar    1  UNL1        0.1318
      5 C           2.7576    0.7670   19.8018 C.ar    1  UNL1        0.0306
      6 C           2.0163    0.9485   21.0931 C.ar    1  UNL1        0.0033
      7 C           3.1722   -0.4608   19.0464 C.3     1  UNL1        0.1338
      8 C           2.5081   -1.1891   20.1771 C.3     1  UNL1        0.0298
      9 C           3.8940   -0.0210   17.8072 C.2     1  UNL1        0.2437
     10 O           4.4813   -0.9226   16.7620 O.2     1  UNL1       -0.2730
     11 N           3.9255    1.4787   17.7967 N.am    1  UNL1       -0.2682
     12 H           4.3352    2.0440   17.1026 H       1  UNL1        0.1563
     13 N          -2.5459    3.6548   23.8593 N.ar    1  UNL1       -0.2967
     14 C          -2.6591    3.7721   22.3682 C.ar    1  UNL1        0.1480
     15 N          -1.3464    3.3612   21.7699 N.ar    1  UNL1       -0.2236
     16 C          -0.4219    2.9899   22.8913 C.ar    1  UNL1        0.1346
     17 C           0.9992    2.5100   22.9034 C.ar    1  UNL1        0.1051
     18 N           1.6789    2.2115   24.2068 N.ar    1  UNL1       -0.2223
     19 C           0.9376    2.3929   25.4980 C.ar    1  UNL1        0.2003
     20 N          -0.4835    2.8728   25.4860 N.ar    1  UNL1       -0.2049
     21 C          -1.1633    3.1713   24.1826 C.ar    1  UNL1        0.1659
     22 C          -3.8721    4.2216   21.6087 C.ar    1  UNL1        0.0725
     23 C          -4.2268    5.6780   21.5557 C.ar    1  UNL1        0.1048
     24 N          -5.4397    6.1274   20.7962 N.ar    1  UNL1       -0.2290
     25 C          -6.2980    5.1203   20.0897 C.ar    1  UNL1        0.1396
     26 C          -7.5110    5.5697   19.3303 C.3     1  UNL1        0.0737
     27 N          -5.9433    3.6638   20.1427 N.ar    1  UNL1       -0.2290
     28 C          -4.7304    3.2144   20.9022 C.ar    1  UNL1        0.1048
     29 C          -4.9550    3.2778   24.7562 C.3     1  UNL1        0.0266
     30 C          -3.6258    3.9662   24.8527 C.3     1  UNL1        0.1090
     31 N           3.4480   -1.8408   18.5274 N.3     1  UNL1       -0.2872
     32 H           4.2663   -1.7699   17.9226 H       1  UNL1        0.1240
     33 C           3.7142   -2.9633   19.4861 C.3     1  UNL1        0.1020
     34 C           4.3541   -4.2296   18.9993 C.3     1  UNL1        0.1484
     35 C           5.5476   -3.4482   18.5355 C.3     1  UNL1        0.0368
     36 C           3.1607   -5.0110   19.4630 C.3     1  UNL1        0.0368
     37 F           4.9941   -5.4959   18.5125 F       1  UNL1       -0.2386
@<TRIPOS>BOND
     1    29    30    1
     2    30    13    1
     3    13    14   ar
     4    14    22    1
     5    22    23   ar
     6    23    24   ar
     7    24    25   ar
     8    25    26    1
     9    25    27   ar
    10    27    28   ar
    11    14    15   ar
    12    15    16   ar
    13    16    17   ar
    14    17     1    1
    15     1     2   ar
    16     2     3   ar
    17     3     4   ar
    18     4     5   ar
    19     5     6   ar
    20     5     7    1
    21     7     8    1
    22     7    31    1
    23    31    33    1
    24    33    34    1
    25    34    35    1
    26    34    36    1
    27    34    37    1
    28     7     9    1
    29     9    10    2
    30     9    11   am
    31    17    18   ar
    32    18    19   ar
    33    19    20   ar
    34    20    21   ar
    35    21    13   ar
    36    28    22   ar
    37    21    16   ar
    38     6     1   ar
    39    11     4    1
    40    31    32    1
    41    11    12    1
