@<TRIPOS>MOLECULE
*****
 37 42 0 0 0
SMALL
GASTEIGER

@<TRIPOS>ATOM
      1 C          -1.2463    3.2219   22.0336 C.ar    1  UNL1        0.1515
      2 N          -1.9024    3.7815   23.2609 N.ar    1  UNL1       -0.2248
      3 C          -1.2375    3.1735   24.4602 C.ar    1  UNL1        0.1173
      4 C          -1.4658    3.3508   25.9320 C.ar    1  UNL1        0.0238
      5 C          -0.6271    2.5926   26.9177 C.ar    1  UNL1        0.0208
      6 C           0.4401    1.6573   26.4316 C.ar    1  UNL1        0.0830
      7 N           0.6684    1.4801   24.9597 N.ar    1  UNL1       -0.2264
      8 C          -0.1703    2.2382   23.9740 C.ar    1  UNL1        0.1665
      9 N          -0.1758    2.2681   22.4743 N.ar    1  UNL1       -0.2754
     10 N          -4.0410    2.7784   21.0372 N.pl3   1  UNL1       -0.3425
     11 C          -2.9960    3.3355   20.1165 C.ar    1  UNL1        0.1282
     12 N          -3.3485    3.6709   18.6976 N.ar    1  UNL1       -0.2295
     13 C          -2.3036    4.2281   17.7768 C.ar    1  UNL1        0.1003
     14 C          -0.9063    4.4498   18.2750 C.ar    1  UNL1        0.0209
     15 C          -0.5538    4.1145   19.6940 C.ar    1  UNL1        0.0074
     16 C          -1.5987    3.5573   20.6147 C.ar    1  UNL1        0.0657
     17 H          -4.9582    2.6328   20.7102 H       1  UNL1        0.1437
     18 H          -3.8097    2.5582   21.9685 H       1  UNL1        0.1437
     19 C           1.2789    0.8992   27.4174 C.ar    1  UNL1        0.0177
     20 C           0.7309    0.5747   28.7754 C.ar    1  UNL1        0.0015
     21 C           1.5697   -0.1834   29.7612 C.ar    1  UNL1        0.0000
     22 C           2.9565   -0.6170   29.3889 C.ar    1  UNL1        0.0000
     23 C           3.5045   -0.2926   28.0307 C.ar    1  UNL1        0.0000
     24 C           2.6657    0.4655   27.0450 C.ar    1  UNL1        0.0015
     25 C           0.7302    1.4822   21.5735 C.ar    1  UNL1        0.0667
     26 C           2.1706    1.8754   21.4301 C.ar    1  UNL1        0.0173
     27 C           3.0766    1.0895   20.5293 C.ar    1  UNL1       -0.0015
     28 C           2.5422   -0.0898   19.7719 C.ar    1  UNL1       -0.0097
     29 C           1.1018   -0.4831   19.9152 C.ar    1  UNL1       -0.0015
     30 C           0.1958    0.3028   20.8160 C.ar    1  UNL1        0.0173
     31 C           3.4482   -0.8757   18.8711 C.3     1  UNL1        0.0581
     32 N           3.7556   -1.8148   19.9997 N.3     1  UNL1       -0.3200
     33 C           3.1407    0.0633   17.7425 C.3     1  UNL1        0.0185
     34 C           4.0468   -0.7227   16.8417 C.3     1  UNL1        0.0033
     35 C           4.3542   -1.6617   17.9704 C.3     1  UNL1        0.0185
     36 H           3.2445   -1.5237   20.8330 H       1  UNL1        0.1191
     37 H           4.7572   -1.7986   20.1923 H       1  UNL1        0.1191
@<TRIPOS>BOND
     1    10    11    1
     2    11    12   ar
     3    12    13   ar
     4    13    14   ar
     5    14    15   ar
     6    15    16   ar
     7    16     1    1
     8     1     2   ar
     9     2     3   ar
    10     3     4   ar
    11     4     5   ar
    12     5     6   ar
    13     6    19    1
    14    19    20   ar
    15    20    21   ar
    16    21    22   ar
    17    22    23   ar
    18    23    24   ar
    19     6     7   ar
    20     7     8   ar
    21     8     9   ar
    22     9    25    1
    23    25    26   ar
    24    26    27   ar
    25    27    28   ar
    26    28    31    1
    27    31    32    1
    28    31    33    1
    29    33    34    1
    30    34    35    1
    31    28    29   ar
    32    29    30   ar
    33    16    11   ar
    34     9     1   ar
    35    30    25   ar
    36     8     3   ar
    37    35    31    1
    38    24    19   ar
    39    10    17    1
    40    10    18    1
    41    32    36    1
    42    32    37    1
@<TRIPOS>MOLECULE
*****
 37 42 0 0 0
SMALL
GASTEIGER

@<TRIPOS>ATOM
      1 C           6.0348   -0.7262   32.4231 C.ar    1  UNL1        0.1515
      2 N           6.8479   -0.8134   33.6805 N.ar    1  UNL1       -0.2248
      3 C           6.0130   -0.2867   34.8099 C.ar    1  UNL1        0.1173
      4 C           6.2913   -0.1296   36.2755 C.ar    1  UNL1        0.0238
      5 C           5.2405    0.4402   37.1815 C.ar    1  UNL1        0.0208
      6 C           3.9113    0.8529   36.6221 C.ar    1  UNL1        0.0830
      7 N           3.6330    0.6958   35.1565 N.ar    1  UNL1       -0.2264
      8 C           4.6838    0.1260   34.2505 C.ar    1  UNL1        0.1665
      9 N           4.6973   -0.1456   32.7753 N.ar    1  UNL1       -0.2754
     10 N           6.1501   -3.6379   31.7099 N.pl3   1  UNL1       -0.3425
     11 C           6.5385   -2.6017   30.6972 C.ar    1  UNL1        0.1282
     12 N           6.9845   -3.0214   29.3279 N.ar    1  UNL1       -0.2295
     13 C           7.3728   -1.9853   28.3152 C.ar    1  UNL1        0.1003
     14 C           7.3152   -0.5294   28.6718 C.ar    1  UNL1        0.0209
     15 C           6.8692   -0.1097   30.0411 C.ar    1  UNL1        0.0074
     16 C           6.4808   -1.1459   31.0538 C.ar    1  UNL1        0.0657
     17 H           6.1879   -4.5934   31.4758 H       1  UNL1        0.1437
     18 H           5.8573   -3.3625   32.6086 H       1  UNL1        0.1437
     19 C           2.8604    1.4228   37.5282 C.ar    1  UNL1        0.0177
     20 C           2.3975    2.8375   37.3433 C.ar    1  UNL1        0.0015
     21 C           1.3466    3.4073   38.2494 C.ar    1  UNL1        0.0000
     22 C           0.7587    2.5623   39.3405 C.ar    1  UNL1        0.0000
     23 C           1.2217    1.1475   39.5254 C.ar    1  UNL1        0.0000
     24 C           2.2725    0.5778   38.6193 C.ar    1  UNL1        0.0015
     25 C           3.5710    0.1172   31.8201 C.ar    1  UNL1        0.0667
     26 C           3.2148   -0.9043   30.7812 C.ar    1  UNL1        0.0173
     27 C           2.0885   -0.6415   29.8260 C.ar    1  UNL1       -0.0015
     28 C           1.3183    0.6429   29.9098 C.ar    1  UNL1       -0.0097
     29 C           1.6745    1.6645   30.9488 C.ar    1  UNL1       -0.0015
     30 C           2.8008    1.4017   31.9040 C.ar    1  UNL1        0.0173
     31 C           0.1920    0.9058   28.9546 C.3     1  UNL1        0.0581
     32 N          -0.3749   -0.4513   29.2499 N.3     1  UNL1       -0.3200
     33 C           0.7590    2.2627   28.6594 C.3     1  UNL1        0.0185
     34 C          -0.3673    2.5255   27.7042 C.3     1  UNL1        0.0033
     35 C          -0.9343    1.1685   27.9995 C.3     1  UNL1        0.0185
     36 H           0.2187   -0.9273   29.9292 H       1  UNL1        0.1191
     37 H          -0.4134   -0.9982   28.3898 H       1  UNL1        0.1191
@<TRIPOS>BOND
     1    10    11    1
     2    11    12   ar
     3    12    13   ar
     4    13    14   ar
     5    14    15   ar
     6    15    16   ar
     7    16     1    1
     8     1     2   ar
     9     2     3   ar
    10     3     4   ar
    11     4     5   ar
    12     5     6   ar
    13     6    19    1
    14    19    20   ar
    15    20    21   ar
    16    21    22   ar
    17    22    23   ar
    18    23    24   ar
    19     6     7   ar
    20     7     8   ar
    21     8     9   ar
    22     9    25    1
    23    25    26   ar
    24    26    27   ar
    25    27    28   ar
    26    28    31    1
    27    31    32    1
    28    31    33    1
    29    33    34    1
    30    34    35    1
    31    28    29   ar
    32    29    30   ar
    33    16    11   ar
    34     9     1   ar
    35    30    25   ar
    36     8     3   ar
    37    35    31    1
    38    24    19   ar
    39    10    17    1
    40    10    18    1
    41    32    36    1
    42    32    37    1
@<TRIPOS>MOLECULE
*****
 37 42 0 0 0
SMALL
GASTEIGER

@<TRIPOS>ATOM
      1 C           5.2042    0.9393   34.2514 C.ar    1  UNL1        0.1515
      2 N           4.3823    2.1754   34.4670 N.ar    1  UNL1       -0.2248
      3 C           3.3922    2.2754   33.3446 C.ar    1  UNL1        0.1173
      4 C           2.3266    3.2841   33.0331 C.ar    1  UNL1        0.0238
      5 C           1.4710    3.1184   31.8122 C.ar    1  UNL1        0.0208
      6 C           1.6810    1.9441   30.9029 C.ar    1  UNL1        0.0830
      7 N           2.7466    0.9354   31.2144 N.ar    1  UNL1       -0.2264
      8 C           3.6022    1.1011   32.4353 C.ar    1  UNL1        0.1665
      9 N           4.7221    0.2754   32.9957 N.ar    1  UNL1       -0.2754
     10 N           4.5859   -0.1065   36.9944 N.pl3   1  UNL1       -0.3425
     11 C           6.0043   -0.0703   36.5076 C.ar    1  UNL1        0.1282
     12 N           7.1136   -0.5569   37.3923 N.ar    1  UNL1       -0.2295
     13 C           8.5319   -0.5207   36.9055 C.ar    1  UNL1        0.1003
     14 C           8.8410    0.0022   35.5340 C.ar    1  UNL1        0.0209
     15 C           7.7317    0.4889   34.6493 C.ar    1  UNL1        0.0074
     16 C           6.3134    0.4526   35.1361 C.ar    1  UNL1        0.0657
     17 H           4.3831   -0.4497   37.8946 H       1  UNL1        0.1437
     18 H           3.8579    0.2129   36.4137 H       1  UNL1        0.1437
     19 C           0.8253    1.7784   29.6821 C.ar    1  UNL1        0.0177
     20 C           0.1379    0.4713   29.4197 C.ar    1  UNL1        0.0015
     21 C          -0.7178    0.3056   28.1989 C.ar    1  UNL1        0.0000
     22 C          -0.8860    1.4471   27.2404 C.ar    1  UNL1        0.0000
     23 C          -0.1985    2.7543   27.5028 C.ar    1  UNL1        0.0000
     24 C           0.6571    2.9199   28.7236 C.ar    1  UNL1        0.0015
     25 C           5.2645   -0.9919   32.4043 C.ar    1  UNL1        0.0667
     26 C           5.9124   -0.9710   31.0516 C.ar    1  UNL1        0.0173
     27 C           6.4549   -2.2383   30.4602 C.ar    1  UNL1       -0.0015
     28 C           6.3495   -3.5265   31.2215 C.ar    1  UNL1       -0.0097
     29 C           5.7016   -3.5474   32.5742 C.ar    1  UNL1       -0.0015
     30 C           5.1592   -2.2801   33.1656 C.ar    1  UNL1        0.0173
     31 C           6.8920   -4.7937   30.6300 C.3     1  UNL1        0.0581
     32 N           6.6891   -5.4926   31.9417 N.3     1  UNL1       -0.3200
     33 C           7.0948   -4.0947   29.3184 C.3     1  UNL1        0.0185
     34 C           7.6373   -5.3621   28.7270 C.3     1  UNL1        0.0033
     35 C           7.4344   -6.0610   30.0387 C.3     1  UNL1        0.0185
     36 H           6.2954   -4.8385   32.6181 H       1  UNL1        0.1191
     37 H           7.5853   -5.8383   32.2849 H       1  UNL1        0.1191
@<TRIPOS>BOND
     1    10    11    1
     2    11    12   ar
     3    12    13   ar
     4    13    14   ar
     5    14    15   ar
     6    15    16   ar
     7    16     1    1
     8     1     2   ar
     9     2     3   ar
    10     3     4   ar
    11     4     5   ar
    12     5     6   ar
    13     6    19    1
    14    19    20   ar
    15    20    21   ar
    16    21    22   ar
    17    22    23   ar
    18    23    24   ar
    19     6     7   ar
    20     7     8   ar
    21     8     9   ar
    22     9    25    1
    23    25    26   ar
    24    26    27   ar
    25    27    28   ar
    26    28    31    1
    27    31    32    1
    28    31    33    1
    29    33    34    1
    30    34    35    1
    31    28    29   ar
    32    29    30   ar
    33    16    11   ar
    34     9     1   ar
    35    30    25   ar
    36     8     3   ar
    37    35    31    1
    38    24    19   ar
    39    10    17    1
    40    10    18    1
    41    32    36    1
    42    32    37    1
@<TRIPOS>MOLECULE
*****
 37 42 0 0 0
SMALL
GASTEIGER

@<TRIPOS>ATOM
      1 C           3.1377    0.6156   28.0295 C.ar    1  UNL1        0.1515
      2 N           4.3553   -0.2571   27.9517 N.ar    1  UNL1       -0.2248
      3 C           4.4325   -0.8224   26.5644 C.ar    1  UNL1        0.1173
      4 C           5.4169   -1.7460   25.9104 C.ar    1  UNL1        0.0238
      5 C           5.2315   -2.1464   24.4768 C.ar    1  UNL1        0.0208
      6 C           4.0616   -1.6231   23.6972 C.ar    1  UNL1        0.0830
      7 N           3.0772   -0.6995   24.3513 N.ar    1  UNL1       -0.2264
      8 C           3.2627   -0.2992   25.7849 C.ar    1  UNL1        0.1665
      9 N           2.4625    0.5895   26.6904 N.ar    1  UNL1       -0.2754
     10 N           2.2048   -0.8554   30.4721 N.pl3   1  UNL1       -0.3425
     11 C           2.2100    0.6445   30.4561 C.ar    1  UNL1        0.1282
     12 N           1.7487    1.4090   31.6615 N.ar    1  UNL1       -0.2295
     13 C           1.7539    2.9088   31.6456 C.ar    1  UNL1        0.1003
     14 C           2.2203    3.6443   30.4244 C.ar    1  UNL1        0.0209
     15 C           2.6816    2.8799   29.2190 C.ar    1  UNL1        0.0074
     16 C           2.6764    1.3800   29.2349 C.ar    1  UNL1        0.0657
     17 H           1.8987   -1.3381   31.2736 H       1  UNL1        0.1437
     18 H           2.5076   -1.3572   29.6810 H       1  UNL1        0.1437
     19 C           3.8762   -2.0235   22.2636 C.ar    1  UNL1        0.0177
     20 C           3.0638   -1.1617   21.3432 C.ar    1  UNL1        0.0015
     21 C           2.8784   -1.5621   19.9095 C.ar    1  UNL1        0.0000
     22 C           3.5054   -2.8244   19.3963 C.ar    1  UNL1        0.0000
     23 C           4.3179   -3.6863   20.3167 C.ar    1  UNL1        0.0000
     24 C           4.5033   -3.2858   21.7503 C.ar    1  UNL1        0.0015
     25 C           1.2073    1.3234   26.3215 C.ar    1  UNL1        0.0667
     26 C           0.0138    1.2711   27.2284 C.ar    1  UNL1        0.0173
     27 C          -1.2413    2.0049   26.8595 C.ar    1  UNL1       -0.0015
     28 C          -1.3029    2.7911   25.5835 C.ar    1  UNL1       -0.0097
     29 C          -0.1094    2.8435   24.6765 C.ar    1  UNL1       -0.0015
     30 C           1.1457    2.1096   25.0454 C.ar    1  UNL1        0.0173
     31 C          -2.5581    3.5249   25.2146 C.3     1  UNL1        0.0581
     32 N          -2.0898    3.6105   23.7921 N.3     1  UNL1       -0.3200
     33 C          -3.0263    3.4393   26.6371 C.3     1  UNL1        0.0185
     34 C          -4.2814    4.1732   26.2680 C.3     1  UNL1        0.0033
     35 C          -3.8131    4.2588   24.8455 C.3     1  UNL1        0.0185
     36 H          -1.1790    3.1594   23.7062 H       1  UNL1        0.1191
     37 H          -2.0113    4.5899   23.5183 H       1  UNL1        0.1191
@<TRIPOS>BOND
     1    10    11    1
     2    11    12   ar
     3    12    13   ar
     4    13    14   ar
     5    14    15   ar
     6    15    16   ar
     7    16     1    1
     8     1     2   ar
     9     2     3   ar
    10     3     4   ar
    11     4     5   ar
    12     5     6   ar
    13     6    19    1
    14    19    20   ar
    15    20    21   ar
    16    21    22   ar
    17    22    23   ar
    18    23    24   ar
    19     6     7   ar
    20     7     8   ar
    21     8     9   ar
    22     9    25    1
    23    25    26   ar
    24    26    27   ar
    25    27    28   ar
    26    28    31    1
    27    31    32    1
    28    31    33    1
    29    33    34    1
    30    34    35    1
    31    28    29   ar
    32    29    30   ar
    33    16    11   ar
    34     9     1   ar
    35    30    25   ar
    36     8     3   ar
    37    35    31    1
    38    24    19   ar
    39    10    17    1
    40    10    18    1
    41    32    36    1
    42    32    37    1
@<TRIPOS>MOLECULE
*****
 37 42 0 0 0
SMALL
GASTEIGER

@<TRIPOS>ATOM
      1 C           6.6302   -2.7209   20.2614 C.ar    1  UNL1        0.1515
      2 N           7.6948   -3.7401   19.9823 N.ar    1  UNL1       -0.2248
      3 C           7.9458   -4.5065   21.2471 C.ar    1  UNL1        0.1173
      4 C           8.8850   -5.6306   21.5699 C.ar    1  UNL1        0.0238
      5 C           8.9147   -6.2091   22.9535 C.ar    1  UNL1        0.0208
      6 C           8.0052   -5.6636   24.0143 C.ar    1  UNL1        0.0830
      7 N           7.0660   -4.5395   23.6915 N.ar    1  UNL1       -0.2264
      8 C           7.0363   -3.9609   22.3079 C.ar    1  UNL1        0.1665
      9 N           6.2232   -2.8574   21.6986 N.ar    1  UNL1       -0.2754
     10 N           4.8432   -3.6692   18.0460 N.pl3   1  UNL1       -0.3425
     11 C           5.1773   -2.2120   18.1685 C.ar    1  UNL1        0.1282
     12 N           4.6179   -1.2289   17.1833 N.ar    1  UNL1       -0.2295
     13 C           4.9519    0.2282   17.3057 C.ar    1  UNL1        0.1003
     14 C           5.8453    0.7023   18.4134 C.ar    1  UNL1        0.0209
     15 C           6.4047   -0.2807   19.3986 C.ar    1  UNL1        0.0074
     16 C           6.0707   -1.7379   19.2762 C.ar    1  UNL1        0.0657
     17 H           4.2568   -3.9804   17.3190 H       1  UNL1        0.1437
     18 H           5.2104   -4.3145   18.6927 H       1  UNL1        0.1437
     19 C           8.0350   -6.2422   25.3979 C.ar    1  UNL1        0.0177
     20 C           8.0419   -5.3331   26.5910 C.ar    1  UNL1        0.0015
     21 C           8.0717   -5.9117   27.9747 C.ar    1  UNL1        0.0000
     22 C           8.0945   -7.3994   28.1651 C.ar    1  UNL1        0.0000
     23 C           8.0876   -8.3085   26.9719 C.ar    1  UNL1        0.0000
     24 C           8.0578   -7.7299   25.5884 C.ar    1  UNL1        0.0015
     25 C           5.1854   -2.0348   22.4031 C.ar    1  UNL1        0.0667
     26 C           5.4817   -1.4476   23.7511 C.ar    1  UNL1        0.0173
     27 C           4.4439   -0.6250   24.4555 C.ar    1  UNL1       -0.0015
     28 C           3.1096   -0.3896   23.8119 C.ar    1  UNL1       -0.0097
     29 C           2.8132   -0.9767   22.4638 C.ar    1  UNL1       -0.0015
     30 C           3.8511   -1.7993   21.7594 C.ar    1  UNL1        0.0173
     31 C           2.0718    0.4330   24.5163 C.3     1  UNL1        0.0581
     32 N           2.5973   -0.0377   25.8401 N.3     1  UNL1       -0.3200
     33 C           1.5464    0.9038   23.1925 C.3     1  UNL1        0.0185
     34 C           0.5086    1.7264   23.8971 C.3     1  UNL1        0.0033
     35 C           1.0340    1.2556   25.2208 C.3     1  UNL1        0.0185
     36 H           3.3817   -0.6718   25.6884 H       1  UNL1        0.1191
     37 H           1.8579   -0.5263   26.3451 H       1  UNL1        0.1191
@<TRIPOS>BOND
     1    10    11    1
     2    11    12   ar
     3    12    13   ar
     4    13    14   ar
     5    14    15   ar
     6    15    16   ar
     7    16     1    1
     8     1     2   ar
     9     2     3   ar
    10     3     4   ar
    11     4     5   ar
    12     5     6   ar
    13     6    19    1
    14    19    20   ar
    15    20    21   ar
    16    21    22   ar
    17    22    23   ar
    18    23    24   ar
    19     6     7   ar
    20     7     8   ar
    21     8     9   ar
    22     9    25    1
    23    25    26   ar
    24    26    27   ar
    25    27    28   ar
    26    28    31    1
    27    31    32    1
    28    31    33    1
    29    33    34    1
    30    34    35    1
    31    28    29   ar
    32    29    30   ar
    33    16    11   ar
    34     9     1   ar
    35    30    25   ar
    36     8     3   ar
    37    35    31    1
    38    24    19   ar
    39    10    17    1
    40    10    18    1
    41    32    36    1
    42    32    37    1
@<TRIPOS>MOLECULE
*****
 37 42 0 0 0
SMALL
GASTEIGER

@<TRIPOS>ATOM
      1 C           5.7284   -1.5911   31.8679 C.ar    1  UNL1        0.1515
      2 N           6.3135   -1.6669   33.2470 N.ar    1  UNL1       -0.2248
      3 C           5.5950   -0.6730   34.1107 C.ar    1  UNL1        0.1173
      4 C           5.7450   -0.3071   35.5576 C.ar    1  UNL1        0.0238
      5 C           4.8657    0.7487   36.1592 C.ar    1  UNL1        0.0208
      6 C           3.8365    1.4388   35.3139 C.ar    1  UNL1        0.0830
      7 N           3.6866    1.0730   33.8670 N.ar    1  UNL1       -0.2264
      8 C           4.5658    0.0171   33.2654 C.ar    1  UNL1        0.1665
      9 N           4.6483   -0.5503   31.8793 N.ar    1  UNL1       -0.2754
     10 N           6.4254   -4.4873   32.2237 N.pl3   1  UNL1       -0.3425
     11 C           6.4980   -3.8600   30.8630 C.ar    1  UNL1        0.1282
     12 N           6.9191   -4.6808   29.6803 N.ar    1  UNL1       -0.2295
     13 C           6.9917   -4.0536   28.3197 C.ar    1  UNL1        0.1003
     14 C           6.6432   -2.6056   28.1418 C.ar    1  UNL1        0.0209
     15 C           6.2221   -1.7847   29.3246 C.ar    1  UNL1        0.0074
     16 C           6.1495   -2.4119   30.6852 C.ar    1  UNL1        0.0657
     17 H           6.6541   -5.4377   32.3404 H       1  UNL1        0.1437
     18 H           6.1490   -3.9485   33.0000 H       1  UNL1        0.1437
     19 C           2.9573    2.4947   35.9156 C.ar    1  UNL1        0.0177
     20 C           2.4489    3.6212   35.0656 C.ar    1  UNL1        0.0015
     21 C           1.5697    4.6772   35.6673 C.ar    1  UNL1        0.0000
     22 C           1.1987    4.6065   37.1190 C.ar    1  UNL1        0.0000
     23 C           1.7071    3.4799   37.9690 C.ar    1  UNL1        0.0000
     24 C           2.5863    2.4241   37.3673 C.ar    1  UNL1        0.0015
     25 C           3.7996   -0.1477   30.7099 C.ar    1  UNL1        0.0667
     26 C           4.2441    0.9658   29.8086 C.ar    1  UNL1        0.0173
     27 C           3.3954    1.3685   28.6392 C.ar    1  UNL1       -0.0015
     28 C           2.1021    0.6576   28.3710 C.ar    1  UNL1       -0.0097
     29 C           1.6575   -0.4560   29.2723 C.ar    1  UNL1       -0.0015
     30 C           2.5062   -0.8586   30.4417 C.ar    1  UNL1        0.0173
     31 C           1.2533    1.0602   27.2016 C.3     1  UNL1        0.0581
     32 N           2.1953    0.3515   26.2740 N.3     1  UNL1       -0.3200
     33 C           0.3114    1.7689   28.1292 C.3     1  UNL1        0.0185
     34 C          -0.5373    2.1716   26.9597 C.3     1  UNL1        0.0033
     35 C           0.4047    1.4628   26.0321 C.3     1  UNL1        0.0185
     36 H           2.9529   -0.0673   26.8135 H       1  UNL1        0.1191
     37 H           2.5818    1.0191   25.6066 H       1  UNL1        0.1191
@<TRIPOS>BOND
     1    10    11    1
     2    11    12   ar
     3    12    13   ar
     4    13    14   ar
     5    14    15   ar
     6    15    16   ar
     7    16     1    1
     8     1     2   ar
     9     2     3   ar
    10     3     4   ar
    11     4     5   ar
    12     5     6   ar
    13     6    19    1
    14    19    20   ar
    15    20    21   ar
    16    21    22   ar
    17    22    23   ar
    18    23    24   ar
    19     6     7   ar
    20     7     8   ar
    21     8     9   ar
    22     9    25    1
    23    25    26   ar
    24    26    27   ar
    25    27    28   ar
    26    28    31    1
    27    31    32    1
    28    31    33    1
    29    33    34    1
    30    34    35    1
    31    28    29   ar
    32    29    30   ar
    33    16    11   ar
    34     9     1   ar
    35    30    25   ar
    36     8     3   ar
    37    35    31    1
    38    24    19   ar
    39    10    17    1
    40    10    18    1
    41    32    36    1
    42    32    37    1
@<TRIPOS>MOLECULE
*****
 37 42 0 0 0
SMALL
GASTEIGER

@<TRIPOS>ATOM
      1 C           1.4791    2.0125   18.9345 C.ar    1  UNL1        0.1515
      2 N           0.4532    2.7923   18.1668 N.ar    1  UNL1       -0.2248
      3 C          -0.6717    3.1245   19.1017 C.ar    1  UNL1        0.1173
      4 C          -1.9544    3.8759   18.9016 C.ar    1  UNL1        0.0238
      5 C          -2.9065    4.0528   20.0471 C.ar    1  UNL1        0.0208
      6 C          -2.5758    3.4783   21.3927 C.ar    1  UNL1        0.0830
      7 N          -1.2932    2.7269   21.5928 N.ar    1  UNL1       -0.2264
      8 C          -0.3411    2.5500   20.4473 C.ar    1  UNL1        0.1665
      9 N           0.9882    1.8627   20.3440 N.ar    1  UNL1       -0.2754
     10 N           3.9513    3.7111   18.9883 N.pl3   1  UNL1       -0.3425
     11 C           4.0054    2.3257   18.4155 C.ar    1  UNL1        0.1282
     12 N           5.2957    1.7898   17.8697 N.ar    1  UNL1       -0.2295
     13 C           5.3499    0.4045   17.2969 C.ar    1  UNL1        0.1003
     14 C           4.1138   -0.4448   17.2700 C.ar    1  UNL1        0.0209
     15 C           2.8235    0.0912   17.8159 C.ar    1  UNL1        0.0074
     16 C           2.7694    1.4765   18.3886 C.ar    1  UNL1        0.0657
     17 H           4.7626    4.2685   19.0059 H       1  UNL1        0.1437
     18 H           3.1045    4.0629   19.3466 H       1  UNL1        0.1437
     19 C          -3.5280    3.6553   22.5383 C.ar    1  UNL1        0.0177
     20 C          -4.9932    3.8377   22.2744 C.ar    1  UNL1        0.0015
     21 C          -5.9453    4.0147   23.4199 C.ar    1  UNL1        0.0000
     22 C          -5.4321    4.0092   24.8294 C.ar    1  UNL1        0.0000
     23 C          -3.9668    3.8268   25.0933 C.ar    1  UNL1        0.0000
     24 C          -3.0147    3.6498   23.9478 C.ar    1  UNL1        0.0015
     25 C           1.7013    1.1507   21.4550 C.ar    1  UNL1        0.0667
     26 C           2.1235   -0.2780   21.2811 C.ar    1  UNL1        0.0173
     27 C           2.8366   -0.9900   22.3922 C.ar    1  UNL1       -0.0015
     28 C           3.1276   -0.2732   23.6773 C.ar    1  UNL1       -0.0097
     29 C           2.7054    1.1556   23.8513 C.ar    1  UNL1       -0.0015
     30 C           1.9923    1.8676   22.7402 C.ar    1  UNL1        0.0173
     31 C           3.8407   -0.9852   24.7884 C.3     1  UNL1        0.0581
     32 N           2.9122   -0.3584   25.7859 N.3     1  UNL1       -0.3200
     33 C           4.7692   -1.6119   23.7908 C.3     1  UNL1        0.0185
     34 C           5.4823   -2.3239   24.9020 C.3     1  UNL1        0.0033
     35 C           4.5538   -1.6971   25.8995 C.3     1  UNL1        0.0185
     36 H           2.2445    0.2401   25.2996 H       1  UNL1        0.1191
     37 H           3.4509    0.2006   26.4474 H       1  UNL1        0.1191
@<TRIPOS>BOND
     1    10    11    1
     2    11    12   ar
     3    12    13   ar
     4    13    14   ar
     5    14    15   ar
     6    15    16   ar
     7    16     1    1
     8     1     2   ar
     9     2     3   ar
    10     3     4   ar
    11     4     5   ar
    12     5     6   ar
    13     6    19    1
    14    19    20   ar
    15    20    21   ar
    16    21    22   ar
    17    22    23   ar
    18    23    24   ar
    19     6     7   ar
    20     7     8   ar
    21     8     9   ar
    22     9    25    1
    23    25    26   ar
    24    26    27   ar
    25    27    28   ar
    26    28    31    1
    27    31    32    1
    28    31    33    1
    29    33    34    1
    30    34    35    1
    31    28    29   ar
    32    29    30   ar
    33    16    11   ar
    34     9     1   ar
    35    30    25   ar
    36     8     3   ar
    37    35    31    1
    38    24    19   ar
    39    10    17    1
    40    10    18    1
    41    32    36    1
    42    32    37    1
@<TRIPOS>MOLECULE
*****
 37 42 0 0 0
SMALL
GASTEIGER

@<TRIPOS>ATOM
      1 C           6.1433   -3.0985   26.1878 C.ar    1  UNL1        0.1515
      2 N           6.5659   -3.9576   25.0332 N.ar    1  UNL1       -0.2248
      3 C           5.8842   -3.4444   23.7995 C.ar    1  UNL1        0.1173
      4 C           5.9229   -3.8962   22.3697 C.ar    1  UNL1        0.0238
      5 C           5.1177   -3.1717   21.3322 C.ar    1  UNL1        0.0208
      6 C           4.2738   -1.9952   21.7244 C.ar    1  UNL1        0.0830
      7 N           4.2351   -1.5434   23.1541 N.ar    1  UNL1       -0.2264
      8 C           5.0403   -2.2680   24.1917 C.ar    1  UNL1        0.1665
      9 N           5.2004   -2.0542   25.6677 N.ar    1  UNL1       -0.2754
     10 N           5.6963   -5.6970   27.6189 N.pl3   1  UNL1       -0.3425
     11 C           6.3623   -4.5552   28.3279 C.ar    1  UNL1        0.1282
     12 N           6.8049   -4.7126   29.7525 N.ar    1  UNL1       -0.2295
     13 C           7.4709   -3.5708   30.4615 C.ar    1  UNL1        0.1003
     14 C           7.6943   -2.2716   29.7459 C.ar    1  UNL1        0.0209
     15 C           7.2518   -2.1142   28.3214 C.ar    1  UNL1        0.0074
     16 C           6.5858   -3.2559   27.6124 C.ar    1  UNL1        0.0657
     17 H           5.5497   -6.5498   28.0885 H       1  UNL1        0.1437
     18 H           5.4059   -5.5937   26.6839 H       1  UNL1        0.1437
     19 C           3.4685   -1.2707   20.6867 C.ar    1  UNL1        0.0177
     20 C           2.0542   -0.8675   20.9816 C.ar    1  UNL1        0.0015
     21 C           1.2489   -0.1429   19.9439 C.ar    1  UNL1        0.0000
     22 C           1.8581    0.1784   18.6114 C.ar    1  UNL1        0.0000
     23 C           3.2726   -0.2247   18.3166 C.ar    1  UNL1        0.0000
     24 C           4.0778   -0.9493   19.3542 C.ar    1  UNL1        0.0015
     25 C           4.5345   -0.9840   26.4809 C.ar    1  UNL1        0.0667
     26 C           4.9422    0.4495   26.3118 C.ar    1  UNL1        0.0173
     27 C           4.2763    1.5197   27.1250 C.ar    1  UNL1       -0.0015
     28 C           3.2027    1.1564   28.1074 C.ar    1  UNL1       -0.0097
     29 C           2.7949   -0.2772   28.2766 C.ar    1  UNL1       -0.0015
     30 C           3.4608   -1.3474   27.4635 C.ar    1  UNL1        0.0173
     31 C           2.5368    2.2266   28.9206 C.3     1  UNL1        0.0581
     32 N           3.7868    2.3860   29.7342 N.3     1  UNL1       -0.3200
     33 C           1.2868    2.0671   28.1069 C.3     1  UNL1        0.0185
     34 C           0.6210    3.1373   28.9202 C.3     1  UNL1        0.0033
     35 C           1.8710    3.2967   29.7338 C.3     1  UNL1        0.0185
     36 H           4.4970    1.7360   29.3973 H       1  UNL1        0.1191
     37 H           3.5824    2.1884   30.7138 H       1  UNL1        0.1191
@<TRIPOS>BOND
     1    10    11    1
     2    11    12   ar
     3    12    13   ar
     4    13    14   ar
     5    14    15   ar
     6    15    16   ar
     7    16     1    1
     8     1     2   ar
     9     2     3   ar
    10     3     4   ar
    11     4     5   ar
    12     5     6   ar
    13     6    19    1
    14    19    20   ar
    15    20    21   ar
    16    21    22   ar
    17    22    23   ar
    18    23    24   ar
    19     6     7   ar
    20     7     8   ar
    21     8     9   ar
    22     9    25    1
    23    25    26   ar
    24    26    27   ar
    25    27    28   ar
    26    28    31    1
    27    31    32    1
    28    31    33    1
    29    33    34    1
    30    34    35    1
    31    28    29   ar
    32    29    30   ar
    33    16    11   ar
    34     9     1   ar
    35    30    25   ar
    36     8     3   ar
    37    35    31    1
    38    24    19   ar
    39    10    17    1
    40    10    18    1
    41    32    36    1
    42    32    37    1
@<TRIPOS>MOLECULE
*****
 37 42 0 0 0
SMALL
GASTEIGER

@<TRIPOS>ATOM
      1 C          -0.7799    3.8826   20.9194 C.ar    1  UNL1        0.1515
      2 N          -1.5526    4.6426   21.9564 N.ar    1  UNL1       -0.2248
      3 C          -1.2956    4.0018   23.2881 C.ar    1  UNL1        0.1173
      4 C          -1.7895    4.3216   24.6678 C.ar    1  UNL1        0.0238
      5 C          -1.3518    3.4853   25.8336 C.ar    1  UNL1        0.0208
      6 C          -0.4204    2.3292   25.6196 C.ar    1  UNL1        0.0830
      7 N           0.0735    2.0094   24.2398 N.ar    1  UNL1       -0.2264
      8 C          -0.3642    2.8457   23.0741 C.ar    1  UNL1        0.1665
      9 N          -0.0455    2.7721   21.6102 N.ar    1  UNL1       -0.2754
     10 N           1.5085    5.4333   19.7537 N.pl3   1  UNL1       -0.3425
     11 C           0.3967    4.9561   18.8668 C.ar    1  UNL1        0.1282
     12 N           0.4291    5.2544   17.3971 N.ar    1  UNL1       -0.2295
     13 C          -0.6825    4.7773   16.5103 C.ar    1  UNL1        0.1003
     14 C          -1.8267    4.0020   17.0932 C.ar    1  UNL1        0.0209
     15 C          -1.8592    3.7038   18.5629 C.ar    1  UNL1        0.0074
     16 C          -0.7475    4.1809   19.4497 C.ar    1  UNL1        0.0657
     17 H           2.2594    5.9421   19.3711 H       1  UNL1        0.1437
     18 H           1.4872    5.2375   20.7183 H       1  UNL1        0.1437
     19 C           0.0172    1.4928   26.7854 C.ar    1  UNL1        0.0177
     20 C          -0.9859    1.0488   27.8084 C.ar    1  UNL1        0.0015
     21 C          -0.5482    0.2125   28.9743 C.ar    1  UNL1        0.0000
     22 C           0.8925   -0.1798   29.1171 C.ar    1  UNL1        0.0000
     23 C           1.8956    0.2643   28.0940 C.ar    1  UNL1        0.0000
     24 C           1.4580    1.1006   26.9282 C.ar    1  UNL1        0.0015
     25 C           0.8505    1.7647   20.9525 C.ar    1  UNL1        0.0667
     26 C           0.3043    0.4288   20.5440 C.ar    1  UNL1        0.0173
     27 C           1.2002   -0.5786   19.8863 C.ar    1  UNL1       -0.0015
     28 C           2.6424   -0.2500   19.6371 C.ar    1  UNL1       -0.0097
     29 C           3.1887    1.0859   20.0456 C.ar    1  UNL1       -0.0015
     30 C           2.2927    2.0933   20.7033 C.ar    1  UNL1        0.0173
     31 C           3.5383   -1.2574   18.9794 C.3     1  UNL1        0.0581
     32 N           3.6594   -0.3660   17.7791 N.3     1  UNL1       -0.3200
     33 C           3.4171   -2.1488   20.1798 C.3     1  UNL1        0.0185
     34 C           4.3131   -3.1562   19.5220 C.3     1  UNL1        0.0033
     35 C           4.4342   -2.2647   18.3217 C.3     1  UNL1        0.0185
     36 H           3.1124    0.4819   17.9288 H       1  UNL1        0.1191
     37 H           3.3095   -0.8554   16.9555 H       1  UNL1        0.1191
@<TRIPOS>BOND
     1    10    11    1
     2    11    12   ar
     3    12    13   ar
     4    13    14   ar
     5    14    15   ar
     6    15    16   ar
     7    16     1    1
     8     1     2   ar
     9     2     3   ar
    10     3     4   ar
    11     4     5   ar
    12     5     6   ar
    13     6    19    1
    14    19    20   ar
    15    20    21   ar
    16    21    22   ar
    17    22    23   ar
    18    23    24   ar
    19     6     7   ar
    20     7     8   ar
    21     8     9   ar
    22     9    25    1
    23    25    26   ar
    24    26    27   ar
    25    27    28   ar
    26    28    31    1
    27    31    32    1
    28    31    33    1
    29    33    34    1
    30    34    35    1
    31    28    29   ar
    32    29    30   ar
    33    16    11   ar
    34     9     1   ar
    35    30    25   ar
    36     8     3   ar
    37    35    31    1
    38    24    19   ar
    39    10    17    1
    40    10    18    1
    41    32    36    1
    42    32    37    1
