@<TRIPOS>MOLECULE
*****
 34 37 0 0 0
SMALL
GASTEIGER

@<TRIPOS>ATOM
      1 C          -9.6667  -17.5028   21.3949 C.3     1  UNL1        0.1379
      2 C          -9.2925  -17.0896   22.7875 C.ar    1  UNL1       -0.0007
      3 C          -9.6152  -17.9841   23.9475 C.ar    1  UNL1       -0.0017
      4 C          -9.2411  -17.5709   25.3401 C.ar    1  UNL1        0.0111
      5 C          -8.5442  -16.2631   25.5726 C.ar    1  UNL1        0.0577
      6 CL         -8.1701  -15.8499   26.9652 Cl      1  UNL1       -0.0822
      7 C          -8.2215  -15.3685   24.4126 C.ar    1  UNL1        0.0111
      8 C          -8.5957  -15.7817   23.0200 C.ar    1  UNL1       -0.0017
      9 N         -12.2016  -16.7023   21.1150 N.ar    1  UNL1       -0.2192
     10 N         -12.9536  -15.8979   20.0964 N.ar    1  UNL1       -0.0432
     11 N         -11.9877  -15.4886   19.0241 N.ar    1  UNL1       -0.0229
     12 N         -10.6390  -16.0400   19.3801 N.ar    1  UNL1       -0.1110
     13 C         -10.7711  -16.7901   20.6723 C.ar    1  UNL1        0.1791
     14 C         -12.9029  -18.6304   21.6539 C.3     1  UNL1        0.0245
     15 C         -12.7788  -17.3118   22.3581 C.3     1  UNL1        0.0896
     16 C         -12.6547  -15.9932   23.0623 C.3     1  UNL1        0.0245
     17 C         -13.3561  -17.9213   23.6013 C.3     1  UNL1        0.0245
     18 N          -8.9364  -18.6288   20.7250 N.3     1  UNL1       -0.2876
     19 H          -9.0759  -18.5143   19.7211 H       1  UNL1        0.1239
     20 C          -7.4618  -18.7997   20.9404 C.3     1  UNL1        0.0905
     21 C          -6.9545  -19.9154   21.8053 C.3     1  UNL1        0.1044
     22 N          -5.5424  -19.8902   22.3104 N.pl3   1  UNL1       -0.3315
     23 H          -5.0757  -20.7338   22.5096 H       1  UNL1        0.1469
     24 C          -4.8413  -18.5795   22.5119 C.ar    1  UNL1        0.0477
     25 C          -5.4391  -17.5400   23.4130 C.ar    1  UNL1        0.0350
     26 C          -4.7379  -16.2293   23.6146 C.ar    1  UNL1        0.1001
     27 N          -3.4391  -15.9582   22.9150 N.ar    1  UNL1       -0.2437
     28 C          -2.8413  -16.9978   22.0139 C.ar    1  UNL1        0.0833
     29 C          -1.5423  -16.7266   21.3144 C.ar    1  UNL1        0.0305
     30 C          -0.9446  -17.7662   20.4133 C.ar    1  UNL1        0.0592
     31 CL          0.3543  -17.4951   19.7137 Cl      1  UNL1       -0.0822
     32 C          -1.6457  -19.0769   20.2117 C.ar    1  UNL1        0.0115
     33 C          -2.9446  -19.3480   20.9113 C.ar    1  UNL1        0.0036
     34 C          -3.5424  -18.3084   21.8124 C.ar    1  UNL1        0.0309
@<TRIPOS>BOND
     1    14    15    1
     2    15    16    1
     3    15    17    1
     4    15     9    1
     5     9    10   ar
     6    10    11   ar
     7    11    12   ar
     8    12    13   ar
     9    13     1    1
    10     1    18    1
    11    18    20    1
    12    20    21    1
    13    21    22    1
    14    22    24    1
    15    24    25   ar
    16    25    26   ar
    17    26    27   ar
    18    27    28   ar
    19    28    29   ar
    20    29    30   ar
    21    30    31    1
    22    30    32   ar
    23    32    33   ar
    24    33    34   ar
    25     1     2    1
    26     2     3   ar
    27     3     4   ar
    28     4     5   ar
    29     5     6    1
    30     5     7   ar
    31     7     8   ar
    32    13     9   ar
    33    34    24   ar
    34     8     2   ar
    35    34    28   ar
    36    18    19    1
    37    22    23    1
@<TRIPOS>MOLECULE
*****
 34 37 0 0 0
SMALL
GASTEIGER

@<TRIPOS>ATOM
      1 C          -8.8813  -16.9789   22.2159 C.3     1  UNL1        0.1379
      2 C          -8.3009  -16.4547   23.4959 C.ar    1  UNL1       -0.0007
      3 C          -6.8205  -16.2461   23.6181 C.ar    1  UNL1       -0.0017
      4 C          -6.2401  -15.7219   24.8981 C.ar    1  UNL1        0.0111
      5 C          -7.1400  -15.4062   26.0558 C.ar    1  UNL1        0.0577
      6 CL         -6.5596  -14.8820   27.3358 Cl      1  UNL1       -0.0822
      7 C          -8.6205  -15.6148   25.9336 C.ar    1  UNL1        0.0111
      8 C          -9.2009  -16.1390   24.6537 C.ar    1  UNL1       -0.0017
      9 N         -11.3597  -17.9695   22.3621 N.ar    1  UNL1       -0.2192
     10 N         -12.7188  -17.4931   21.9427 N.ar    1  UNL1       -0.0432
     11 N         -12.5607  -16.1450   21.3040 N.ar    1  UNL1       -0.0229
     12 N         -11.1039  -15.7884   21.3286 N.ar    1  UNL1       -0.1110
     13 C         -10.3617  -16.9159   21.9825 C.ar    1  UNL1        0.1791
     14 C         -11.1621  -18.5989   24.3782 C.3     1  UNL1        0.0245
     15 C         -11.0526  -19.2709   23.0416 C.3     1  UNL1        0.0896
     16 C         -10.9431  -19.9430   21.7051 C.3     1  UNL1        0.0245
     17 C         -10.7455  -20.5725   23.7212 C.3     1  UNL1        0.0245
     18 N          -7.9813  -17.5661   21.1694 N.3     1  UNL1       -0.2876
     19 H          -7.0461  -17.1990   21.3456 H       1  UNL1        0.1239
     20 C          -7.8459  -19.0549   21.0461 C.3     1  UNL1        0.0905
     21 C          -7.4928  -19.8781   22.2494 C.3     1  UNL1        0.1044
     22 N          -6.0871  -20.3664   22.4378 N.pl3   1  UNL1       -0.3315
     23 H          -5.8343  -20.8300   23.2686 H       1  UNL1        0.1469
     24 C          -5.0667  -20.1483   21.3602 C.ar    1  UNL1        0.0477
     25 C          -5.0060  -21.0789   20.1854 C.ar    1  UNL1        0.0350
     26 C          -3.9855  -20.8607   19.1078 C.ar    1  UNL1        0.1001
     27 N          -3.0258  -19.7121   19.2051 N.ar    1  UNL1       -0.2437
     28 C          -3.0865  -18.7815   20.3800 C.ar    1  UNL1        0.0833
     29 C          -2.1268  -17.6328   20.4773 C.ar    1  UNL1        0.0305
     30 C          -2.1875  -16.7022   21.6522 C.ar    1  UNL1        0.0592
     31 CL         -1.2278  -15.5535   21.7495 Cl      1  UNL1       -0.0822
     32 C          -3.2080  -16.9203   22.7297 C.ar    1  UNL1        0.0115
     33 C          -4.1677  -18.0690   22.6324 C.ar    1  UNL1        0.0036
     34 C          -4.1069  -18.9996   21.4575 C.ar    1  UNL1        0.0309
@<TRIPOS>BOND
     1    14    15    1
     2    15    16    1
     3    15    17    1
     4    15     9    1
     5     9    10   ar
     6    10    11   ar
     7    11    12   ar
     8    12    13   ar
     9    13     1    1
    10     1    18    1
    11    18    20    1
    12    20    21    1
    13    21    22    1
    14    22    24    1
    15    24    25   ar
    16    25    26   ar
    17    26    27   ar
    18    27    28   ar
    19    28    29   ar
    20    29    30   ar
    21    30    31    1
    22    30    32   ar
    23    32    33   ar
    24    33    34   ar
    25     1     2    1
    26     2     3   ar
    27     3     4   ar
    28     4     5   ar
    29     5     6    1
    30     5     7   ar
    31     7     8   ar
    32    13     9   ar
    33    34    24   ar
    34     8     2   ar
    35    34    28   ar
    36    18    19    1
    37    22    23    1
@<TRIPOS>MOLECULE
*****
 34 37 0 0 0
SMALL
GASTEIGER

@<TRIPOS>ATOM
      1 C          -9.7690  -17.4478   21.7285 C.3     1  UNL1        0.1379
      2 C          -9.5317  -18.4425   20.6311 C.ar    1  UNL1       -0.0007
      3 C         -10.6577  -18.8413   19.7239 C.ar    1  UNL1       -0.0017
      4 C         -10.4204  -19.8359   18.6265 C.ar    1  UNL1        0.0111
      5 C          -9.0571  -20.4319   18.4363 C.ar    1  UNL1        0.0577
      6 CL         -8.8198  -21.4266   17.3389 Cl      1  UNL1       -0.0822
      7 C          -7.9310  -20.0331   19.3436 C.ar    1  UNL1        0.0111
      8 C          -8.1683  -19.0384   20.4410 C.ar    1  UNL1       -0.0017
      9 N         -11.3617  -18.4923   23.6040 N.ar    1  UNL1       -0.2192
     10 N         -12.7298  -18.1747   24.1307 N.ar    1  UNL1       -0.0432
     11 N         -13.2516  -16.9862   23.3789 N.ar    1  UNL1       -0.0229
     12 N         -12.2060  -16.5693   22.3875 N.ar    1  UNL1       -0.1110
     13 C         -11.0380  -17.5001   22.5266 C.ar    1  UNL1        0.1791
     14 C         -10.9696  -20.4728   22.9528 C.3     1  UNL1        0.0245
     15 C         -10.4734  -19.6065   24.0723 C.3     1  UNL1        0.0896
     16 C          -9.9771  -18.7402   25.1919 C.3     1  UNL1        0.0245
     17 C          -9.5850  -20.7207   24.5408 C.3     1  UNL1        0.0245
     18 N          -8.7373  -16.4008   22.0278 N.3     1  UNL1       -0.2876
     19 H          -9.2406  -15.5270   22.1813 H       1  UNL1        0.1239
     20 C          -7.8074  -16.5753   23.1917 C.3     1  UNL1        0.0905
     21 C          -6.3866  -16.1044   23.0937 C.3     1  UNL1        0.1044
     22 N          -5.2670  -17.0031   23.5282 N.pl3   1  UNL1       -0.3315
     23 H          -4.8821  -16.9094   24.4294 H       1  UNL1        0.1469
     24 C          -4.7339  -18.0444   22.5894 C.ar    1  UNL1        0.0477
     25 C          -5.5082  -19.3069   22.3517 C.ar    1  UNL1        0.0350
     26 C          -4.9750  -20.3483   21.4129 C.ar    1  UNL1        0.1001
     27 N          -3.6675  -20.1272   20.7118 N.ar    1  UNL1       -0.2437
     28 C          -2.8932  -18.8647   20.9495 C.ar    1  UNL1        0.0833
     29 C          -1.5856  -18.6436   20.2484 C.ar    1  UNL1        0.0305
     30 C          -0.8112  -17.3811   20.4861 C.ar    1  UNL1        0.0592
     31 CL          0.4962  -17.1600   19.7851 Cl      1  UNL1       -0.0822
     32 C          -1.3444  -16.3397   21.4249 C.ar    1  UNL1        0.0115
     33 C          -2.6519  -16.5608   22.1260 C.ar    1  UNL1        0.0036
     34 C          -3.4263  -17.8233   21.8883 C.ar    1  UNL1        0.0309
@<TRIPOS>BOND
     1    14    15    1
     2    15    16    1
     3    15    17    1
     4    15     9    1
     5     9    10   ar
     6    10    11   ar
     7    11    12   ar
     8    12    13   ar
     9    13     1    1
    10     1    18    1
    11    18    20    1
    12    20    21    1
    13    21    22    1
    14    22    24    1
    15    24    25   ar
    16    25    26   ar
    17    26    27   ar
    18    27    28   ar
    19    28    29   ar
    20    29    30   ar
    21    30    31    1
    22    30    32   ar
    23    32    33   ar
    24    33    34   ar
    25     1     2    1
    26     2     3   ar
    27     3     4   ar
    28     4     5   ar
    29     5     6    1
    30     5     7   ar
    31     7     8   ar
    32    13     9   ar
    33    34    24   ar
    34     8     2   ar
    35    34    28   ar
    36    18    19    1
    37    22    23    1
@<TRIPOS>MOLECULE
*****
 34 37 0 0 0
SMALL
GASTEIGER

@<TRIPOS>ATOM
      1 C          -4.8139  -17.6555   22.6044 C.3     1  UNL1        0.1379
      2 C          -5.4795  -16.9279   23.7347 C.ar    1  UNL1       -0.0007
      3 C          -4.7140  -16.6317   24.9902 C.ar    1  UNL1       -0.0017
      4 C          -5.3796  -15.9042   26.1205 C.ar    1  UNL1        0.0111
      5 C          -6.8107  -15.4728   25.9953 C.ar    1  UNL1        0.0577
      6 CL         -7.4764  -14.7452   27.1257 Cl      1  UNL1       -0.0822
      7 C          -7.5763  -15.7690   24.7398 C.ar    1  UNL1        0.0111
      8 C          -6.9107  -16.4965   23.6095 C.ar    1  UNL1       -0.0017
      9 N          -2.6584  -17.8383   21.0341 N.ar    1  UNL1       -0.2192
     10 N          -1.4899  -16.9488   20.7290 N.ar    1  UNL1       -0.0432
     11 N          -1.6444  -15.6897   21.5297 N.ar    1  UNL1       -0.0229
     12 N          -2.9083  -15.8012   22.3296 N.ar    1  UNL1       -0.1110
     13 C          -3.5351  -17.1292   22.0234 C.ar    1  UNL1        0.1791
     14 C          -2.3487  -19.8310   21.6925 C.3     1  UNL1        0.0245
     15 C          -2.9067  -19.1984   20.4522 C.3     1  UNL1        0.0896
     16 C          -3.4648  -18.5658   19.2119 C.3     1  UNL1        0.0245
     17 C          -3.1551  -20.5584   19.8702 C.3     1  UNL1        0.0245
     18 N          -5.4271  -18.9094   22.0551 N.3     1  UNL1       -0.2876
     19 H          -5.8479  -19.4012   22.8434 H       1  UNL1        0.1239
     20 C          -6.4768  -18.8253   20.9870 C.3     1  UNL1        0.0905
     21 C          -7.7356  -19.6323   21.1072 C.3     1  UNL1        0.1044
     22 N          -8.7605  -19.2736   22.1420 N.pl3   1  UNL1       -0.3315
     23 H          -8.5909  -19.4701   23.0916 H       1  UNL1        0.1469
     24 C         -10.0439  -18.6156   21.7298 C.ar    1  UNL1        0.0477
     25 C         -10.1820  -18.0381   20.3523 C.ar    1  UNL1        0.0350
     26 C         -11.4654  -17.3801   19.9402 C.ar    1  UNL1        0.1001
     27 N         -12.6107  -17.2996   20.9054 N.ar    1  UNL1       -0.2437
     28 C         -12.4726  -17.8772   22.2829 C.ar    1  UNL1        0.0833
     29 C         -13.6180  -17.7967   23.2481 C.ar    1  UNL1        0.0305
     30 C         -13.4800  -18.3743   24.6256 C.ar    1  UNL1        0.0592
     31 CL        -14.6253  -18.2939   25.5909 Cl      1  UNL1       -0.0822
     32 C         -12.1965  -19.0323   25.0378 C.ar    1  UNL1        0.0115
     33 C         -11.0512  -19.1127   24.0725 C.ar    1  UNL1        0.0036
     34 C         -11.1893  -18.5352   22.6951 C.ar    1  UNL1        0.0309
@<TRIPOS>BOND
     1    14    15    1
     2    15    16    1
     3    15    17    1
     4    15     9    1
     5     9    10   ar
     6    10    11   ar
     7    11    12   ar
     8    12    13   ar
     9    13     1    1
    10     1    18    1
    11    18    20    1
    12    20    21    1
    13    21    22    1
    14    22    24    1
    15    24    25   ar
    16    25    26   ar
    17    26    27   ar
    18    27    28   ar
    19    28    29   ar
    20    29    30   ar
    21    30    31    1
    22    30    32   ar
    23    32    33   ar
    24    33    34   ar
    25     1     2    1
    26     2     3   ar
    27     3     4   ar
    28     4     5   ar
    29     5     6    1
    30     5     7   ar
    31     7     8   ar
    32    13     9   ar
    33    34    24   ar
    34     8     2   ar
    35    34    28   ar
    36    18    19    1
    37    22    23    1
@<TRIPOS>MOLECULE
*****
 34 37 0 0 0
SMALL
GASTEIGER

@<TRIPOS>ATOM
      1 C          -9.0216  -17.1512   21.6521 C.3     1  UNL1        0.1379
      2 C          -8.7245  -16.6522   23.0351 C.ar    1  UNL1       -0.0007
      3 C          -9.1162  -17.4721   24.2285 C.ar    1  UNL1       -0.0017
      4 C          -8.8191  -16.9731   25.6116 C.ar    1  UNL1        0.0111
      5 C          -8.1305  -15.6541   25.8012 C.ar    1  UNL1        0.0577
      6 CL         -7.8334  -15.1551   27.1842 Cl      1  UNL1       -0.0822
      7 C          -7.7388  -14.8341   24.6077 C.ar    1  UNL1        0.0111
      8 C          -8.0358  -15.3331   23.2247 C.ar    1  UNL1       -0.0017
      9 N         -11.6497  -17.6224   21.5248 N.ar    1  UNL1       -0.2192
     10 N         -12.7726  -17.1411   20.6545 N.ar    1  UNL1       -0.0432
     11 N         -12.2039  -16.1790   19.6539 N.ar    1  UNL1       -0.0229
     12 N         -10.7295  -16.0657   19.9059 N.ar    1  UNL1       -0.1110
     13 C         -10.3870  -16.9577   21.0621 C.ar    1  UNL1        0.1791
     14 C         -12.4144  -17.5378   23.5016 C.3     1  UNL1        0.0245
     15 C         -11.7685  -18.5972   22.6586 C.3     1  UNL1        0.0896
     16 C         -11.1227  -19.6565   21.8156 C.3     1  UNL1        0.0245
     17 C         -11.8874  -19.5720   23.7925 C.3     1  UNL1        0.0245
     18 N          -7.9531  -17.8437   20.8591 N.3     1  UNL1       -0.2876
     19 H          -7.0653  -17.6345   21.3156 H       1  UNL1        0.1239
     20 C          -8.0035  -19.3311   20.6714 C.3     1  UNL1        0.0905
     21 C          -7.0244  -20.0052   19.7564 C.3     1  UNL1        0.1044
     22 N          -5.7372  -20.5471   20.3035 N.pl3   1  UNL1       -0.3315
     23 H          -5.6712  -21.4958   20.5580 H       1  UNL1        0.1469
     24 C          -4.5505  -19.6436   20.4627 C.ar    1  UNL1        0.0477
     25 C          -3.4288  -19.6964   19.4682 C.ar    1  UNL1        0.0350
     26 C          -2.2421  -18.7928   19.6275 C.ar    1  UNL1        0.1001
     27 N          -2.1772  -17.8364   20.7811 N.ar    1  UNL1       -0.2437
     28 C          -3.2989  -17.7835   21.7756 C.ar    1  UNL1        0.0833
     29 C          -3.2339  -16.8270   22.9293 C.ar    1  UNL1        0.0305
     30 C          -4.3557  -16.7741   23.9238 C.ar    1  UNL1        0.0592
     31 CL         -4.2907  -15.8177   25.0774 Cl      1  UNL1       -0.0822
     32 C          -5.5424  -17.6778   23.7645 C.ar    1  UNL1        0.0115
     33 C          -5.6073  -18.6342   22.6108 C.ar    1  UNL1        0.0036
     34 C          -4.4856  -18.6871   21.6164 C.ar    1  UNL1        0.0309
@<TRIPOS>BOND
     1    14    15    1
     2    15    16    1
     3    15    17    1
     4    15     9    1
     5     9    10   ar
     6    10    11   ar
     7    11    12   ar
     8    12    13   ar
     9    13     1    1
    10     1    18    1
    11    18    20    1
    12    20    21    1
    13    21    22    1
    14    22    24    1
    15    24    25   ar
    16    25    26   ar
    17    26    27   ar
    18    27    28   ar
    19    28    29   ar
    20    29    30   ar
    21    30    31    1
    22    30    32   ar
    23    32    33   ar
    24    33    34   ar
    25     1     2    1
    26     2     3   ar
    27     3     4   ar
    28     4     5   ar
    29     5     6    1
    30     5     7   ar
    31     7     8   ar
    32    13     9   ar
    33    34    24   ar
    34     8     2   ar
    35    34    28   ar
    36    18    19    1
    37    22    23    1
@<TRIPOS>MOLECULE
*****
 34 37 0 0 0
SMALL
GASTEIGER

@<TRIPOS>ATOM
      1 C          -9.0560  -17.9225   23.1211 C.3     1  UNL1        0.1379
      2 C         -10.5154  -18.0206   23.4538 C.ar    1  UNL1       -0.0007
      3 C         -10.9674  -18.8764   24.5997 C.ar    1  UNL1       -0.0017
      4 C         -12.4268  -18.9745   24.9325 C.ar    1  UNL1        0.0111
      5 C         -13.4340  -18.2167   24.1194 C.ar    1  UNL1        0.0577
      6 CL        -14.8933  -18.3148   24.4522 Cl      1  UNL1       -0.0822
      7 C         -12.9820  -17.3608   22.9734 C.ar    1  UNL1        0.0111
      8 C         -11.5226  -17.2628   22.6407 C.ar    1  UNL1       -0.0017
      9 N          -7.8356  -15.5857   23.5629 N.ar    1  UNL1       -0.2192
     10 N          -7.3961  -14.4392   22.7015 N.ar    1  UNL1       -0.0432
     11 N          -7.7633  -14.7581   21.2825 N.ar    1  UNL1       -0.0229
     12 N          -8.4298  -16.1018   21.2670 N.ar    1  UNL1       -0.1110
     13 C          -8.4745  -16.6133   22.6764 C.ar    1  UNL1        0.1791
     14 C          -9.1437  -15.5029   25.2309 C.3     1  UNL1        0.0245
     15 C          -7.6661  -15.6870   25.0499 C.3     1  UNL1        0.0896
     16 C          -6.1885  -15.8711   24.8689 C.3     1  UNL1        0.0245
     17 C          -7.4965  -15.7882   26.5369 C.3     1  UNL1        0.0245
     18 N          -8.1782  -19.1337   23.2330 N.3     1  UNL1       -0.2876
     19 H          -8.6283  -19.7631   23.8976 H       1  UNL1        0.1239
     20 C          -7.8624  -19.9465   22.0126 C.3     1  UNL1        0.0905
     21 C          -6.5043  -19.8561   21.3820 C.3     1  UNL1        0.1044
     22 N          -5.2739  -20.0161   22.2249 N.pl3   1  UNL1       -0.3315
     23 H          -5.1461  -20.8329   22.7594 H       1  UNL1        0.1469
     24 C          -4.2382  -18.9314   22.2534 C.ar    1  UNL1        0.0477
     25 C          -4.0029  -18.1520   23.5132 C.ar    1  UNL1        0.0350
     26 C          -2.9672  -17.0673   23.5417 C.ar    1  UNL1        0.1001
     27 N          -2.1667  -16.7621   22.3104 N.ar    1  UNL1       -0.2437
     28 C          -2.4020  -17.5416   21.0506 C.ar    1  UNL1        0.0833
     29 C          -1.6015  -17.2364   19.8192 C.ar    1  UNL1        0.0305
     30 C          -1.8368  -18.0158   18.5594 C.ar    1  UNL1        0.0592
     31 CL         -1.0363  -17.7107   17.3281 Cl      1  UNL1       -0.0822
     32 C          -2.8725  -19.1005   18.5310 C.ar    1  UNL1        0.0115
     33 C          -3.6730  -19.4057   19.7623 C.ar    1  UNL1        0.0036
     34 C          -3.4377  -18.6262   21.0221 C.ar    1  UNL1        0.0309
@<TRIPOS>BOND
     1    14    15    1
     2    15    16    1
     3    15    17    1
     4    15     9    1
     5     9    10   ar
     6    10    11   ar
     7    11    12   ar
     8    12    13   ar
     9    13     1    1
    10     1    18    1
    11    18    20    1
    12    20    21    1
    13    21    22    1
    14    22    24    1
    15    24    25   ar
    16    25    26   ar
    17    26    27   ar
    18    27    28   ar
    19    28    29   ar
    20    29    30   ar
    21    30    31    1
    22    30    32   ar
    23    32    33   ar
    24    33    34   ar
    25     1     2    1
    26     2     3   ar
    27     3     4   ar
    28     4     5   ar
    29     5     6    1
    30     5     7   ar
    31     7     8   ar
    32    13     9   ar
    33    34    24   ar
    34     8     2   ar
    35    34    28   ar
    36    18    19    1
    37    22    23    1
@<TRIPOS>MOLECULE
*****
 34 37 0 0 0
SMALL
GASTEIGER

@<TRIPOS>ATOM
      1 C           6.4148   -3.1528   21.2563 C.3     1  UNL1        0.1379
      2 C           5.8604   -2.2293   22.3002 C.ar    1  UNL1       -0.0007
      3 C           4.7708   -2.7012   23.2168 C.ar    1  UNL1       -0.0017
      4 C           4.2164   -1.7777   24.2606 C.ar    1  UNL1        0.0111
      5 C           4.7515   -0.3822   24.3880 C.ar    1  UNL1        0.0577
      6 CL          4.1970    0.5413   25.4318 Cl      1  UNL1       -0.0822
      7 C           5.8411    0.0898   23.4714 C.ar    1  UNL1        0.0111
      8 C           6.3955   -0.8337   22.4275 C.ar    1  UNL1       -0.0017
      9 N           5.3585   -3.0711   18.8022 N.ar    1  UNL1       -0.2192
     10 N           5.7627   -2.4602   17.4933 N.ar    1  UNL1       -0.0432
     11 N           7.0694   -1.7520   17.6962 N.ar    1  UNL1       -0.0229
     12 N           7.4727   -1.9253   19.1306 N.ar    1  UNL1       -0.1110
     13 C           6.4153   -2.7405   19.8141 C.ar    1  UNL1        0.1791
     14 C           3.3851   -2.6183   19.4354 C.3     1  UNL1        0.0245
     15 C           4.1156   -3.8720   19.0549 C.3     1  UNL1        0.0896
     16 C           4.8461   -5.1256   18.6745 C.3     1  UNL1        0.0245
     17 C           2.8727   -4.6729   19.3076 C.3     1  UNL1        0.0245
     18 N           6.9688   -4.4887   21.6547 N.3     1  UNL1       -0.2876
     19 H           6.3961   -5.1947   21.1922 H       1  UNL1        0.1239
     20 C           8.3991   -4.8270   21.3552 C.3     1  UNL1        0.0905
     21 C           9.0389   -6.0198   22.0018 C.3     1  UNL1        0.1044
     22 N           9.5325   -5.9318   23.4155 N.pl3   1  UNL1       -0.3315
     23 H          10.4838   -5.7520   23.5944 H       1  UNL1        0.1469
     24 C           8.5768   -6.1177   24.5565 C.ar    1  UNL1        0.0477
     25 C           8.1734   -7.4992   24.9795 C.ar    1  UNL1        0.0350
     26 C           7.2177   -7.6851   26.1206 C.ar    1  UNL1        0.1001
     27 N           6.6653   -6.4896   26.8386 N.ar    1  UNL1       -0.2437
     28 C           7.0686   -5.1081   26.4156 C.ar    1  UNL1        0.0833
     29 C           6.5162   -3.9126   27.1337 C.ar    1  UNL1        0.0305
     30 C           6.9196   -2.5311   26.7107 C.ar    1  UNL1        0.0592
     31 CL          6.3672   -1.3356   27.4287 Cl      1  UNL1       -0.0822
     32 C           7.8753   -2.3452   25.5696 C.ar    1  UNL1        0.0115
     33 C           8.4277   -3.5407   24.8516 C.ar    1  UNL1        0.0036
     34 C           8.0244   -4.9222   25.2746 C.ar    1  UNL1        0.0309
@<TRIPOS>BOND
     1    14    15    1
     2    15    16    1
     3    15    17    1
     4    15     9    1
     5     9    10   ar
     6    10    11   ar
     7    11    12   ar
     8    12    13   ar
     9    13     1    1
    10     1    18    1
    11    18    20    1
    12    20    21    1
    13    21    22    1
    14    22    24    1
    15    24    25   ar
    16    25    26   ar
    17    26    27   ar
    18    27    28   ar
    19    28    29   ar
    20    29    30   ar
    21    30    31    1
    22    30    32   ar
    23    32    33   ar
    24    33    34   ar
    25     1     2    1
    26     2     3   ar
    27     3     4   ar
    28     4     5   ar
    29     5     6    1
    30     5     7   ar
    31     7     8   ar
    32    13     9   ar
    33    34    24   ar
    34     8     2   ar
    35    34    28   ar
    36    18    19    1
    37    22    23    1
@<TRIPOS>MOLECULE
*****
 34 37 0 0 0
SMALL
GASTEIGER

@<TRIPOS>ATOM
      1 C           2.4955   -0.6867   20.0814 C.3     1  UNL1        0.1379
      2 C           3.1596   -0.3055   21.3712 C.ar    1  UNL1       -0.0007
      3 C           3.8981    0.9956   21.4787 C.ar    1  UNL1       -0.0017
      4 C           4.5622    1.3768   22.7685 C.ar    1  UNL1        0.0111
      5 C           4.4879    0.4568   23.9509 C.ar    1  UNL1        0.0577
      6 CL          5.1521    0.8379   25.2407 Cl      1  UNL1       -0.0822
      7 C           3.7494   -0.8445   23.8434 C.ar    1  UNL1        0.0111
      8 C           3.0853   -1.2256   22.5536 C.ar    1  UNL1       -0.0017
      9 N           4.4018   -1.9801   18.7257 N.ar    1  UNL1       -0.2192
     10 N           4.9652   -1.8877   17.3386 N.ar    1  UNL1       -0.0432
     11 N           4.2364   -0.7950   16.6141 N.ar    1  UNL1       -0.0229
     12 N           3.2225   -0.2122   17.5534 N.ar    1  UNL1       -0.1110
     13 C           3.3247   -0.9445   18.8584 C.ar    1  UNL1        0.1791
     14 C           5.9964   -2.0448   20.1232 C.3     1  UNL1        0.0245
     15 C           4.8387   -2.9395   19.7927 C.3     1  UNL1        0.0896
     16 C           3.6810   -3.8343   19.4621 C.3     1  UNL1        0.0245
     17 C           5.2756   -3.8991   20.8597 C.3     1  UNL1        0.0245
     18 N           1.0020   -0.8099   20.0146 N.3     1  UNL1       -0.2876
     19 H           0.7413   -1.5732   20.6391 H       1  UNL1        0.1239
     20 C           0.1359    0.3602   20.3761 C.3     1  UNL1        0.0905
     21 C           0.5067    1.7386   19.9147 C.3     1  UNL1        0.1044
     22 N           0.7992    2.8126   20.9200 N.pl3   1  UNL1       -0.3315
     23 H           1.6780    3.2565   20.9246 H       1  UNL1        0.1469
     24 C          -0.2471    3.2104   21.9184 C.ar    1  UNL1        0.0477
     25 C          -1.3471    4.1487   21.5186 C.ar    1  UNL1        0.0350
     26 C          -2.3935    4.5465   22.5170 C.ar    1  UNL1        0.1001
     27 N          -2.3399    4.0060   23.9152 N.ar    1  UNL1       -0.2437
     28 C          -1.2400    3.0678   24.3151 C.ar    1  UNL1        0.0833
     29 C          -1.1865    2.5274   25.7134 C.ar    1  UNL1        0.0305
     30 C          -0.0865    1.5891   26.1132 C.ar    1  UNL1        0.0592
     31 CL         -0.0330    1.0487   27.5114 Cl      1  UNL1       -0.0822
     32 C           0.9599    1.1913   25.1147 C.ar    1  UNL1        0.0115
     33 C           0.9063    1.7318   23.7165 C.ar    1  UNL1        0.0036
     34 C          -0.1936    2.6700   23.3167 C.ar    1  UNL1        0.0309
@<TRIPOS>BOND
     1    14    15    1
     2    15    16    1
     3    15    17    1
     4    15     9    1
     5     9    10   ar
     6    10    11   ar
     7    11    12   ar
     8    12    13   ar
     9    13     1    1
    10     1    18    1
    11    18    20    1
    12    20    21    1
    13    21    22    1
    14    22    24    1
    15    24    25   ar
    16    25    26   ar
    17    26    27   ar
    18    27    28   ar
    19    28    29   ar
    20    29    30   ar
    21    30    31    1
    22    30    32   ar
    23    32    33   ar
    24    33    34   ar
    25     1     2    1
    26     2     3   ar
    27     3     4   ar
    28     4     5   ar
    29     5     6    1
    30     5     7   ar
    31     7     8   ar
    32    13     9   ar
    33    34    24   ar
    34     8     2   ar
    35    34    28   ar
    36    18    19    1
    37    22    23    1
@<TRIPOS>MOLECULE
*****
 34 37 0 0 0
SMALL
GASTEIGER

@<TRIPOS>ATOM
      1 C           3.7252   -1.7544   18.5191 C.3     1  UNL1        0.1379
      2 C           2.6712   -0.7714   18.9350 C.ar    1  UNL1       -0.0007
      3 C           2.3692    0.4156   18.0691 C.ar    1  UNL1       -0.0017
      4 C           1.3153    1.3985   18.4850 C.ar    1  UNL1        0.0111
      5 C           0.5633    1.1946   19.7667 C.ar    1  UNL1        0.0577
      6 CL         -0.4906    2.1775   20.1826 Cl      1  UNL1       -0.0822
      7 C           0.8654    0.0075   20.6327 C.ar    1  UNL1        0.0111
      8 C           1.9193   -0.9755   20.2168 C.ar    1  UNL1       -0.0017
      9 N           4.8472   -3.2349   20.4411 N.ar    1  UNL1       -0.2192
     10 N           4.7041   -4.6536   20.9070 N.ar    1  UNL1       -0.0432
     11 N           3.6770   -5.3237   20.0433 N.ar    1  UNL1       -0.0229
     12 N           3.1853   -4.3192   19.0437 N.ar    1  UNL1       -0.1110
     13 C           3.9085   -3.0283   19.2896 C.ar    1  UNL1        0.1791
     14 C           4.6864   -1.7751   21.9718 C.3     1  UNL1        0.0245
     15 C           5.7674   -2.2040   21.0245 C.3     1  UNL1        0.0896
     16 C           6.8485   -2.6329   20.0772 C.3     1  UNL1        0.0245
     17 C           6.6878   -1.1730   21.6078 C.3     1  UNL1        0.0245
     18 N           4.5959   -1.4634   17.3328 N.3     1  UNL1       -0.2876
     19 H           4.0262   -0.9350   16.6720 H       1  UNL1        0.1239
     20 C           5.8743   -0.6992   17.5102 C.3     1  UNL1        0.0905
     21 C           6.0691    0.6107   16.8056 C.3     1  UNL1        0.1044
     22 N           6.4927    1.8232   17.5803 N.pl3   1  UNL1       -0.3315
     23 H           7.4193    1.9019   17.9036 H       1  UNL1        0.1469
     24 C           5.5047    2.9159   17.8625 C.ar    1  UNL1        0.0477
     25 C           5.2975    4.0160   16.8640 C.ar    1  UNL1        0.0350
     26 C           4.3093    5.1087   17.1462 C.ar    1  UNL1        0.1001
     27 N           3.5284    5.1014   18.4269 N.ar    1  UNL1       -0.2437
     28 C           3.7356    4.0013   19.4254 C.ar    1  UNL1        0.0833
     29 C           2.9547    3.9940   20.7061 C.ar    1  UNL1        0.0305
     30 C           3.1619    2.8940   21.7046 C.ar    1  UNL1        0.0592
     31 CL          2.3810    2.8866   22.9852 Cl      1  UNL1       -0.0822
     32 C           4.1500    1.8012   21.4223 C.ar    1  UNL1        0.0115
     33 C           4.9309    1.8086   20.1417 C.ar    1  UNL1        0.0036
     34 C           4.7237    2.9086   19.1432 C.ar    1  UNL1        0.0309
@<TRIPOS>BOND
     1    14    15    1
     2    15    16    1
     3    15    17    1
     4    15     9    1
     5     9    10   ar
     6    10    11   ar
     7    11    12   ar
     8    12    13   ar
     9    13     1    1
    10     1    18    1
    11    18    20    1
    12    20    21    1
    13    21    22    1
    14    22    24    1
    15    24    25   ar
    16    25    26   ar
    17    26    27   ar
    18    27    28   ar
    19    28    29   ar
    20    29    30   ar
    21    30    31    1
    22    30    32   ar
    23    32    33   ar
    24    33    34   ar
    25     1     2    1
    26     2     3   ar
    27     3     4   ar
    28     4     5   ar
    29     5     6    1
    30     5     7   ar
    31     7     8   ar
    32    13     9   ar
    33    34    24   ar
    34     8     2   ar
    35    34    28   ar
    36    18    19    1
    37    22    23    1
