@<TRIPOS>MOLECULE
*****
 35 38 0 0 0
SMALL
GASTEIGER

@<TRIPOS>ATOM
      1 C         -10.1936  -18.2285   23.0977 C.3     1  UNL1        0.1078
      2 C         -11.5840  -18.1852   23.6587 C.ar    1  UNL1       -0.0108
      3 C         -11.9038  -18.9179   24.9279 C.ar    1  UNL1       -0.0035
      4 C         -13.2942  -18.8745   25.4889 C.ar    1  UNL1       -0.0003
      5 C         -14.3649  -18.0984   24.7808 C.ar    1  UNL1       -0.0000
      6 C         -14.0451  -17.3657   23.5116 C.ar    1  UNL1       -0.0003
      7 C         -12.6545  -17.4091   22.9506 C.ar    1  UNL1       -0.0035
      8 C          -9.6877  -17.4774   24.2934 C.ar    1  UNL1       -0.0108
      9 C          -9.3588  -16.0184   24.1786 C.ar    1  UNL1       -0.0035
     10 C          -8.8529  -15.2672   25.3743 C.ar    1  UNL1       -0.0003
     11 C          -8.6758  -15.9750   26.6849 C.ar    1  UNL1       -0.0000
     12 C          -9.0047  -17.4340   26.7998 C.ar    1  UNL1       -0.0003
     13 C          -9.5106  -18.1852   25.6040 C.ar    1  UNL1       -0.0035
     14 C         -10.5642  -16.8855   20.1069 C.3     1  UNL1        0.1149
     15 N         -10.8345  -18.2829   20.5805 N.am    1  UNL1       -0.2755
     16 C         -11.3404  -19.0340   19.3848 C.3     1  UNL1        0.1149
     17 C         -10.6994  -18.9797   21.9020 C.2     1  UNL1        0.2325
     18 O         -11.0703  -20.4277   22.0276 O.2     1  UNL1       -0.2742
     19 C          -8.8031  -18.2719   22.5366 C.3     1  UNL1        0.0341
     20 C          -8.0210  -19.5515   22.5685 C.3     1  UNL1        0.0732
     21 N          -6.7193  -19.6536   21.8301 N.3     1  UNL1       -0.2725
     22 C          -6.5054  -20.7562   20.8360 C.3     1  UNL1        0.0748
     23 C          -5.2037  -20.8582   20.0976 C.3     1  UNL1        0.0485
     24 C          -4.1159  -19.8576   20.3534 C.3     1  UNL1        0.1096
     25 O          -3.4431  -20.7163   19.3239 O.3     1  UNL1       -0.3826
     26 C          -4.3298  -18.7549   21.3476 C.3     1  UNL1        0.0485
     27 C          -5.6315  -18.6529   22.0859 C.3     1  UNL1        0.0748
     28 H          -4.0439  -21.4286   19.0544 H       1  UNL1        0.2107
     29 C          -2.7945  -19.1552   20.2516 C.ar    1  UNL1        0.0019
     30 C          -1.9092  -19.0441   21.4574 C.ar    1  UNL1       -0.0012
     31 C          -0.5877  -18.3417   21.3555 C.ar    1  UNL1        0.0111
     32 C          -0.1515  -17.7505   20.0478 C.ar    1  UNL1        0.0577
     33 CL          1.1700  -17.0481   19.9460 Cl      1  UNL1       -0.0822
     34 C          -1.0368  -17.8616   18.8420 C.ar    1  UNL1        0.0111
     35 C          -2.3582  -18.5639   18.9439 C.ar    1  UNL1       -0.0012
@<TRIPOS>BOND
     1    14    15    1
     2    15    16    1
     3    15    17   am
     4    17    18    2
     5    17     1    1
     6     1    19    1
     7    19    20    1
     8    20    21    1
     9    21    22    1
    10    22    23    1
    11    23    24    1
    12    24    25    1
    13    24    29    1
    14    29    30   ar
    15    30    31   ar
    16    31    32   ar
    17    32    33    1
    18    32    34   ar
    19    34    35   ar
    20    24    26    1
    21    26    27    1
    22     1     2    1
    23     2     3   ar
    24     3     4   ar
    25     4     5   ar
    26     5     6   ar
    27     6     7   ar
    28     1     8    1
    29     8     9   ar
    30     9    10   ar
    31    10    11   ar
    32    11    12   ar
    33    12    13   ar
    34    27    21    1
    35     7     2   ar
    36    13     8   ar
    37    35    29   ar
    38    25    28    1
@<TRIPOS>MOLECULE
*****
 35 38 0 0 0
SMALL
GASTEIGER

@<TRIPOS>ATOM
      1 C           5.2180   -0.7486   19.6761 C.3     1  UNL1        0.1078
      2 C           3.7659   -0.3735   19.6524 C.ar    1  UNL1       -0.0108
      3 C           2.9721   -0.3670   20.9252 C.ar    1  UNL1       -0.0035
      4 C           1.5200    0.0081   20.9015 C.ar    1  UNL1       -0.0003
      5 C           0.8616    0.3767   19.6050 C.ar    1  UNL1       -0.0000
      6 C           1.6554    0.3702   18.3323 C.ar    1  UNL1       -0.0003
      7 C           3.1076   -0.0049   18.3560 C.ar    1  UNL1       -0.0035
      8 C           4.8424   -2.2003   19.7149 C.ar    1  UNL1       -0.0108
      9 C           4.9572   -3.0380   18.4759 C.ar    1  UNL1       -0.0035
     10 C           4.5816   -4.4897   18.5146 C.ar    1  UNL1       -0.0003
     11 C           4.0912   -5.1037   19.7923 C.ar    1  UNL1       -0.0000
     12 C           3.9764   -4.2660   21.0313 C.ar    1  UNL1       -0.0003
     13 C           4.3520   -2.8143   20.9926 C.ar    1  UNL1       -0.0035
     14 C           6.4387    0.7620   17.0090 C.3     1  UNL1        0.1149
     15 N           6.1420    1.3025   18.3764 N.am    1  UNL1       -0.2755
     16 C           6.5177    2.7541   18.3376 C.3     1  UNL1        0.1149
     17 C           5.5936    0.7030   19.6374 C.2     1  UNL1        0.2325
     18 O           5.4209    1.5553   20.8596 O.2     1  UNL1       -0.2742
     19 C           6.6702   -1.1237   19.6998 C.3     1  UNL1        0.0341
     20 C           7.3760   -1.3079   21.0105 C.3     1  UNL1        0.0732
     21 N           7.7214   -2.6870   21.4891 N.3     1  UNL1       -0.2725
     22 C           8.2075   -3.7190   20.5152 C.3     1  UNL1        0.0748
     23 C           8.5529   -5.0979   20.9938 C.3     1  UNL1        0.0485
     24 C           8.4120   -5.4449   22.4463 C.3     1  UNL1        0.1096
     25 O           8.9093   -6.7555   21.9124 O.3     1  UNL1       -0.3826
     26 C           7.9259   -4.4129   23.4202 C.3     1  UNL1        0.0485
     27 C           7.5805   -3.0339   22.9416 C.3     1  UNL1        0.0748
     28 H           9.0502   -6.6823   20.9555 H       1  UNL1        0.2107
     29 C           8.4439   -6.2471   23.7133 C.ar    1  UNL1        0.0019
     30 C           9.5040   -7.2890   23.9150 C.ar    1  UNL1       -0.0012
     31 C           9.5358   -8.0912   25.1821 C.ar    1  UNL1        0.0111
     32 C           8.5075   -7.8515   26.2475 C.ar    1  UNL1        0.0577
     33 CL          8.5394   -8.6537   27.5146 Cl      1  UNL1       -0.0822
     34 C           7.4474   -6.8096   26.0458 C.ar    1  UNL1        0.0111
     35 C           7.4156   -6.0074   24.7788 C.ar    1  UNL1       -0.0012
@<TRIPOS>BOND
     1    14    15    1
     2    15    16    1
     3    15    17   am
     4    17    18    2
     5    17     1    1
     6     1    19    1
     7    19    20    1
     8    20    21    1
     9    21    22    1
    10    22    23    1
    11    23    24    1
    12    24    25    1
    13    24    29    1
    14    29    30   ar
    15    30    31   ar
    16    31    32   ar
    17    32    33    1
    18    32    34   ar
    19    34    35   ar
    20    24    26    1
    21    26    27    1
    22     1     2    1
    23     2     3   ar
    24     3     4   ar
    25     4     5   ar
    26     5     6   ar
    27     6     7   ar
    28     1     8    1
    29     8     9   ar
    30     9    10   ar
    31    10    11   ar
    32    11    12   ar
    33    12    13   ar
    34    27    21    1
    35     7     2   ar
    36    13     8   ar
    37    35    29   ar
    38    25    28    1
@<TRIPOS>MOLECULE
*****
 35 38 0 0 0
SMALL
GASTEIGER

@<TRIPOS>ATOM
      1 C         -10.0240  -18.2791   23.4628 C.3     1  UNL1        0.1078
      2 C         -11.4761  -18.1931   23.8284 C.ar    1  UNL1       -0.0108
      3 C         -11.9890  -18.9159   25.0386 C.ar    1  UNL1       -0.0035
      4 C         -13.4412  -18.8299   25.4042 C.ar    1  UNL1       -0.0003
      5 C         -14.3806  -18.0211   24.5595 C.ar    1  UNL1       -0.0000
      6 C         -13.8678  -17.2983   23.3493 C.ar    1  UNL1       -0.0003
      7 C         -12.4155  -17.3843   22.9837 C.ar    1  UNL1       -0.0035
      8 C         -10.3917  -18.3092   22.0089 C.ar    1  UNL1       -0.0108
      9 C         -10.7570  -19.6086   21.3544 C.ar    1  UNL1       -0.0035
     10 C         -11.1248  -19.6387   19.9006 C.ar    1  UNL1       -0.0003
     11 C         -11.1273  -18.3696   19.1011 C.ar    1  UNL1       -0.0000
     12 C         -10.7621  -17.0702   19.7555 C.ar    1  UNL1       -0.0003
     13 C         -10.3943  -17.0400   21.2095 C.ar    1  UNL1       -0.0035
     14 C          -8.9390  -15.5844   25.0273 C.3     1  UNL1        0.1149
     15 N          -9.1715  -16.9742   25.5414 N.am    1  UNL1       -0.2755
     16 C          -8.8037  -16.9440   26.9953 C.3     1  UNL1        0.1149
     17 C          -9.6562  -18.2489   24.9167 C.2     1  UNL1        0.2325
     18 O          -9.7730  -19.4934   25.7458 O.2     1  UNL1       -0.2742
     19 C          -8.5717  -18.3650   23.0972 C.3     1  UNL1        0.0341
     20 C          -7.9674  -19.6883   22.7317 C.3     1  UNL1        0.0732
     21 N          -6.6996  -19.7385   21.9314 N.3     1  UNL1       -0.2725
     22 C          -6.5360  -20.7639   20.8491 C.3     1  UNL1        0.0748
     23 C          -5.2683  -20.8141   20.0489 C.3     1  UNL1        0.0485
     24 C          -4.1641  -19.8387   20.3311 C.3     1  UNL1        0.1096
     25 O          -3.5420  -20.6197   19.2117 O.3     1  UNL1       -0.3826
     26 C          -4.3278  -18.8133   21.4135 C.3     1  UNL1        0.0485
     27 C          -5.5955  -18.7631   22.2136 C.3     1  UNL1        0.0748
     28 H          -4.1584  -21.3079   18.9160 H       1  UNL1        0.2107
     29 C          -2.8440  -19.1346   20.2245 C.ar    1  UNL1        0.0019
     30 C          -1.9444  -19.0422   21.4212 C.ar    1  UNL1       -0.0012
     31 C          -0.6241  -18.3381   21.3145 C.ar    1  UNL1        0.0111
     32 C          -0.2036  -17.7264   20.0110 C.ar    1  UNL1        0.0577
     33 CL          1.1166  -17.0223   19.9044 Cl      1  UNL1       -0.0822
     34 C          -1.1032  -17.8189   18.8143 C.ar    1  UNL1        0.0111
     35 C          -2.4234  -18.5229   18.9210 C.ar    1  UNL1       -0.0012
@<TRIPOS>BOND
     1    14    15    1
     2    15    16    1
     3    15    17   am
     4    17    18    2
     5    17     1    1
     6     1    19    1
     7    19    20    1
     8    20    21    1
     9    21    22    1
    10    22    23    1
    11    23    24    1
    12    24    25    1
    13    24    29    1
    14    29    30   ar
    15    30    31   ar
    16    31    32   ar
    17    32    33    1
    18    32    34   ar
    19    34    35   ar
    20    24    26    1
    21    26    27    1
    22     1     2    1
    23     2     3   ar
    24     3     4   ar
    25     4     5   ar
    26     5     6   ar
    27     6     7   ar
    28     1     8    1
    29     8     9   ar
    30     9    10   ar
    31    10    11   ar
    32    11    12   ar
    33    12    13   ar
    34    27    21    1
    35     7     2   ar
    36    13     8   ar
    37    35    29   ar
    38    25    28    1
@<TRIPOS>MOLECULE
*****
 35 38 0 0 0
SMALL
GASTEIGER

@<TRIPOS>ATOM
      1 C           5.3523   -1.1472   19.8430 C.3     1  UNL1        0.1078
      2 C           3.9392   -0.6583   19.7257 C.ar    1  UNL1       -0.0108
      3 C           3.4250   -0.1596   18.4078 C.ar    1  UNL1       -0.0035
      4 C           2.0118    0.3293   18.2905 C.ar    1  UNL1       -0.0003
      5 C           1.1127    0.3196   19.4912 C.ar    1  UNL1       -0.0000
      6 C           1.6269   -0.1790   20.8091 C.ar    1  UNL1       -0.0003
      7 C           3.0401   -0.6680   20.9264 C.ar    1  UNL1       -0.0035
      8 C           4.8647   -2.5652   19.8069 C.ar    1  UNL1       -0.0108
      9 C           4.9584   -3.3585   18.5372 C.ar    1  UNL1       -0.0035
     10 C           4.4708   -4.7765   18.5010 C.ar    1  UNL1       -0.0003
     11 C           3.8895   -5.4014   19.7346 C.ar    1  UNL1       -0.0000
     12 C           3.7958   -4.6083   21.0043 C.ar    1  UNL1       -0.0003
     13 C           4.2835   -3.1901   21.0404 C.ar    1  UNL1       -0.0035
     14 C           6.8750    0.3362   17.3198 C.3     1  UNL1        0.1149
     15 N           6.5225    0.8601   18.6804 N.am    1  UNL1       -0.2755
     16 C           7.0101    2.2781   18.7165 C.3     1  UNL1        0.1149
     17 C           5.8400    0.2708   19.8792 C.2     1  UNL1        0.2325
     18 O           5.6451    1.0997   21.1141 O.2     1  UNL1       -0.2742
     19 C           6.7656   -1.6361   19.9603 C.3     1  UNL1        0.0341
     20 C           7.5484   -1.3740   21.2127 C.3     1  UNL1        0.0732
     21 N           7.3063   -2.2067   22.4367 N.3     1  UNL1       -0.2725
     22 C           6.3781   -1.7144   23.5072 C.3     1  UNL1        0.0748
     23 C           6.1360   -2.5471   24.7311 C.3     1  UNL1        0.0485
     24 C           6.8220   -3.8722   24.8844 C.3     1  UNL1        0.1096
     25 O           6.0375   -3.8356   26.1624 O.3     1  UNL1       -0.3826
     26 C           7.7502   -4.3645   23.8139 C.3     1  UNL1        0.0485
     27 C           7.9923   -3.5318   22.5900 C.3     1  UNL1        0.0748
     28 H           5.5280   -3.0113   26.2055 H       1  UNL1        0.2107
     29 C           7.2356   -5.1845   25.4817 C.ar    1  UNL1        0.0019
     30 C           7.7300   -6.2892   24.5956 C.ar    1  UNL1       -0.0012
     31 C           8.1436   -7.6016   25.1930 C.ar    1  UNL1        0.0111
     32 C           8.0626   -7.8091   26.6764 C.ar    1  UNL1        0.0577
     33 CL          8.4761   -9.1216   27.2737 Cl      1  UNL1       -0.0822
     34 C           7.5681   -6.7044   27.5624 C.ar    1  UNL1        0.0111
     35 C           7.1546   -5.3921   26.9651 C.ar    1  UNL1       -0.0012
@<TRIPOS>BOND
     1    14    15    1
     2    15    16    1
     3    15    17   am
     4    17    18    2
     5    17     1    1
     6     1    19    1
     7    19    20    1
     8    20    21    1
     9    21    22    1
    10    22    23    1
    11    23    24    1
    12    24    25    1
    13    24    29    1
    14    29    30   ar
    15    30    31   ar
    16    31    32   ar
    17    32    33    1
    18    32    34   ar
    19    34    35   ar
    20    24    26    1
    21    26    27    1
    22     1     2    1
    23     2     3   ar
    24     3     4   ar
    25     4     5   ar
    26     5     6   ar
    27     6     7   ar
    28     1     8    1
    29     8     9   ar
    30     9    10   ar
    31    10    11   ar
    32    11    12   ar
    33    12    13   ar
    34    27    21    1
    35     7     2   ar
    36    13     8   ar
    37    35    29   ar
    38    25    28    1
@<TRIPOS>MOLECULE
*****
 35 38 0 0 0
SMALL
GASTEIGER

@<TRIPOS>ATOM
      1 C           3.7706   -0.3439   19.8947 C.3     1  UNL1        0.1078
      2 C           4.8299    0.0867   18.9240 C.ar    1  UNL1       -0.0108
      3 C           4.5994   -0.0590   17.4489 C.ar    1  UNL1       -0.0035
      4 C           5.6587    0.3716   16.4782 C.ar    1  UNL1       -0.0003
      5 C           6.9486    0.9479   16.9824 C.ar    1  UNL1       -0.0000
      6 C           7.1791    1.0935   18.4574 C.ar    1  UNL1       -0.0003
      7 C           6.1197    0.6629   19.4282 C.ar    1  UNL1       -0.0035
      8 C           4.1693   -1.7760   19.6945 C.ar    1  UNL1       -0.0108
      9 C           5.5952   -2.1935   19.9011 C.ar    1  UNL1       -0.0035
     10 C           5.9938   -3.6256   19.7010 C.ar    1  UNL1       -0.0003
     11 C           4.9667   -4.6403   19.2942 C.ar    1  UNL1       -0.0000
     12 C           3.5409   -4.2228   19.0876 C.ar    1  UNL1       -0.0003
     13 C           3.1421   -2.7907   19.2878 C.ar    1  UNL1       -0.0035
     14 C           1.1744    1.0627   18.4227 C.3     1  UNL1        0.1149
     15 N           2.1734    1.6399   19.3811 N.am    1  UNL1       -0.2755
     16 C           1.7748    3.0720   19.5813 C.3     1  UNL1        0.1149
     17 C           3.3719    1.0882   20.0949 C.2     1  UNL1        0.2325
     18 O           4.1717    1.9687   21.0088 O.2     1  UNL1       -0.2742
     19 C           2.7112   -0.7745   20.8655 C.3     1  UNL1        0.0341
     20 C           2.9630   -0.6796   22.3412 C.3     1  UNL1        0.0732
     21 N           4.1741   -1.3325   22.9389 N.3     1  UNL1       -0.2725
     22 C           5.3357   -0.4939   23.3832 C.3     1  UNL1        0.0748
     23 C           6.5467   -1.1468   23.9808 C.3     1  UNL1        0.0485
     24 C           6.5961   -2.6381   24.1342 C.3     1  UNL1        0.1096
     25 O           7.9366   -2.2735   24.7000 O.3     1  UNL1       -0.3826
     26 C           5.4344   -3.4766   23.6900 C.3     1  UNL1        0.0485
     27 C           4.2234   -2.8238   23.0923 C.3     1  UNL1        0.0748
     28 H           8.0508   -1.3108   24.6662 H       1  UNL1        0.2107
     29 C           7.1110   -4.0027   24.4842 C.ar    1  UNL1        0.0019
     30 C           6.8885   -4.5585   25.8595 C.ar    1  UNL1       -0.0012
     31 C           7.4036   -5.9233   26.2093 C.ar    1  UNL1        0.0111
     32 C           8.1411   -6.7321   25.1838 C.ar    1  UNL1        0.0577
     33 CL          8.6561   -8.0969   25.5337 Cl      1  UNL1       -0.0822
     34 C           8.3636   -6.1764   23.8085 C.ar    1  UNL1        0.0111
     35 C           7.8486   -4.8117   23.4586 C.ar    1  UNL1       -0.0012
@<TRIPOS>BOND
     1    14    15    1
     2    15    16    1
     3    15    17   am
     4    17    18    2
     5    17     1    1
     6     1    19    1
     7    19    20    1
     8    20    21    1
     9    21    22    1
    10    22    23    1
    11    23    24    1
    12    24    25    1
    13    24    29    1
    14    29    30   ar
    15    30    31   ar
    16    31    32   ar
    17    32    33    1
    18    32    34   ar
    19    34    35   ar
    20    24    26    1
    21    26    27    1
    22     1     2    1
    23     2     3   ar
    24     3     4   ar
    25     4     5   ar
    26     5     6   ar
    27     6     7   ar
    28     1     8    1
    29     8     9   ar
    30     9    10   ar
    31    10    11   ar
    32    11    12   ar
    33    12    13   ar
    34    27    21    1
    35     7     2   ar
    36    13     8   ar
    37    35    29   ar
    38    25    28    1
@<TRIPOS>MOLECULE
*****
 35 38 0 0 0
SMALL
GASTEIGER

@<TRIPOS>ATOM
      1 C           3.6078    2.8861   36.9386 C.3     1  UNL1        0.1078
      2 C           4.2927    3.5173   38.1144 C.ar    1  UNL1       -0.0108
      3 C           4.1695    4.9934   38.3507 C.ar    1  UNL1       -0.0035
      4 C           4.8544    5.6245   39.5265 C.ar    1  UNL1       -0.0003
      5 C           5.6626    4.7795   40.4661 C.ar    1  UNL1       -0.0000
      6 C           5.7859    3.3034   40.2298 C.ar    1  UNL1       -0.0003
      7 C           5.1009    2.6722   39.0540 C.ar    1  UNL1       -0.0035
      8 C           2.5914    2.2764   37.8579 C.ar    1  UNL1       -0.0108
      9 C           1.4001    3.0763   38.2951 C.ar    1  UNL1       -0.0035
     10 C           0.3837    2.4666   39.2144 C.ar    1  UNL1       -0.0003
     11 C           0.5586    1.0570   39.6966 C.ar    1  UNL1       -0.0000
     12 C           1.7499    0.2572   39.2596 C.ar    1  UNL1       -0.0003
     13 C           2.7663    0.8669   38.3402 C.ar    1  UNL1       -0.0035
     14 C           2.9443    5.3413   34.8368 C.3     1  UNL1        0.1149
     15 N           4.2281    4.6105   35.0969 N.am    1  UNL1       -0.2755
     16 C           5.2445    5.2202   34.1776 C.3     1  UNL1        0.1149
     17 C           4.6242    3.4958   36.0193 C.2     1  UNL1        0.2325
     18 O           6.0367    2.9909   36.0223 O.2     1  UNL1       -0.2742
     19 C           2.9229    2.2550   35.7627 C.3     1  UNL1        0.0341
     20 C           3.6572    1.2624   34.9110 C.3     1  UNL1        0.0732
     21 N           3.1814    0.9718   33.5185 N.3     1  UNL1       -0.2725
     22 C           3.7118   -0.2199   32.7780 C.3     1  UNL1        0.0748
     23 C           3.2359   -0.5104   31.3855 C.3     1  UNL1        0.0485
     24 C           2.2297    0.3909   30.7334 C.3     1  UNL1        0.1096
     25 O           2.4354   -0.6085   29.6339 O.3     1  UNL1       -0.3826
     26 C           1.6993    1.5826   31.4739 C.3     1  UNL1        0.0485
     27 C           2.1751    1.8731   32.8664 C.3     1  UNL1        0.0748
     28 H           3.0806   -1.2744   29.9188 H       1  UNL1        0.2107
     29 C           1.2949    0.9450   29.6995 C.ar    1  UNL1        0.0019
     30 C           1.4063    2.3809   29.2802 C.ar    1  UNL1       -0.0012
     31 C           0.4714    2.9350   28.2462 C.ar    1  UNL1        0.0111
     32 C          -0.5747    2.0532   27.6315 C.ar    1  UNL1        0.0577
     33 CL         -1.5095    2.6074   26.5975 Cl      1  UNL1       -0.0822
     34 C          -0.6861    0.6173   28.0508 C.ar    1  UNL1        0.0111
     35 C           0.2487    0.0632   29.0847 C.ar    1  UNL1       -0.0012
@<TRIPOS>BOND
     1    14    15    1
     2    15    16    1
     3    15    17   am
     4    17    18    2
     5    17     1    1
     6     1    19    1
     7    19    20    1
     8    20    21    1
     9    21    22    1
    10    22    23    1
    11    23    24    1
    12    24    25    1
    13    24    29    1
    14    29    30   ar
    15    30    31   ar
    16    31    32   ar
    17    32    33    1
    18    32    34   ar
    19    34    35   ar
    20    24    26    1
    21    26    27    1
    22     1     2    1
    23     2     3   ar
    24     3     4   ar
    25     4     5   ar
    26     5     6   ar
    27     6     7   ar
    28     1     8    1
    29     8     9   ar
    30     9    10   ar
    31    10    11   ar
    32    11    12   ar
    33    12    13   ar
    34    27    21    1
    35     7     2   ar
    36    13     8   ar
    37    35    29   ar
    38    25    28    1
@<TRIPOS>MOLECULE
*****
 35 38 0 0 0
SMALL
GASTEIGER

@<TRIPOS>ATOM
      1 C           4.9863   -0.7276   20.4929 C.3     1  UNL1        0.1078
      2 C           4.6102   -2.1591   20.2495 C.ar    1  UNL1       -0.0108
      3 C           4.3494   -3.0737   21.4094 C.ar    1  UNL1       -0.0035
      4 C           3.9733   -4.5052   21.1660 C.ar    1  UNL1       -0.0003
      5 C           3.8580   -5.0222   19.7626 C.ar    1  UNL1       -0.0000
      6 C           4.1188   -4.1076   18.6026 C.ar    1  UNL1       -0.0003
      7 C           4.4949   -2.6761   18.8461 C.ar    1  UNL1       -0.0035
      8 C           3.6371   -0.2902   20.0047 C.ar    1  UNL1       -0.0108
      9 C           2.3949   -0.8292   20.6500 C.ar    1  UNL1       -0.0035
     10 C           1.0458   -0.3918   20.1618 C.ar    1  UNL1       -0.0003
     11 C           0.9388    0.5848   19.0283 C.ar    1  UNL1       -0.0000
     12 C           2.1809    1.1238   18.3829 C.ar    1  UNL1       -0.0003
     13 C           3.5301    0.6864   18.8711 C.ar    1  UNL1       -0.0035
     14 C           7.6685   -0.8893   18.5784 C.3     1  UNL1        0.1149
     15 N           7.4984   -1.2066   20.0345 N.am    1  UNL1       -0.2755
     16 C           8.8475   -1.6441   20.5227 C.3     1  UNL1        0.1149
     17 C           6.3354   -1.1651   20.9811 C.2     1  UNL1        0.2325
     18 O           6.5217   -1.5611   22.4158 O.2     1  UNL1       -0.2742
     19 C           5.3625    0.7039   20.7363 C.3     1  UNL1        0.0341
     20 C           5.2453    1.2864   22.1136 C.3     1  UNL1        0.0732
     21 N           3.9131    1.3219   22.8021 N.3     1  UNL1       -0.2725
     22 C           3.5811    0.2980   23.8467 C.3     1  UNL1        0.0748
     23 C           2.2489    0.3336   24.5351 C.3     1  UNL1        0.0485
     24 C           1.2487    1.3931   24.1789 C.3     1  UNL1        0.1096
     25 O           0.4762    0.6472   25.2262 O.3     1  UNL1       -0.3826
     26 C           1.5806    2.4171   23.1343 C.3     1  UNL1        0.0485
     27 C           2.9128    2.3815   22.4459 C.3     1  UNL1        0.0748
     28 H           1.0119   -0.0894   25.5598 H       1  UNL1        0.2107
     29 C          -0.0199    2.1936   24.1865 C.ar    1  UNL1        0.0019
     30 C          -0.7886    2.3688   25.4625 C.ar    1  UNL1       -0.0012
     31 C          -2.0572    3.1693   25.4699 C.ar    1  UNL1        0.0111
     32 C          -2.5570    3.7945   24.2014 C.ar    1  UNL1        0.0577
     33 CL         -3.8256    4.5950   24.2089 Cl      1  UNL1       -0.0822
     34 C          -1.7882    3.6193   22.9253 C.ar    1  UNL1        0.0111
     35 C          -0.5197    2.8189   22.9179 C.ar    1  UNL1       -0.0012
@<TRIPOS>BOND
     1    14    15    1
     2    15    16    1
     3    15    17   am
     4    17    18    2
     5    17     1    1
     6     1    19    1
     7    19    20    1
     8    20    21    1
     9    21    22    1
    10    22    23    1
    11    23    24    1
    12    24    25    1
    13    24    29    1
    14    29    30   ar
    15    30    31   ar
    16    31    32   ar
    17    32    33    1
    18    32    34   ar
    19    34    35   ar
    20    24    26    1
    21    26    27    1
    22     1     2    1
    23     2     3   ar
    24     3     4   ar
    25     4     5   ar
    26     5     6   ar
    27     6     7   ar
    28     1     8    1
    29     8     9   ar
    30     9    10   ar
    31    10    11   ar
    32    11    12   ar
    33    12    13   ar
    34    27    21    1
    35     7     2   ar
    36    13     8   ar
    37    35    29   ar
    38    25    28    1
@<TRIPOS>MOLECULE
*****
 35 38 0 0 0
SMALL
GASTEIGER

@<TRIPOS>ATOM
      1 C           4.1918   -1.1252   21.5273 C.3     1  UNL1        0.1078
      2 C           4.3625   -2.2537   20.5540 C.ar    1  UNL1       -0.0108
      3 C           3.7376   -3.5880   20.8354 C.ar    1  UNL1       -0.0035
      4 C           3.9084   -4.7164   19.8621 C.ar    1  UNL1       -0.0003
      5 C           4.7040   -4.5106   18.6072 C.ar    1  UNL1       -0.0000
      6 C           5.3289   -3.1763   18.3258 C.ar    1  UNL1       -0.0003
      7 C           5.1581   -2.0478   19.2992 C.ar    1  UNL1       -0.0035
      8 C           3.2858   -0.4260   20.5577 C.ar    1  UNL1       -0.0108
      9 C           3.8032    0.7210   19.7411 C.ar    1  UNL1       -0.0035
     10 C           2.8972    1.4202   18.7715 C.ar    1  UNL1       -0.0003
     11 C           1.4738    0.9726   18.6184 C.ar    1  UNL1       -0.0000
     12 C           0.9563   -0.1743   19.4350 C.ar    1  UNL1       -0.0003
     13 C           1.8623   -0.8736   20.4047 C.ar    1  UNL1       -0.0035
     14 C           7.4409   -0.5858   21.7215 C.3     1  UNL1        0.1149
     15 N           6.5650   -1.5127   22.5111 N.am    1  UNL1       -0.2755
     16 C           7.4710   -2.2119   23.4807 C.3     1  UNL1        0.1149
     17 C           5.0978   -1.8245   22.4969 C.2     1  UNL1        0.2325
     18 O           4.5366   -2.8355   23.4524 O.2     1  UNL1       -0.2742
     19 C           4.0210    0.0032   22.5007 C.3     1  UNL1        0.0341
     20 C           2.9416   -0.0599   23.5403 C.3     1  UNL1        0.0732
     21 N           1.8628    0.9822   23.5656 N.3     1  UNL1       -0.2725
     22 C           1.8234    2.0466   22.5095 C.3     1  UNL1        0.0748
     23 C           0.7447    3.0886   22.5349 C.3     1  UNL1        0.0485
     24 C          -0.2946    3.0661   23.6163 C.3     1  UNL1        0.1096
     25 O          -0.7499    4.2677   22.8424 O.3     1  UNL1       -0.3826
     26 C          -0.2552    2.0016   24.6723 C.3     1  UNL1        0.0485
     27 C           0.8235    0.9596   24.6470 C.3     1  UNL1        0.0748
     28 H          -0.1557    4.4114   22.0893 H       1  UNL1        0.2107
     29 C          -1.4920    3.4609   24.4289 C.ar    1  UNL1        0.0019
     30 C          -1.3500    3.7116   25.9009 C.ar    1  UNL1       -0.0012
     31 C          -2.5475    4.1065   26.7134 C.ar    1  UNL1        0.0111
     32 C          -3.8869    4.2506   26.0539 C.ar    1  UNL1        0.0577
     33 CL         -5.0844    4.6455   26.8665 Cl      1  UNL1       -0.0822
     34 C          -4.0289    3.9999   24.5818 C.ar    1  UNL1        0.0111
     35 C          -2.8315    3.6051   23.7693 C.ar    1  UNL1       -0.0012
@<TRIPOS>BOND
     1    14    15    1
     2    15    16    1
     3    15    17   am
     4    17    18    2
     5    17     1    1
     6     1    19    1
     7    19    20    1
     8    20    21    1
     9    21    22    1
    10    22    23    1
    11    23    24    1
    12    24    25    1
    13    24    29    1
    14    29    30   ar
    15    30    31   ar
    16    31    32   ar
    17    32    33    1
    18    32    34   ar
    19    34    35   ar
    20    24    26    1
    21    26    27    1
    22     1     2    1
    23     2     3   ar
    24     3     4   ar
    25     4     5   ar
    26     5     6   ar
    27     6     7   ar
    28     1     8    1
    29     8     9   ar
    30     9    10   ar
    31    10    11   ar
    32    11    12   ar
    33    12    13   ar
    34    27    21    1
    35     7     2   ar
    36    13     8   ar
    37    35    29   ar
    38    25    28    1
@<TRIPOS>MOLECULE
*****
 35 38 0 0 0
SMALL
GASTEIGER

@<TRIPOS>ATOM
      1 C           3.8850   -0.5028   20.2250 C.3     1  UNL1        0.1078
      2 C           4.8754   -0.0720   19.1842 C.ar    1  UNL1       -0.0108
      3 C           6.1940    0.5103   19.5990 C.ar    1  UNL1       -0.0035
      4 C           7.1844    0.9411   18.5582 C.ar    1  UNL1       -0.0003
      5 C           6.8562    0.7896   17.1023 C.ar    1  UNL1       -0.0000
      6 C           5.5376    0.2073   16.6874 C.ar    1  UNL1       -0.0003
      7 C           4.5472   -0.2235   17.7284 C.ar    1  UNL1       -0.0035
      8 C           4.2100   -1.9391   19.9398 C.ar    1  UNL1       -0.0108
      9 C           5.5778   -2.4736   20.2458 C.ar    1  UNL1       -0.0035
     10 C           5.9028   -3.9099   19.9606 C.ar    1  UNL1       -0.0003
     11 C           4.8600   -4.8117   19.3695 C.ar    1  UNL1       -0.0000
     12 C           3.4923   -4.2773   19.0636 C.ar    1  UNL1       -0.0003
     13 C           3.1672   -2.8409   19.3488 C.ar    1  UNL1       -0.0035
     14 C           1.3991    1.1351   18.8026 C.3     1  UNL1        0.1149
     15 N           2.4078    1.5945   19.8131 N.am    1  UNL1       -0.2755
     16 C           2.0828    3.0308   20.0983 C.3     1  UNL1        0.1149
     17 C           3.5599    0.9335   20.5102 C.2     1  UNL1        0.2325
     18 O           4.3870    1.7089   21.4924 O.2     1  UNL1       -0.2742
     19 C           2.8945   -0.9335   21.2660 C.3     1  UNL1        0.0341
     20 C           3.3489   -1.1936   22.6716 C.3     1  UNL1        0.0732
     21 N           2.7892   -0.3832   23.8029 N.3     1  UNL1       -0.2725
     22 C           3.3696   -0.5160   25.1796 C.3     1  UNL1        0.0748
     23 C           2.8099    0.2945   26.3109 C.3     1  UNL1        0.0485
     24 C           1.6697    1.2377   26.0655 C.3     1  UNL1        0.1096
     25 O           1.8795    1.4592   27.5341 O.3     1  UNL1       -0.3826
     26 C           1.0893    1.3706   24.6887 C.3     1  UNL1        0.0485
     27 C           1.6490    0.5601   23.5575 C.3     1  UNL1        0.0748
     28 H           2.6080    0.8992   27.8447 H       1  UNL1        0.2107
     29 C           0.6024    2.2579   26.3301 C.ar    1  UNL1        0.0019
     30 C           0.8962    3.4416   27.2034 C.ar    1  UNL1       -0.0012
     31 C          -0.1712    4.4618   27.4680 C.ar    1  UNL1        0.0111
     32 C          -1.5323    4.2982   26.8594 C.ar    1  UNL1        0.0577
     33 CL         -2.5997    5.3185   27.1240 Cl      1  UNL1       -0.0822
     34 C          -1.8261    3.1145   25.9861 C.ar    1  UNL1        0.0111
     35 C          -0.7588    2.0944   25.7215 C.ar    1  UNL1       -0.0012
@<TRIPOS>BOND
     1    14    15    1
     2    15    16    1
     3    15    17   am
     4    17    18    2
     5    17     1    1
     6     1    19    1
     7    19    20    1
     8    20    21    1
     9    21    22    1
    10    22    23    1
    11    23    24    1
    12    24    25    1
    13    24    29    1
    14    29    30   ar
    15    30    31   ar
    16    31    32   ar
    17    32    33    1
    18    32    34   ar
    19    34    35   ar
    20    24    26    1
    21    26    27    1
    22     1     2    1
    23     2     3   ar
    24     3     4   ar
    25     4     5   ar
    26     5     6   ar
    27     6     7   ar
    28     1     8    1
    29     8     9   ar
    30     9    10   ar
    31    10    11   ar
    32    11    12   ar
    33    12    13   ar
    34    27    21    1
    35     7     2   ar
    36    13     8   ar
    37    35    29   ar
    38    25    28    1
