@<TRIPOS>MOLECULE
*****
 34 37 0 0 0
SMALL
GASTEIGER

@<TRIPOS>ATOM
      1 C          -9.1601  -18.5759   21.3048 C.ar    1  UNL1        0.0951
      2 C          -9.9429  -18.9314   20.0756 C.ar    1  UNL1        0.1454
      3 F         -11.3470  -18.4304   19.9096 F       1  UNL1       -0.2040
      4 C          -9.3216  -19.7879   19.0125 C.ar    1  UNL1        0.0312
      5 C          -7.9175  -20.2889   19.1784 C.ar    1  UNL1        0.0204
      6 C          -7.1347  -19.9334   20.4076 C.ar    1  UNL1        0.0924
      7 C          -7.7560  -19.0769   21.4707 C.ar    1  UNL1        0.1598
      8 F          -6.9733  -18.7214   22.7000 F       1  UNL1       -0.2026
      9 O         -11.2161  -17.9259   22.7540 O.2     1  UNL1       -0.2864
     10 C          -9.7815  -17.7194   22.3681 C.2     1  UNL1        0.2016
     11 C          -8.9681  -16.6564   23.0452 C.ar    1  UNL1        0.0620
     12 C          -8.2787  -15.5088   22.3687 C.ar    1  UNL1        0.1038
     13 N          -7.5858  -14.6976   23.4232 N.ar    1  UNL1       -0.2268
     14 C          -7.8470  -15.3439   24.7514 C.ar    1  UNL1        0.1415
     15 N          -7.4173  -14.9864   26.1433 N.ar    1  UNL1       -0.3374
     16 C          -7.8419  -15.8396   27.3016 C.ar    1  UNL1        0.0744
     17 C          -8.6962  -17.0502   27.0681 C.ar    1  UNL1        0.0300
     18 C          -9.1259  -17.4077   25.6761 C.ar    1  UNL1        0.0622
     19 CL         -9.9802  -18.6183   25.4425 Cl      1  UNL1       -0.0821
     20 C          -8.7013  -16.5545   24.5178 C.ar    1  UNL1        0.0491
     21 H          -6.8566  -14.1919   26.2966 H       1  UNL1        0.1674
     22 N          -5.7306  -20.4344   20.5736 N.pl3   1  UNL1       -0.2127
     23 H          -5.5551  -21.4021   20.6167 H       1  UNL1        0.1738
     24 S          -4.5939  -19.4608   20.6738 S.O2    1  UNL1        0.0780
     25 O          -3.9281  -20.3426   21.6882 O.2     1  UNL1       -0.1498
     26 O          -5.2597  -18.5790   19.6593 O.2     1  UNL1       -0.1498
     27 C          -3.4572  -18.4873   20.7739 C.ar    1  UNL1        0.1797
     28 C          -2.4507  -18.3928   19.6657 C.ar    1  UNL1        0.1611
     29 F          -2.5810  -19.2720   18.4573 F       1  UNL1       -0.2027
     30 C          -1.3140  -17.4192   19.7657 C.ar    1  UNL1        0.0312
     31 C          -1.1837  -16.5401   20.9740 C.ar    1  UNL1        0.0047
     32 C          -2.1902  -16.6345   22.0823 C.ar    1  UNL1        0.0312
     33 C          -3.3269  -17.6081   21.9822 C.ar    1  UNL1        0.1611
     34 F          -4.3333  -17.7024   23.0905 F       1  UNL1       -0.2027
@<TRIPOS>BOND
     1     9    10    2
     2    10     1    1
     3     1     2   ar
     4     2     3    1
     5     2     4   ar
     6     4     5   ar
     7     5     6   ar
     8     6    22    1
     9    22    24    1
    10    24    25    2
    11    24    26    2
    12    24    27    1
    13    27    28   ar
    14    28    29    1
    15    28    30   ar
    16    30    31   ar
    17    31    32   ar
    18    32    33   ar
    19    33    34    1
    20     6     7   ar
    21     7     8    1
    22    10    11    1
    23    11    12   ar
    24    12    13   ar
    25    13    14   ar
    26    14    15   ar
    27    15    16   ar
    28    16    17   ar
    29    17    18   ar
    30    18    19    1
    31    18    20   ar
    32     7     1   ar
    33    20    11   ar
    34    33    27   ar
    35    20    14    1
    36    22    23    1
    37    15    21    1
@<TRIPOS>MOLECULE
*****
 34 37 0 0 0
SMALL
GASTEIGER

@<TRIPOS>ATOM
      1 C          -9.0879  -18.3519   21.1346 C.ar    1  UNL1        0.0951
      2 C          -9.8725  -18.8399   19.9530 C.ar    1  UNL1        0.1454
      3 F         -11.2655  -18.3357   19.7177 F       1  UNL1       -0.2040
      4 C          -9.2641  -19.8320   19.0068 C.ar    1  UNL1        0.0312
      5 C          -7.8712  -20.3362   19.2421 C.ar    1  UNL1        0.0204
      6 C          -7.0865  -19.8483   20.4237 C.ar    1  UNL1        0.0924
      7 C          -7.6949  -18.8561   21.3699 C.ar    1  UNL1        0.1598
      8 F          -6.9103  -18.3681   22.5516 F       1  UNL1       -0.2026
      9 O         -10.2868  -16.0855   21.5541 O.2     1  UNL1       -0.2864
     10 C          -9.6962  -17.3597   22.0810 C.2     1  UNL1        0.2016
     11 C          -9.7140  -17.6417   23.5541 C.ar    1  UNL1        0.0620
     12 C         -10.5407  -18.6876   24.2416 C.ar    1  UNL1        0.1038
     13 N         -10.2458  -18.6197   25.7108 N.ar    1  UNL1       -0.2268
     14 C          -9.2368  -17.5318   25.9312 C.ar    1  UNL1        0.1415
     15 N          -8.5749  -17.0135   27.1735 N.ar    1  UNL1       -0.3374
     16 C          -7.5843  -15.8909   27.0828 C.ar    1  UNL1        0.0744
     17 C          -7.2556  -15.2865   25.7499 C.ar    1  UNL1        0.0300
     18 C          -7.9176  -15.8047   24.5076 C.ar    1  UNL1        0.0622
     19 CL         -7.5889  -15.2003   23.1747 Cl      1  UNL1       -0.0821
     20 C          -8.9082  -16.9274   24.5983 C.ar    1  UNL1        0.0491
     21 H          -8.7906  -17.4102   28.0483 H       1  UNL1        0.1674
     22 N          -5.6935  -20.3525   20.6590 N.pl3   1  UNL1       -0.2127
     23 H          -5.5319  -21.3168   20.7737 H       1  UNL1        0.1738
     24 S          -4.5468  -19.3874   20.7195 S.O2    1  UNL1        0.0780
     25 O          -5.1716  -18.5763   19.6232 O.2     1  UNL1       -0.1498
     26 O          -3.9221  -20.1984   21.8158 O.2     1  UNL1       -0.1498
     27 C          -3.4001  -18.4223   20.7802 C.ar    1  UNL1        0.1797
     28 C          -3.2604  -17.4962   21.9519 C.ar    1  UNL1        0.1611
     29 F          -4.2675  -17.5352   23.0628 F       1  UNL1       -0.2027
     30 C          -2.1137  -16.5311   22.0126 C.ar    1  UNL1        0.0312
     31 C          -1.1067  -16.4921   20.9016 C.ar    1  UNL1        0.0047
     32 C          -1.2464  -17.4183   19.7299 C.ar    1  UNL1        0.0312
     33 C          -2.3931  -18.3833   19.6692 C.ar    1  UNL1        0.1611
     34 F          -2.5327  -19.3094   18.4975 F       1  UNL1       -0.2027
@<TRIPOS>BOND
     1     9    10    2
     2    10     1    1
     3     1     2   ar
     4     2     3    1
     5     2     4   ar
     6     4     5   ar
     7     5     6   ar
     8     6    22    1
     9    22    24    1
    10    24    25    2
    11    24    26    2
    12    24    27    1
    13    27    28   ar
    14    28    29    1
    15    28    30   ar
    16    30    31   ar
    17    31    32   ar
    18    32    33   ar
    19    33    34    1
    20     6     7   ar
    21     7     8    1
    22    10    11    1
    23    11    12   ar
    24    12    13   ar
    25    13    14   ar
    26    14    15   ar
    27    15    16   ar
    28    16    17   ar
    29    17    18   ar
    30    18    19    1
    31    18    20   ar
    32     7     1   ar
    33    20    11   ar
    34    33    27   ar
    35    20    14    1
    36    22    23    1
    37    15    21    1
@<TRIPOS>MOLECULE
*****
 34 37 0 0 0
SMALL
GASTEIGER

@<TRIPOS>ATOM
      1 C          -8.2052  -16.8309   25.3577 C.ar    1  UNL1        0.0951
      2 C          -8.1491  -16.4581   26.8096 C.ar    1  UNL1        0.1454
      3 F          -9.2554  -16.8729   27.7337 F       1  UNL1       -0.2040
      4 C          -6.9866  -15.6707   27.3373 C.ar    1  UNL1        0.0312
      5 C          -5.8802  -15.2560   26.4132 C.ar    1  UNL1        0.0204
      6 C          -5.9363  -15.6287   24.9613 C.ar    1  UNL1        0.0924
      7 C          -7.0988  -16.4161   24.4336 C.ar    1  UNL1        0.1598
      8 F          -7.1550  -16.7889   22.9817 F       1  UNL1       -0.2026
      9 O          -9.8636  -18.8182   25.5810 O.2     1  UNL1       -0.2864
     10 C          -9.3677  -17.6184   24.8299 C.2     1  UNL1        0.2016
     11 C         -10.0343  -17.2059   23.5510 C.ar    1  UNL1        0.0620
     12 C         -10.9074  -16.0011   23.3606 C.ar    1  UNL1        0.1038
     13 N         -11.3574  -15.9764   21.9299 N.ar    1  UNL1       -0.2268
     14 C         -10.7625  -17.1659   21.2361 C.ar    1  UNL1        0.1415
     15 N         -10.8597  -17.6552   19.8216 N.ar    1  UNL1       -0.3374
     16 C         -10.1391  -18.9044   19.4089 C.ar    1  UNL1        0.0744
     17 C          -9.3213  -19.6642   20.4109 C.ar    1  UNL1        0.0300
     18 C          -9.2241  -19.1749   21.8255 C.ar    1  UNL1        0.0622
     19 CL         -8.4064  -19.9347   22.8274 Cl      1  UNL1       -0.0821
     20 C          -9.9447  -17.9257   22.2381 C.ar    1  UNL1        0.0491
     21 H         -11.3964  -17.1565   19.1640 H       1  UNL1        0.1674
     22 N          -4.8300  -15.2139   24.0372 N.pl3   1  UNL1       -0.2127
     23 H          -4.5709  -14.2663   23.9737 H       1  UNL1        0.1738
     24 S          -4.1184  -16.2431   23.2099 S.O2    1  UNL1        0.0780
     25 O          -4.1454  -17.1940   24.3696 O.2     1  UNL1       -0.1498
     26 O          -4.0913  -15.2922   22.0502 O.2     1  UNL1       -0.1498
     27 C          -3.4068  -17.2722   22.3826 C.ar    1  UNL1        0.1797
     28 C          -2.0909  -16.9413   21.7431 C.ar    1  UNL1        0.1611
     29 F          -1.4867  -15.5813   21.9310 F       1  UNL1       -0.2027
     30 C          -1.3792  -17.9703   20.9157 C.ar    1  UNL1        0.0312
     31 C          -1.9834  -19.3303   20.7278 C.ar    1  UNL1        0.0047
     32 C          -3.2993  -19.6612   21.3673 C.ar    1  UNL1        0.0312
     33 C          -4.0110  -18.6322   22.1947 C.ar    1  UNL1        0.1611
     34 F          -5.3269  -18.9631   22.8341 F       1  UNL1       -0.2027
@<TRIPOS>BOND
     1     9    10    2
     2    10     1    1
     3     1     2   ar
     4     2     3    1
     5     2     4   ar
     6     4     5   ar
     7     5     6   ar
     8     6    22    1
     9    22    24    1
    10    24    25    2
    11    24    26    2
    12    24    27    1
    13    27    28   ar
    14    28    29    1
    15    28    30   ar
    16    30    31   ar
    17    31    32   ar
    18    32    33   ar
    19    33    34    1
    20     6     7   ar
    21     7     8    1
    22    10    11    1
    23    11    12   ar
    24    12    13   ar
    25    13    14   ar
    26    14    15   ar
    27    15    16   ar
    28    16    17   ar
    29    17    18   ar
    30    18    19    1
    31    18    20   ar
    32     7     1   ar
    33    20    11   ar
    34    33    27   ar
    35    20    14    1
    36    22    23    1
    37    15    21    1
@<TRIPOS>MOLECULE
*****
 34 37 0 0 0
SMALL
GASTEIGER

@<TRIPOS>ATOM
      1 C          -8.1759  -16.8067   25.3502 C.ar    1  UNL1        0.0951
      2 C          -8.1089  -16.4260   26.7996 C.ar    1  UNL1        0.1454
      3 F          -9.2102  -16.8322   27.7334 F       1  UNL1       -0.2040
      4 C          -6.9405  -15.6391   27.3150 C.ar    1  UNL1        0.0312
      5 C          -5.8392  -15.2330   26.3812 C.ar    1  UNL1        0.0204
      6 C          -5.9062  -15.6137   24.9318 C.ar    1  UNL1        0.0924
      7 C          -7.0745  -16.4005   24.4164 C.ar    1  UNL1        0.1598
      8 F          -7.1416  -16.7813   22.9671 F       1  UNL1       -0.2026
      9 O          -9.8396  -18.7869   25.5967 O.2     1  UNL1       -0.2864
     10 C          -9.3443  -17.5936   24.8347 C.2     1  UNL1        0.2016
     11 C         -10.0173  -17.1872   23.5573 C.ar    1  UNL1        0.0620
     12 C         -10.8913  -15.9833   23.3655 C.ar    1  UNL1        0.1038
     13 N         -11.3486  -15.9653   21.9371 N.ar    1  UNL1       -0.2268
     14 C         -10.7572  -17.1581   21.2460 C.ar    1  UNL1        0.1415
     15 N         -10.8617  -17.6541   19.8342 N.ar    1  UNL1       -0.3374
     16 C         -10.1433  -18.9053   19.4239 C.ar    1  UNL1        0.0744
     17 C          -9.3205  -19.6605   20.4253 C.ar    1  UNL1        0.0300
     18 C          -9.2160  -19.1644   21.8370 C.ar    1  UNL1        0.0622
     19 CL         -8.3932  -19.9196   22.8384 Cl      1  UNL1       -0.0821
     20 C          -9.9344  -17.9132   22.2473 C.ar    1  UNL1        0.0491
     21 H         -11.4017  -17.1585   19.1770 H       1  UNL1        0.1674
     22 N          -4.8048  -15.2075   23.9980 N.pl3   1  UNL1       -0.2127
     23 H          -4.5464  -14.2604   23.9241 H       1  UNL1        0.1738
     24 S          -4.0973  -16.2443   23.1768 S.O2    1  UNL1        0.0780
     25 O          -4.1427  -17.1941   24.3369 O.2     1  UNL1       -0.1498
     26 O          -4.0518  -15.2945   22.0167 O.2     1  UNL1       -0.1498
     27 C          -3.3898  -17.2811   22.3556 C.ar    1  UNL1        0.1797
     28 C          -4.0052  -18.6358   22.1656 C.ar    1  UNL1        0.1611
     29 F          -5.3283  -18.9536   22.7970 F       1  UNL1       -0.2027
     30 C          -3.2978  -19.6726   21.3444 C.ar    1  UNL1        0.0312
     31 C          -1.9748  -19.3548   20.7130 C.ar    1  UNL1        0.0047
     32 C          -1.3593  -18.0001   20.9029 C.ar    1  UNL1        0.0312
     33 C          -2.0668  -16.9632   21.7242 C.ar    1  UNL1        0.1611
     34 F          -1.4512  -15.6086   21.9141 F       1  UNL1       -0.2027
@<TRIPOS>BOND
     1     9    10    2
     2    10     1    1
     3     1     2   ar
     4     2     3    1
     5     2     4   ar
     6     4     5   ar
     7     5     6   ar
     8     6    22    1
     9    22    24    1
    10    24    25    2
    11    24    26    2
    12    24    27    1
    13    27    28   ar
    14    28    29    1
    15    28    30   ar
    16    30    31   ar
    17    31    32   ar
    18    32    33   ar
    19    33    34    1
    20     6     7   ar
    21     7     8    1
    22    10    11    1
    23    11    12   ar
    24    12    13   ar
    25    13    14   ar
    26    14    15   ar
    27    15    16   ar
    28    16    17   ar
    29    17    18   ar
    30    18    19    1
    31    18    20   ar
    32     7     1   ar
    33    20    11   ar
    34    33    27   ar
    35    20    14    1
    36    22    23    1
    37    15    21    1
@<TRIPOS>MOLECULE
*****
 34 37 0 0 0
SMALL
GASTEIGER

@<TRIPOS>ATOM
      1 C          -6.2486  -19.6877   21.1988 C.ar    1  UNL1        0.0951
      2 C          -6.2469  -20.6983   20.0903 C.ar    1  UNL1        0.1454
      3 F          -5.1011  -21.6561   19.9503 F       1  UNL1       -0.2040
      4 C          -7.3911  -20.7509   19.1218 C.ar    1  UNL1        0.0312
      5 C          -8.5369  -19.7931   19.2617 C.ar    1  UNL1        0.0204
      6 C          -8.5386  -18.7825   20.3702 C.ar    1  UNL1        0.0924
      7 C          -7.3944  -18.7299   21.3387 C.ar    1  UNL1        0.1598
      8 F          -7.3960  -17.7193   22.4473 F       1  UNL1       -0.2026
      9 O          -4.7918  -20.8258   23.0242 O.2     1  UNL1       -0.2864
     10 C          -5.1044  -19.6350   22.1674 C.2     1  UNL1        0.2016
     11 C          -4.2729  -18.3916   22.2790 C.ar    1  UNL1        0.0620
     12 C          -4.5434  -17.2287   23.1871 C.ar    1  UNL1        0.1038
     13 N          -3.4626  -16.2111   22.9714 N.ar    1  UNL1       -0.2268
     14 C          -2.5242  -16.7451   21.9302 C.ar    1  UNL1        0.1415
     15 N          -1.2784  -16.1784   21.3164 N.ar    1  UNL1       -0.3374
     16 C          -0.5334  -16.9593   20.2747 C.ar    1  UNL1        0.0744
     17 C          -1.0342  -18.3069   19.8468 C.ar    1  UNL1        0.0300
     18 C          -2.2800  -18.8736   20.4605 C.ar    1  UNL1        0.0622
     19 CL         -2.7808  -20.2212   20.0326 Cl      1  UNL1       -0.0821
     20 C          -3.0250  -18.0927   21.5022 C.ar    1  UNL1        0.0491
     21 H          -0.9497  -15.2939   21.5972 H       1  UNL1        0.1674
     22 N          -9.6844  -17.8247   20.5102 N.pl3   1  UNL1       -0.2127
     23 H          -9.7933  -17.0897   19.8642 H       1  UNL1        0.1738
     24 S         -10.6643  -17.9866   21.6342 S.O2    1  UNL1        0.0780
     25 O         -11.0442  -19.3390   21.1082 O.2     1  UNL1       -0.1498
     26 O         -10.2844  -16.6343   22.1603 O.2     1  UNL1       -0.1498
     27 C         -11.6442  -18.1485   22.7583 C.ar    1  UNL1        0.1797
     28 C         -11.1939  -18.7225   24.0690 C.ar    1  UNL1        0.1611
     29 F          -9.7637  -19.1346   24.2554 F       1  UNL1       -0.2027
     30 C         -12.1737  -18.8844   25.1932 C.ar    1  UNL1        0.0312
     31 C         -13.6038  -18.4723   25.0067 C.ar    1  UNL1        0.0047
     32 C         -14.0541  -17.8983   23.6961 C.ar    1  UNL1        0.0312
     33 C         -13.0743  -17.7364   22.5719 C.ar    1  UNL1        0.1611
     34 F         -13.5247  -17.1624   21.2613 F       1  UNL1       -0.2027
@<TRIPOS>BOND
     1     9    10    2
     2    10     1    1
     3     1     2   ar
     4     2     3    1
     5     2     4   ar
     6     4     5   ar
     7     5     6   ar
     8     6    22    1
     9    22    24    1
    10    24    25    2
    11    24    26    2
    12    24    27    1
    13    27    28   ar
    14    28    29    1
    15    28    30   ar
    16    30    31   ar
    17    31    32   ar
    18    32    33   ar
    19    33    34    1
    20     6     7   ar
    21     7     8    1
    22    10    11    1
    23    11    12   ar
    24    12    13   ar
    25    13    14   ar
    26    14    15   ar
    27    15    16   ar
    28    16    17   ar
    29    17    18   ar
    30    18    19    1
    31    18    20   ar
    32     7     1   ar
    33    20    11   ar
    34    33    27   ar
    35    20    14    1
    36    22    23    1
    37    15    21    1
@<TRIPOS>MOLECULE
*****
 34 37 0 0 0
SMALL
GASTEIGER

@<TRIPOS>ATOM
      1 C          -8.3371  -17.6610   21.8110 C.ar    1  UNL1        0.0951
      2 C          -8.5027  -16.3029   22.4259 C.ar    1  UNL1        0.1454
      3 F          -9.7730  -15.5338   22.2146 F       1  UNL1       -0.2040
      4 C          -7.3980  -15.7140   23.2522 C.ar    1  UNL1        0.0312
      5 C          -6.1276  -16.4832   23.4635 C.ar    1  UNL1        0.0204
      6 C          -5.9620  -17.8413   22.8485 C.ar    1  UNL1        0.0924
      7 C          -7.0667  -18.4301   22.0223 C.ar    1  UNL1        0.1598
      8 F          -6.9012  -19.7883   21.4073 F       1  UNL1       -0.2026
      9 O          -9.1171  -19.1644   19.8409 O.2     1  UNL1       -0.2864
     10 C          -9.4418  -18.2500   20.9846 C.2     1  UNL1        0.2016
     11 C         -10.8712  -17.9244   21.3022 C.ar    1  UNL1        0.0620
     12 C         -11.8444  -17.2422   20.3870 C.ar    1  UNL1        0.1038
     13 N         -13.1530  -17.1201   21.1098 N.ar    1  UNL1       -0.2268
     14 C         -12.9887  -17.7268   22.4718 C.ar    1  UNL1        0.1415
     15 N         -13.9409  -17.8909   23.6191 N.ar    1  UNL1       -0.3374
     16 C         -13.4829  -18.5520   24.8852 C.ar    1  UNL1        0.0744
     17 C         -12.0727  -19.0491   25.0040 C.ar    1  UNL1        0.0300
     18 C         -11.1204  -18.8851   23.8568 C.ar    1  UNL1        0.0622
     19 CL         -9.7102  -19.3822   23.9756 Cl      1  UNL1       -0.0821
     20 C         -11.5784  -18.2239   22.5906 C.ar    1  UNL1        0.0491
     21 H         -14.8665  -17.5646   23.5410 H       1  UNL1        0.1674
     22 N          -4.6917  -18.6104   23.0599 N.pl3   1  UNL1       -0.2127
     23 H          -4.6601  -19.3354   23.7252 H       1  UNL1        0.1738
     24 S          -3.4695  -18.2749   22.2576 S.O2    1  UNL1        0.0780
     25 O          -4.2491  -18.4653   20.9903 O.2     1  UNL1       -0.1498
     26 O          -2.6899  -18.0846   23.5248 O.2     1  UNL1       -0.1498
     27 C          -2.2473  -17.9394   21.4553 C.ar    1  UNL1        0.1797
     28 C          -1.7787  -16.5176   21.3616 C.ar    1  UNL1        0.1611
     29 F          -2.5323  -15.4313   22.0701 F       1  UNL1       -0.2027
     30 C          -0.5565  -16.1820   20.5594 C.ar    1  UNL1        0.0312
     31 C           0.1972  -17.2682   19.8509 C.ar    1  UNL1        0.0047
     32 C          -0.2714  -18.6901   19.9446 C.ar    1  UNL1        0.0312
     33 C          -1.4936  -19.0257   20.7468 C.ar    1  UNL1        0.1611
     34 F          -1.9622  -20.4476   20.8405 F       1  UNL1       -0.2027
@<TRIPOS>BOND
     1     9    10    2
     2    10     1    1
     3     1     2   ar
     4     2     3    1
     5     2     4   ar
     6     4     5   ar
     7     5     6   ar
     8     6    22    1
     9    22    24    1
    10    24    25    2
    11    24    26    2
    12    24    27    1
    13    27    28   ar
    14    28    29    1
    15    28    30   ar
    16    30    31   ar
    17    31    32   ar
    18    32    33   ar
    19    33    34    1
    20     6     7   ar
    21     7     8    1
    22    10    11    1
    23    11    12   ar
    24    12    13   ar
    25    13    14   ar
    26    14    15   ar
    27    15    16   ar
    28    16    17   ar
    29    17    18   ar
    30    18    19    1
    31    18    20   ar
    32     7     1   ar
    33    20    11   ar
    34    33    27   ar
    35    20    14    1
    36    22    23    1
    37    15    21    1
@<TRIPOS>MOLECULE
*****
 34 37 0 0 0
SMALL
GASTEIGER

@<TRIPOS>ATOM
      1 C          -7.4016  -16.9512   23.3023 C.ar    1  UNL1        0.0951
      2 C          -7.7050  -15.7398   24.1332 C.ar    1  UNL1        0.1454
      3 F          -9.1246  -15.2898   24.3127 F       1  UNL1       -0.2040
      4 C          -6.5888  -14.9785   24.7846 C.ar    1  UNL1        0.0312
      5 C          -5.1692  -15.4285   24.6051 C.ar    1  UNL1        0.0204
      6 C          -4.8658  -16.6399   23.7742 C.ar    1  UNL1        0.0924
      7 C          -5.9820  -17.4012   23.1228 C.ar    1  UNL1        0.1598
      8 F          -5.6787  -18.6127   22.2919 F       1  UNL1       -0.2026
      9 O          -8.6069  -17.7797   21.1551 O.2     1  UNL1       -0.2864
     10 C          -8.5179  -17.7126   22.6508 C.2     1  UNL1        0.2016
     11 C          -9.5450  -18.4069   23.4953 C.ar    1  UNL1        0.0620
     12 C          -9.2930  -19.5624   24.4179 C.ar    1  UNL1        0.1038
     13 N         -10.5967  -19.9371   25.0582 N.ar    1  UNL1       -0.2268
     14 C         -11.6544  -19.0132   24.5311 C.ar    1  UNL1        0.1415
     15 N         -13.1255  -18.9110   24.8060 N.ar    1  UNL1       -0.3374
     16 C         -13.9465  -17.8630   24.1150 C.ar    1  UNL1        0.0744
     17 C         -13.2964  -16.9172   23.1490 C.ar    1  UNL1        0.0300
     18 C         -11.8254  -17.0195   22.8741 C.ar    1  UNL1        0.0622
     19 CL        -11.1754  -16.0738   21.9082 Cl      1  UNL1       -0.0821
     20 C         -11.0044  -18.0675   23.5652 C.ar    1  UNL1        0.0491
     21 H         -13.5521  -19.5317   25.4400 H       1  UNL1        0.1674
     22 N          -3.4462  -17.0899   23.5947 N.pl3   1  UNL1       -0.2127
     23 H          -2.8685  -17.2220   24.3809 H       1  UNL1        0.1738
     24 S          -2.9068  -17.3388   22.2174 S.O2    1  UNL1        0.0780
     25 O          -2.7608  -18.7968   22.5380 O.2     1  UNL1       -0.1498
     26 O          -3.0527  -15.8808   21.8968 O.2     1  UNL1       -0.1498
     27 C          -2.3674  -17.5876   20.8401 C.ar    1  UNL1        0.1797
     28 C          -3.1679  -18.3855   19.8539 C.ar    1  UNL1        0.1611
     29 F          -4.5078  -18.9345   20.2451 F       1  UNL1       -0.2027
     30 C          -2.6286  -18.6343   18.4765 C.ar    1  UNL1        0.0312
     31 C          -1.2886  -18.0852   18.0852 C.ar    1  UNL1        0.0047
     32 C          -0.4881  -17.2873   19.0714 C.ar    1  UNL1        0.0312
     33 C          -1.0274  -17.0385   20.4488 C.ar    1  UNL1        0.1611
     34 F          -0.2268  -16.2406   21.4349 F       1  UNL1       -0.2027
@<TRIPOS>BOND
     1     9    10    2
     2    10     1    1
     3     1     2   ar
     4     2     3    1
     5     2     4   ar
     6     4     5   ar
     7     5     6   ar
     8     6    22    1
     9    22    24    1
    10    24    25    2
    11    24    26    2
    12    24    27    1
    13    27    28   ar
    14    28    29    1
    15    28    30   ar
    16    30    31   ar
    17    31    32   ar
    18    32    33   ar
    19    33    34    1
    20     6     7   ar
    21     7     8    1
    22    10    11    1
    23    11    12   ar
    24    12    13   ar
    25    13    14   ar
    26    14    15   ar
    27    15    16   ar
    28    16    17   ar
    29    17    18   ar
    30    18    19    1
    31    18    20   ar
    32     7     1   ar
    33    20    11   ar
    34    33    27   ar
    35    20    14    1
    36    22    23    1
    37    15    21    1
@<TRIPOS>MOLECULE
*****
 34 37 0 0 0
SMALL
GASTEIGER

@<TRIPOS>ATOM
      1 C         -11.5065   -4.7840   18.1552 C.ar    1  UNL1        0.0951
      2 C         -10.2144   -5.3740   18.6373 C.ar    1  UNL1        0.1454
      3 F          -9.1997   -4.5031   19.3170 F       1  UNL1       -0.2040
      4 C          -9.9371   -6.8348   18.4398 C.ar    1  UNL1        0.0312
      5 C         -10.9518   -7.7056   17.7601 C.ar    1  UNL1        0.0204
      6 C         -12.2439   -7.1157   17.2780 C.ar    1  UNL1        0.0924
      7 C         -12.5212   -5.6549   17.4755 C.ar    1  UNL1        0.1598
      8 F         -13.8133   -5.0648   16.9934 F       1  UNL1       -0.2026
      9 O         -10.8152   -2.2997   17.8389 O.2     1  UNL1       -0.2864
     10 C         -11.7839   -3.3231   18.3527 C.2     1  UNL1        0.2016
     11 C         -13.0300   -2.8858   19.0642 C.ar    1  UNL1        0.0620
     12 C         -13.3406   -3.1068   20.5149 C.ar    1  UNL1        0.1038
     13 N         -14.6868   -2.5083   20.7970 N.ar    1  UNL1       -0.2268
     14 C         -15.2081   -1.9174   19.5206 C.ar    1  UNL1        0.1415
     15 N         -16.4830   -1.1971   19.1952 N.ar    1  UNL1       -0.3374
     16 C         -16.7338   -0.7101   17.7989 C.ar    1  UNL1        0.0744
     17 C         -15.7098   -0.9435   16.7279 C.ar    1  UNL1        0.0300
     18 C         -14.4350   -1.6638   17.0533 C.ar    1  UNL1        0.0622
     19 CL        -13.4110   -1.8971   15.9823 Cl      1  UNL1       -0.0821
     20 C         -14.1841   -2.1508   18.4496 C.ar    1  UNL1        0.0491
     21 H         -17.1550   -1.0440   19.8982 H       1  UNL1        0.1674
     22 N         -13.2586   -7.9866   16.5983 N.pl3   1  UNL1       -0.2127
     23 H         -13.0773   -8.3438   15.6990 H       1  UNL1        0.1738
     24 S         -14.5495   -8.3131   17.2888 S.O2    1  UNL1        0.0780
     25 O         -13.7975   -8.6177   18.5505 O.2     1  UNL1       -0.1498
     26 O         -15.3014   -8.0086   16.0272 O.2     1  UNL1       -0.1498
     27 C         -15.8404   -8.6397   17.9793 C.ar    1  UNL1        0.1797
     28 C         -16.7489   -7.5354   18.4323 C.ar    1  UNL1        0.1611
     29 F         -16.3664   -6.1046   18.1948 F       1  UNL1       -0.2027
     30 C         -18.0399   -7.8619   19.1228 C.ar    1  UNL1        0.0312
     31 C         -18.4225   -9.2927   19.3603 C.ar    1  UNL1        0.0047
     32 C         -17.5139  -10.3970   18.9073 C.ar    1  UNL1        0.0312
     33 C         -16.2230  -10.0705   18.2168 C.ar    1  UNL1        0.1611
     34 F         -15.3145  -11.1749   17.7638 F       1  UNL1       -0.2027
@<TRIPOS>BOND
     1     9    10    2
     2    10     1    1
     3     1     2   ar
     4     2     3    1
     5     2     4   ar
     6     4     5   ar
     7     5     6   ar
     8     6    22    1
     9    22    24    1
    10    24    25    2
    11    24    26    2
    12    24    27    1
    13    27    28   ar
    14    28    29    1
    15    28    30   ar
    16    30    31   ar
    17    31    32   ar
    18    32    33   ar
    19    33    34    1
    20     6     7   ar
    21     7     8    1
    22    10    11    1
    23    11    12   ar
    24    12    13   ar
    25    13    14   ar
    26    14    15   ar
    27    15    16   ar
    28    16    17   ar
    29    17    18   ar
    30    18    19    1
    31    18    20   ar
    32     7     1   ar
    33    20    11   ar
    34    33    27   ar
    35    20    14    1
    36    22    23    1
    37    15    21    1
@<TRIPOS>MOLECULE
*****
 34 37 0 0 0
SMALL
GASTEIGER

@<TRIPOS>ATOM
      1 C           5.3682   -3.2325   23.0076 C.ar    1  UNL1        0.0951
      2 C           4.5639   -2.0974   23.5684 C.ar    1  UNL1        0.1454
      3 F           3.5940   -1.3609   22.6927 F       1  UNL1       -0.2040
      4 C           4.7297   -1.6987   25.0049 C.ar    1  UNL1        0.0312
      5 C           5.6996   -2.4351   25.8806 C.ar    1  UNL1        0.0204
      6 C           6.5039   -3.5703   25.3198 C.ar    1  UNL1        0.0924
      7 C           6.3382   -3.9690   23.8833 C.ar    1  UNL1        0.1598
      8 F           7.1424   -5.1042   23.3224 F       1  UNL1       -0.2026
      9 O           4.2346   -4.7157   21.2006 O.2     1  UNL1       -0.2864
     10 C           5.2025   -3.6313   21.5710 C.2     1  UNL1        0.2016
     11 C           6.0047   -2.9457   20.5050 C.ar    1  UNL1        0.0620
     12 C           7.4934   -3.0202   20.3367 C.ar    1  UNL1        0.1038
     13 N           7.8677   -2.1857   19.1479 N.ar    1  UNL1       -0.2268
     14 C           6.6105   -1.5955   18.5814 C.ar    1  UNL1        0.1415
     15 N           6.3654   -0.6910   17.4101 N.ar    1  UNL1       -0.3374
     16 C           4.9688   -0.2563   17.0777 C.ar    1  UNL1        0.0744
     17 C           3.8174   -0.7260   17.9165 C.ar    1  UNL1        0.0300
     18 C           4.0625   -1.6304   19.0877 C.ar    1  UNL1        0.0622
     19 CL          2.9110   -2.1001   19.9265 Cl      1  UNL1       -0.0821
     20 C           5.4590   -2.0652   19.4201 C.ar    1  UNL1        0.0491
     21 H           7.1211   -0.3827   16.8596 H       1  UNL1        0.1674
     22 N           7.4739   -4.3067   26.1955 N.pl3   1  UNL1       -0.2127
     23 H           8.2476   -4.7658   25.7956 H       1  UNL1        0.1738
     24 S           7.2650   -4.3436   27.6804 S.O2    1  UNL1        0.0780
     25 O           8.4489   -3.4420   27.8693 O.2     1  UNL1       -0.1498
     26 O           6.0812   -5.2452   27.4914 O.2     1  UNL1       -0.1498
     27 C           7.0561   -4.3806   29.1653 C.ar    1  UNL1        0.1797
     28 C           7.3816   -5.6246   29.9377 C.ar    1  UNL1        0.1611
     29 F           7.9160   -6.8315   29.2251 F       1  UNL1       -0.2027
     30 C           7.1727   -5.6617   31.4226 C.ar    1  UNL1        0.0312
     31 C           6.6383   -4.4548   32.1352 C.ar    1  UNL1        0.0047
     32 C           6.3128   -3.2108   31.3627 C.ar    1  UNL1        0.0312
     33 C           6.5217   -3.1737   29.8778 C.ar    1  UNL1        0.1611
     34 F           6.1962   -1.9297   29.1055 F       1  UNL1       -0.2027
@<TRIPOS>BOND
     1     9    10    2
     2    10     1    1
     3     1     2   ar
     4     2     3    1
     5     2     4   ar
     6     4     5   ar
     7     5     6   ar
     8     6    22    1
     9    22    24    1
    10    24    25    2
    11    24    26    2
    12    24    27    1
    13    27    28   ar
    14    28    29    1
    15    28    30   ar
    16    30    31   ar
    17    31    32   ar
    18    32    33   ar
    19    33    34    1
    20     6     7   ar
    21     7     8    1
    22    10    11    1
    23    11    12   ar
    24    12    13   ar
    25    13    14   ar
    26    14    15   ar
    27    15    16   ar
    28    16    17   ar
    29    17    18   ar
    30    18    19    1
    31    18    20   ar
    32     7     1   ar
    33    20    11   ar
    34    33    27   ar
    35    20    14    1
    36    22    23    1
    37    15    21    1
