@<TRIPOS>MOLECULE
*****
 14 14 0 0 0
SMALL
GASTEIGER

@<TRIPOS>ATOM
      1 C         -11.2684  -18.0894   23.5254 C.ar    1  UNL1        0.1286
      2 C         -12.5032  -18.0704   22.6740 C.ar    1  UNL1        0.0342
      3 C         -12.5430  -17.2347   21.4290 C.ar    1  UNL1        0.0089
      4 C         -11.3480  -16.4180   21.0354 C.ar    1  UNL1        0.0724
      5 C         -10.1132  -16.4371   21.8868 C.ar    1  UNL1        0.1048
      6 N         -10.0734  -17.2727   23.1318 N.ar    1  UNL1       -0.2292
      7 C         -11.3878  -15.5824   19.7904 C.2     1  UNL1        0.2443
      8 N         -12.6096  -15.5906   18.9203 N.am    1  UNL1       -0.3253
      9 O         -10.2057  -14.7385   19.4154 O.2     1  UNL1       -0.2703
     10 H         -13.3854  -16.1445   19.1664 H       1  UNL1        0.1453
     11 H         -12.6357  -15.0421   18.1031 H       1  UNL1        0.1453
     12 C         -10.1005  -19.8886   24.9913 C.3     1  UNL1        0.1096
     13 N         -11.2286  -18.9250   24.7705 N.pl3   1  UNL1       -0.3167
     14 H         -11.9430  -18.8411   25.4427 H       1  UNL1        0.1482
@<TRIPOS>BOND
     1    12    13    1
     2    13     1    1
     3     1     2   ar
     4     2     3   ar
     5     3     4   ar
     6     4     7    1
     7     7     8   am
     8     7     9    2
     9     4     5   ar
    10     5     6   ar
    11     6     1   ar
    12    13    14    1
    13     8    10    1
    14     8    11    1
@<TRIPOS>MOLECULE
*****
 14 14 0 0 0
SMALL
GASTEIGER

@<TRIPOS>ATOM
      1 C          -3.6986  -17.2963   22.9431 C.ar    1  UNL1        0.1286
      2 C          -3.5743  -18.7020   22.4348 C.ar    1  UNL1        0.0342
      3 C          -2.6415  -19.0099   21.3012 C.ar    1  UNL1        0.0089
      4 C          -1.8330  -17.9121   20.6759 C.ar    1  UNL1        0.0724
      5 C          -1.9573  -16.5063   21.1842 C.ar    1  UNL1        0.1048
      6 N          -2.8901  -16.1985   22.3178 N.ar    1  UNL1       -0.2292
      7 C          -0.9002  -18.2200   19.5422 C.2     1  UNL1        0.2443
      8 N          -1.2870  -17.8688   18.1362 N.am    1  UNL1       -0.3253
      9 O           0.4194  -18.8790   19.8147 O.2     1  UNL1       -0.2703
     10 H          -2.1531  -17.4363   17.9574 H       1  UNL1        0.1453
     11 H          -0.6748  -18.0709   17.3922 H       1  UNL1        0.1453
     12 C          -5.3012  -15.6485   24.1541 C.3     1  UNL1        0.1096
     13 N          -4.6314  -16.9884   24.0767 N.pl3   1  UNL1       -0.3167
     14 H          -4.8040  -17.6658   24.7700 H       1  UNL1        0.1482
@<TRIPOS>BOND
     1    12    13    1
     2    13     1    1
     3     1     2   ar
     4     2     3   ar
     5     3     4   ar
     6     4     7    1
     7     7     8   am
     8     7     9    2
     9     4     5   ar
    10     5     6   ar
    11     6     1   ar
    12    13    14    1
    13     8    10    1
    14     8    11    1
@<TRIPOS>MOLECULE
*****
 14 14 0 0 0
SMALL
GASTEIGER

@<TRIPOS>ATOM
      1 C         -11.9694  -16.9728   21.4607 C.ar    1  UNL1        0.1286
      2 C         -12.8487  -17.6955   22.4376 C.ar    1  UNL1        0.0342
      3 C         -12.2455  -18.3659   23.6362 C.ar    1  UNL1        0.0089
      4 C         -10.7629  -18.3137   23.8578 C.ar    1  UNL1        0.0724
      5 C          -9.8836  -17.5910   22.8808 C.ar    1  UNL1        0.1048
      6 N         -10.4868  -16.9206   21.6823 N.ar    1  UNL1       -0.2292
      7 C         -10.1596  -18.9841   25.0564 C.2     1  UNL1        0.2443
      8 N         -10.3460  -20.4579   25.2645 N.am    1  UNL1       -0.3253
      9 O          -9.3700  -18.1809   26.0469 O.2     1  UNL1       -0.2703
     10 H         -10.8643  -20.9851   24.6144 H       1  UNL1        0.1453
     11 H          -9.9501  -20.8979   26.0511 H       1  UNL1        0.1453
     12 C         -11.6858  -15.6701   19.2308 C.3     1  UNL1        0.1096
     13 N         -12.5727  -16.3024   20.2621 N.pl3   1  UNL1       -0.3167
     14 H         -13.5507  -16.2773   20.1523 H       1  UNL1        0.1482
@<TRIPOS>BOND
     1    12    13    1
     2    13     1    1
     3     1     2   ar
     4     2     3   ar
     5     3     4   ar
     6     4     7    1
     7     7     8   am
     8     7     9    2
     9     4     5   ar
    10     5     6   ar
    11     6     1   ar
    12    13    14    1
    13     8    10    1
    14     8    11    1
@<TRIPOS>MOLECULE
*****
 14 14 0 0 0
SMALL
GASTEIGER

@<TRIPOS>ATOM
      1 C          -5.0448  -19.2601   21.5010 C.ar    1  UNL1        0.1286
      2 C          -3.7307  -19.3845   22.2133 C.ar    1  UNL1        0.0342
      3 C          -2.4523  -19.0905   21.4857 C.ar    1  UNL1        0.0089
      4 C          -2.4882  -18.6722   20.0457 C.ar    1  UNL1        0.0724
      5 C          -3.8023  -18.5478   19.3333 C.ar    1  UNL1        0.1048
      6 N          -5.0806  -18.8418   20.0610 N.ar    1  UNL1       -0.2292
      7 C          -1.2099  -18.3782   19.3180 C.2     1  UNL1        0.2443
      8 N          -1.2461  -17.6846   17.9886 N.am    1  UNL1       -0.3253
      9 O           0.1047  -18.7779   19.9198 O.2     1  UNL1       -0.2703
     10 H          -2.1089  -17.4223   17.5935 H       1  UNL1        0.1453
     11 H          -0.4071  -17.4916   17.5110 H       1  UNL1        0.1453
     12 C          -7.5993  -18.8925   21.8001 C.3     1  UNL1        0.1096
     13 N          -6.3231  -19.5541   22.2287 N.pl3   1  UNL1       -0.3167
     14 H          -6.3245  -20.1813   22.9875 H       1  UNL1        0.1482
@<TRIPOS>BOND
     1    12    13    1
     2    13     1    1
     3     1     2   ar
     4     2     3   ar
     5     3     4   ar
     6     4     7    1
     7     7     8   am
     8     7     9    2
     9     4     5   ar
    10     5     6   ar
    11     6     1   ar
    12    13    14    1
    13     8    10    1
    14     8    11    1
@<TRIPOS>MOLECULE
*****
 14 14 0 0 0
SMALL
GASTEIGER

@<TRIPOS>ATOM
      1 C          -7.8246  -15.5772   22.9592 C.ar    1  UNL1        0.1286
      2 C          -8.5711  -16.1364   24.1339 C.ar    1  UNL1        0.0342
      3 C          -9.9364  -16.7275   23.9426 C.ar    1  UNL1        0.0089
      4 C         -10.5552  -16.7594   22.5766 C.ar    1  UNL1        0.0724
      5 C          -9.8087  -16.2002   21.4019 C.ar    1  UNL1        0.1048
      6 N          -8.4434  -15.6091   21.5932 N.ar    1  UNL1       -0.2292
      7 C         -11.9205  -17.3505   22.3853 C.2     1  UNL1        0.2443
      8 N         -12.5713  -17.3135   21.0344 N.am    1  UNL1       -0.3253
      9 O         -12.6351  -17.9785   23.5450 O.2     1  UNL1       -0.2703
     10 H         -12.1023  -16.9013   20.2732 H       1  UNL1        0.1453
     11 H         -13.4673  -17.7015   20.9089 H       1  UNL1        0.1453
     12 C          -5.5002  -15.6118   24.1192 C.3     1  UNL1        0.1096
     13 N          -6.4593  -14.9862   23.1505 N.pl3   1  UNL1       -0.3167
     14 H          -6.1928  -14.1875   22.6402 H       1  UNL1        0.1482
@<TRIPOS>BOND
     1    12    13    1
     2    13     1    1
     3     1     2   ar
     4     2     3   ar
     5     3     4   ar
     6     4     7    1
     7     7     8   am
     8     7     9    2
     9     4     5   ar
    10     5     6   ar
    11     6     1   ar
    12    13    14    1
    13     8    10    1
    14     8    11    1
@<TRIPOS>MOLECULE
*****
 14 14 0 0 0
SMALL
GASTEIGER

@<TRIPOS>ATOM
      1 C          -6.9165  -18.7308   21.0560 C.ar    1  UNL1        0.1286
      2 C          -6.0380  -19.4802   20.0986 C.ar    1  UNL1        0.0342
      3 C          -4.5712  -19.6205   20.3792 C.ar    1  UNL1        0.0089
      4 C          -3.9828  -19.0113   21.6171 C.ar    1  UNL1        0.0724
      5 C          -4.8612  -18.2619   22.5745 C.ar    1  UNL1        0.1048
      6 N          -6.3280  -18.1216   22.2939 N.ar    1  UNL1       -0.2292
      7 C          -2.5159  -19.1515   21.8977 C.2     1  UNL1        0.2443
      8 N          -1.7817  -18.0580   22.6154 N.am    1  UNL1       -0.3253
      9 O          -1.7833  -20.3853   21.4606 O.2     1  UNL1       -0.2703
     10 H          -2.2625  -17.2483   22.9023 H       1  UNL1        0.1453
     11 H          -0.8190  -18.1501   22.7995 H       1  UNL1        0.1453
     12 C          -9.0336  -19.4527   19.7344 C.3     1  UNL1        0.1096
     13 N          -8.3833  -18.5906   20.7754 N.pl3   1  UNL1       -0.3167
     14 H          -8.9192  -17.9326   21.2745 H       1  UNL1        0.1482
@<TRIPOS>BOND
     1    12    13    1
     2    13     1    1
     3     1     2   ar
     4     2     3   ar
     5     3     4   ar
     6     4     7    1
     7     7     8   am
     8     7     9    2
     9     4     5   ar
    10     5     6   ar
    11     6     1   ar
    12    13    14    1
    13     8    10    1
    14     8    11    1
@<TRIPOS>MOLECULE
*****
 14 14 0 0 0
SMALL
GASTEIGER

@<TRIPOS>ATOM
      1 C         -10.0272  -16.6733   22.0425 C.ar    1  UNL1        0.1286
      2 C         -10.2747  -16.9079   23.5032 C.ar    1  UNL1        0.0342
      3 C          -9.2853  -16.4195   24.5194 C.ar    1  UNL1        0.0089
      4 C          -8.0485  -15.6966   24.0750 C.ar    1  UNL1        0.0724
      5 C          -7.8010  -15.4620   22.6143 C.ar    1  UNL1        0.1048
      6 N          -8.7904  -15.9504   21.5981 N.ar    1  UNL1       -0.2292
      7 C          -7.0591  -15.2083   25.0912 C.2     1  UNL1        0.2443
      8 N          -7.4670  -15.0677   26.5278 N.am    1  UNL1       -0.3253
      9 O          -5.6619  -14.8605   24.6708 O.2     1  UNL1       -0.2703
     10 H          -8.3841  -15.2960   26.8037 H       1  UNL1        0.1453
     11 H          -6.8177  -14.7472   27.1947 H       1  UNL1        0.1453
     12 C         -12.3828  -17.6025   21.4612 C.3     1  UNL1        0.1096
     13 N         -11.0166  -17.1616   21.0263 N.pl3   1  UNL1       -0.3167
     14 H         -10.7692  -17.1928   20.0739 H       1  UNL1        0.1482
@<TRIPOS>BOND
     1    12    13    1
     2    13     1    1
     3     1     2   ar
     4     2     3   ar
     5     3     4   ar
     6     4     7    1
     7     7     8   am
     8     7     9    2
     9     4     5   ar
    10     5     6   ar
    11     6     1   ar
    12    13    14    1
    13     8    10    1
    14     8    11    1
@<TRIPOS>MOLECULE
*****
 14 14 0 0 0
SMALL
GASTEIGER

@<TRIPOS>ATOM
      1 C          -8.2919  -19.0895   20.5344 C.ar    1  UNL1        0.1286
      2 C          -9.4659  -19.3958   19.6524 C.ar    1  UNL1        0.0342
      3 C         -10.6804  -18.5161   19.6879 C.ar    1  UNL1        0.0089
      4 C         -10.7208  -17.3301   20.6054 C.ar    1  UNL1        0.0724
      5 C          -9.5468  -17.0239   21.4873 C.ar    1  UNL1        0.1048
      6 N          -8.3324  -17.9036   21.4518 N.ar    1  UNL1       -0.2292
      7 C         -11.9352  -16.4504   20.6409 C.2     1  UNL1        0.2443
      8 N         -12.4928  -15.8899   19.3663 N.am    1  UNL1       -0.3253
      9 O         -12.5921  -16.1313   21.9511 O.2     1  UNL1       -0.2703
     10 H         -12.0617  -16.0993   18.5063 H       1  UNL1        0.1453
     11 H         -13.2899  -15.3125   19.3896 H       1  UNL1        0.1453
     12 C          -6.2733  -20.1882   21.7459 C.3     1  UNL1        0.1096
     13 N          -7.0775  -19.9692   20.4988 N.pl3   1  UNL1       -0.3167
     14 H          -6.8082  -20.4029   19.6570 H       1  UNL1        0.1482
@<TRIPOS>BOND
     1    12    13    1
     2    13     1    1
     3     1     2   ar
     4     2     3   ar
     5     3     4   ar
     6     4     7    1
     7     7     8   am
     8     7     9    2
     9     4     5   ar
    10     5     6   ar
    11     6     1   ar
    12    13    14    1
    13     8    10    1
    14     8    11    1
@<TRIPOS>MOLECULE
*****
 14 14 0 0 0
SMALL
GASTEIGER

@<TRIPOS>ATOM
      1 C          -7.4504  -18.1437   22.0888 C.ar    1  UNL1        0.1286
      2 C          -8.2672  -19.3478   22.4535 C.ar    1  UNL1        0.0342
      3 C          -9.7644  -19.2599   22.4754 C.ar    1  UNL1        0.0089
      4 C         -10.4450  -17.9679   22.1327 C.ar    1  UNL1        0.0724
      5 C          -9.6282  -16.7638   21.7680 C.ar    1  UNL1        0.1048
      6 N          -8.1310  -16.8517   21.7461 N.ar    1  UNL1       -0.2292
      7 C         -11.9422  -17.8800   22.1546 C.2     1  UNL1        0.2443
      8 N         -12.6901  -18.1385   23.4288 N.am    1  UNL1       -0.3253
      9 O         -12.6916  -17.5336   20.9022 O.2     1  UNL1       -0.2703
     10 H         -12.1983  -18.3658   24.2508 H       1  UNL1        0.1453
     11 H         -13.6728  -18.0808   23.4432 H       1  UNL1        0.1453
     12 C          -5.2802  -19.5720   22.0903 C.3     1  UNL1        0.1096
     13 N          -5.9532  -18.2317   22.0669 N.pl3   1  UNL1       -0.3167
     14 H          -5.4122  -17.4096   22.0372 H       1  UNL1        0.1482
@<TRIPOS>BOND
     1    12    13    1
     2    13     1    1
     3     1     2   ar
     4     2     3   ar
     5     3     4   ar
     6     4     7    1
     7     7     8   am
     8     7     9    2
     9     4     5   ar
    10     5     6   ar
    11     6     1   ar
    12    13    14    1
    13     8    10    1
    14     8    11    1
