@<TRIPOS>MOLECULE
*****
 28 30 0 0 0
SMALL
GASTEIGER

@<TRIPOS>ATOM
      1 O          -5.5200  -15.8542   24.1539 O.3     1  UNL1       -0.4535
      2 C          -4.3620  -16.3190   23.3214 C.ar    1  UNL1        0.2283
      3 C          -4.0913  -17.7861   23.1656 C.ar    1  UNL1        0.0945
      4 C          -2.9333  -18.2509   22.3331 C.ar    1  UNL1        0.1448
      5 C          -2.0460  -17.2485   21.6563 C.ar    1  UNL1        0.0578
      6 C          -2.3167  -15.7813   21.8122 C.ar    1  UNL1        0.1052
      7 N          -3.4747  -15.3166   22.6447 N.ar    1  UNL1       -0.2099
      8 O          -2.6627  -19.7180   22.1773 O.3     1  UNL1       -0.4752
      9 C          -2.6985  -20.3468   20.8159 C.3     1  UNL1        0.2078
     10 C          -4.0138  -20.5964   20.1394 C.3     1  UNL1        0.0742
     11 C          -4.9936  -19.4737   19.9673 C.3     1  UNL1        0.0921
     12 C          -5.9919  -20.2166   20.8050 C.3     1  UNL1        0.0294
     13 C          -3.9953  -18.7309   19.1297 C.3     1  UNL1        0.0294
     14 O          -5.9734  -18.3511   19.7952 O.3     1  UNL1       -0.3866
     15 H          -6.7932  -18.5620   20.2688 H       1  UNL1        0.2102
     16 C          -6.8029  -15.4458   23.4927 C.3     1  UNL1        0.2523
     17 C          -8.6147  -16.3718   25.6972 C.3     1  UNL1        0.0358
     18 C          -8.7677  -16.9337   24.3148 C.2     1  UNL1        0.0342
     19 C          -7.8618  -16.4707   23.2125 C.2     1  UNL1        0.1014
     20 N          -8.0147  -17.0326   21.8302 N.2     1  UNL1       -0.2501
     21 C          -9.0735  -18.0575   21.5501 C.2     1  UNL1        0.0661
     22 C          -9.2264  -18.6194   20.1678 C.3     1  UNL1        0.0718
     23 C         -10.2852  -19.6443   19.8877 C.2     1  UNL1       -0.0198
     24 C         -11.1911  -20.1073   20.9900 C.2     1  UNL1       -0.0040
     25 C         -11.0382  -19.5454   22.3723 C.2     1  UNL1        0.0040
     26 C          -9.9794  -18.5206   22.6524 C.2     1  UNL1        0.0525
     27 C          -9.8265  -17.9586   24.0347 C.2     1  UNL1        0.1940
     28 O         -10.7324  -18.4216   25.1370 O.2     1  UNL1       -0.2868
@<TRIPOS>BOND
     1    17    18    1
     2    18    19    2
     3    19    16    1
     4    16     1    1
     5     1     2    1
     6     2     3   ar
     7     3     4   ar
     8     4     8    1
     9     8     9    1
    10     9    10    1
    11    10    11    1
    12    11    12    1
    13    11    13    1
    14    11    14    1
    15     4     5   ar
    16     5     6   ar
    17     6     7   ar
    18    19    20    1
    19    20    21    2
    20    21    22    1
    21    22    23    1
    22    23    24    2
    23    24    25    1
    24    25    26    2
    25    26    27    1
    26    27    28    2
    27    27    18    1
    28     7     2   ar
    29    26    21    1
    30    14    15    1
@<TRIPOS>MOLECULE
*****
 28 30 0 0 0
SMALL
GASTEIGER

@<TRIPOS>ATOM
      1 O          -5.5426  -20.4974   22.0401 O.3     1  UNL1       -0.4535
      2 C          -4.5440  -19.3959   22.2390 C.ar    1  UNL1        0.2283
      3 C          -4.9937  -18.0593   22.7500 C.ar    1  UNL1        0.0945
      4 C          -3.9951  -16.9578   22.9489 C.ar    1  UNL1        0.1448
      5 C          -2.5469  -17.1929   22.6367 C.ar    1  UNL1        0.0578
      6 C          -2.0973  -18.5296   22.1256 C.ar    1  UNL1        0.1052
      7 N          -3.0958  -19.6311   21.9268 N.ar    1  UNL1       -0.2099
      8 O          -4.4448  -15.6212   23.4600 O.3     1  UNL1       -0.4752
      9 C          -5.2439  -15.5325   24.7263 C.3     1  UNL1        0.2078
     10 C          -6.7306  -15.3439   24.6634 C.3     1  UNL1        0.0742
     11 C          -7.5607  -15.5092   25.9017 C.3     1  UNL1        0.0921
     12 C          -8.7929  -15.6465   25.0574 C.3     1  UNL1        0.0294
     13 C          -6.3285  -15.3719   26.7460 C.3     1  UNL1        0.0294
     14 O          -8.3908  -15.6744   27.1401 O.3     1  UNL1       -0.3866
     15 H          -9.3210  -15.7938   26.8923 H       1  UNL1        0.2102
     16 C          -6.5746  -20.3877   20.9571 C.3     1  UNL1        0.2523
     17 C          -8.3911  -19.4910   18.7443 C.3     1  UNL1        0.0358
     18 C          -8.8523  -19.4169   20.1698 C.2     1  UNL1        0.0342
     19 C          -7.9440  -19.8652   21.2762 C.2     1  UNL1        0.1014
     20 N          -8.4051  -19.7911   22.7016 N.2     1  UNL1       -0.2501
     21 C          -9.7745  -19.2686   23.0207 C.2     1  UNL1        0.0661
     22 C         -10.2356  -19.1945   24.4461 C.3     1  UNL1        0.0718
     23 C         -11.6050  -18.6721   24.7652 C.2     1  UNL1       -0.0198
     24 C         -12.5132  -18.2238   23.6588 C.2     1  UNL1       -0.0040
     25 C         -12.0522  -18.2979   22.2334 C.2     1  UNL1        0.0040
     26 C         -10.6828  -18.8203   21.9143 C.2     1  UNL1        0.0525
     27 C         -10.2216  -18.8944   20.4889 C.2     1  UNL1        0.1940
     28 O         -11.1299  -18.4461   19.3825 O.2     1  UNL1       -0.2868
@<TRIPOS>BOND
     1    17    18    1
     2    18    19    2
     3    19    16    1
     4    16     1    1
     5     1     2    1
     6     2     3   ar
     7     3     4   ar
     8     4     8    1
     9     8     9    1
    10     9    10    1
    11    10    11    1
    12    11    12    1
    13    11    13    1
    14    11    14    1
    15     4     5   ar
    16     5     6   ar
    17     6     7   ar
    18    19    20    1
    19    20    21    2
    20    21    22    1
    21    22    23    1
    22    23    24    2
    23    24    25    1
    24    25    26    2
    25    26    27    1
    26    27    28    2
    27    27    18    1
    28     7     2   ar
    29    26    21    1
    30    14    15    1
@<TRIPOS>MOLECULE
*****
 28 30 0 0 0
SMALL
GASTEIGER

@<TRIPOS>ATOM
      1 O          -5.1723  -14.9561   23.5552 O.3     1  UNL1       -0.4535
      2 C          -6.5498  -15.3428   24.0057 C.ar    1  UNL1        0.2283
      3 C          -7.5512  -15.8461   23.0089 C.ar    1  UNL1        0.0945
      4 C          -8.9288  -16.2328   23.4595 C.ar    1  UNL1        0.1448
      5 C          -9.3048  -16.1162   24.9069 C.ar    1  UNL1        0.0578
      6 C          -8.3032  -15.6129   25.9038 C.ar    1  UNL1        0.1052
      7 N          -6.9258  -15.2262   25.4532 N.ar    1  UNL1       -0.2099
      8 O          -9.9302  -16.7361   22.4626 O.3     1  UNL1       -0.4752
      9 C          -9.8812  -18.1640   22.0057 C.3     1  UNL1        0.2078
     10 C         -10.7543  -19.1919   22.6622 C.3     1  UNL1        0.0742
     11 C         -10.4973  -19.5968   24.0835 C.3     1  UNL1        0.0921
     12 C          -9.2443  -20.3019   23.6561 C.3     1  UNL1        0.0294
     13 C         -11.7504  -18.8917   24.5109 C.3     1  UNL1        0.0294
     14 O         -10.2404  -20.0017   25.5048 O.3     1  UNL1       -0.3866
     15 H          -9.4211  -20.5189   25.5506 H       1  UNL1        0.2102
     16 C          -4.0515  -15.9501   23.6317 C.3     1  UNL1        0.2523
     17 C          -1.7153  -16.1908   21.7651 C.3     1  UNL1        0.0358
     18 C          -2.8193  -17.2054   21.7197 C.2     1  UNL1        0.0342
     19 C          -3.9874  -17.0850   22.6530 C.2     1  UNL1        0.1014
     20 N          -5.0913  -18.0995   22.6076 N.2     1  UNL1       -0.2501
     21 C          -5.0272  -19.2345   21.6288 C.2     1  UNL1        0.0661
     22 C          -6.1311  -20.2490   21.5834 C.3     1  UNL1        0.0718
     23 C          -6.0669  -21.3838   20.6047 C.2     1  UNL1       -0.0198
     24 C          -4.8988  -21.5042   19.6714 C.2     1  UNL1       -0.0040
     25 C          -3.7949  -20.4897   19.7168 C.2     1  UNL1        0.0040
     26 C          -3.8591  -19.3548   20.6955 C.2     1  UNL1        0.0525
     27 C          -2.7551  -18.3403   20.7410 C.2     1  UNL1        0.1940
     28 O          -1.5870  -18.4606   19.8077 O.2     1  UNL1       -0.2868
@<TRIPOS>BOND
     1    17    18    1
     2    18    19    2
     3    19    16    1
     4    16     1    1
     5     1     2    1
     6     2     3   ar
     7     3     4   ar
     8     4     8    1
     9     8     9    1
    10     9    10    1
    11    10    11    1
    12    11    12    1
    13    11    13    1
    14    11    14    1
    15     4     5   ar
    16     5     6   ar
    17     6     7   ar
    18    19    20    1
    19    20    21    2
    20    21    22    1
    21    22    23    1
    22    23    24    2
    23    24    25    1
    24    25    26    2
    25    26    27    1
    26    27    28    2
    27    27    18    1
    28     7     2   ar
    29    26    21    1
    30    14    15    1
@<TRIPOS>MOLECULE
*****
 28 30 0 0 0
SMALL
GASTEIGER

@<TRIPOS>ATOM
      1 O          -6.4767  -20.2130   21.4616 O.3     1  UNL1       -0.4535
      2 C          -5.2700  -19.4156   21.8591 C.ar    1  UNL1        0.2283
      3 C          -5.4137  -18.2567   22.8004 C.ar    1  UNL1        0.0945
      4 C          -4.2070  -17.4592   23.1980 C.ar    1  UNL1        0.1448
      5 C          -2.8566  -17.8208   22.6542 C.ar    1  UNL1        0.0578
      6 C          -2.7129  -18.9798   21.7128 C.ar    1  UNL1        0.1052
      7 N          -3.9196  -19.7772   21.3153 N.ar    1  UNL1       -0.2099
      8 O          -4.3507  -16.3003   24.1393 O.3     1  UNL1       -0.4752
      9 C          -5.5122  -15.3613   24.0009 C.3     1  UNL1        0.2078
     10 C          -6.5519  -15.2902   25.0798 C.3     1  UNL1        0.0742
     11 C          -8.0048  -15.4222   24.7312 C.3     1  UNL1        0.0921
     12 C          -8.3483  -15.4928   26.1896 C.3     1  UNL1        0.0294
     13 C          -7.6613  -15.3515   23.2728 C.3     1  UNL1        0.0294
     14 O          -9.4577  -15.5542   24.3826 O.3     1  UNL1       -0.3866
     15 H          -9.9804  -15.6257   25.1966 H       1  UNL1        0.2102
     16 C          -7.5913  -20.4262   22.4425 C.3     1  UNL1        0.2523
     17 C          -9.6109  -20.5239   24.6588 C.3     1  UNL1        0.0358
     18 C          -9.8374  -19.6287   23.4766 C.2     1  UNL1        0.0342
     19 C          -8.8276  -19.5798   22.3685 C.2     1  UNL1        0.1014
     20 N          -9.0540  -18.6847   21.1864 N.2     1  UNL1       -0.2501
     21 C         -10.2903  -17.8383   21.1124 C.2     1  UNL1        0.0661
     22 C         -10.5168  -16.9432   19.9303 C.3     1  UNL1        0.0718
     23 C         -11.7530  -16.0969   19.8563 C.2     1  UNL1       -0.0198
     24 C         -12.7627  -16.1458   20.9645 C.2     1  UNL1       -0.0040
     25 C         -12.5363  -17.0409   22.1465 C.2     1  UNL1        0.0040
     26 C         -11.3001  -17.8872   22.2205 C.2     1  UNL1        0.0525
     27 C         -11.0736  -18.7824   23.4027 C.2     1  UNL1        0.1940
     28 O         -12.0834  -18.8313   24.5108 O.2     1  UNL1       -0.2868
@<TRIPOS>BOND
     1    17    18    1
     2    18    19    2
     3    19    16    1
     4    16     1    1
     5     1     2    1
     6     2     3   ar
     7     3     4   ar
     8     4     8    1
     9     8     9    1
    10     9    10    1
    11    10    11    1
    12    11    12    1
    13    11    13    1
    14    11    14    1
    15     4     5   ar
    16     5     6   ar
    17     6     7   ar
    18    19    20    1
    19    20    21    2
    20    21    22    1
    21    22    23    1
    22    23    24    2
    23    24    25    1
    24    25    26    2
    25    26    27    1
    26    27    28    2
    27    27    18    1
    28     7     2   ar
    29    26    21    1
    30    14    15    1
@<TRIPOS>MOLECULE
*****
 28 30 0 0 0
SMALL
GASTEIGER

@<TRIPOS>ATOM
      1 O          -8.3370  -18.9053   19.5855 O.3     1  UNL1       -0.4535
      2 C          -9.3910  -18.6798   20.6286 C.ar    1  UNL1        0.2283
      3 C          -9.2203  -17.5887   21.6436 C.ar    1  UNL1        0.0945
      4 C         -10.2744  -17.3631   22.6868 C.ar    1  UNL1        0.1448
      5 C         -11.4992  -18.2287   22.7148 C.ar    1  UNL1        0.0578
      6 C         -11.6698  -19.3198   21.6997 C.ar    1  UNL1        0.1052
      7 N         -10.6158  -19.5453   20.6566 N.ar    1  UNL1       -0.2099
      8 O         -10.1037  -16.2721   23.7018 O.3     1  UNL1       -0.4752
      9 C          -9.0725  -16.4078   24.7826 C.3     1  UNL1        0.2078
     10 C          -8.0879  -15.3020   25.0230 C.3     1  UNL1        0.0742
     11 C          -6.6259  -15.6134   25.1478 C.3     1  UNL1        0.0921
     12 C          -6.5116  -15.6757   23.6535 C.3     1  UNL1        0.0294
     13 C          -6.7403  -15.5511   26.6422 C.3     1  UNL1        0.0294
     14 O          -5.1639  -15.9248   25.2727 O.3     1  UNL1       -0.3866
     15 H          -4.7791  -16.0299   24.3886 H       1  UNL1        0.2102
     16 C          -7.2241  -19.8779   19.8418 C.3     1  UNL1        0.2523
     17 C          -6.7278  -19.4352   22.7671 C.3     1  UNL1        0.0358
     18 C          -5.6395  -19.1610   21.7718 C.2     1  UNL1        0.0342
     19 C          -5.8877  -19.3823   20.3092 C.2     1  UNL1        0.1014
     20 N          -4.7995  -19.1081   19.3139 N.2     1  UNL1       -0.2501
     21 C          -3.4630  -18.6125   19.7813 C.2     1  UNL1        0.0661
     22 C          -2.3748  -18.3383   18.7860 C.3     1  UNL1        0.0718
     23 C          -1.0385  -17.8428   19.2534 C.2     1  UNL1       -0.0198
     24 C          -0.7903  -17.6214   20.7161 C.2     1  UNL1       -0.0040
     25 C          -1.8785  -17.8956   21.7114 C.2     1  UNL1        0.0040
     26 C          -3.2149  -18.3912   21.2440 C.2     1  UNL1        0.0525
     27 C          -4.3032  -18.6654   22.2392 C.2     1  UNL1        0.1940
     28 O          -4.0550  -18.4440   23.7019 O.2     1  UNL1       -0.2868
@<TRIPOS>BOND
     1    17    18    1
     2    18    19    2
     3    19    16    1
     4    16     1    1
     5     1     2    1
     6     2     3   ar
     7     3     4   ar
     8     4     8    1
     9     8     9    1
    10     9    10    1
    11    10    11    1
    12    11    12    1
    13    11    13    1
    14    11    14    1
    15     4     5   ar
    16     5     6   ar
    17     6     7   ar
    18    19    20    1
    19    20    21    2
    20    21    22    1
    21    22    23    1
    22    23    24    2
    23    24    25    1
    24    25    26    2
    25    26    27    1
    26    27    28    2
    27    27    18    1
    28     7     2   ar
    29    26    21    1
    30    14    15    1
@<TRIPOS>MOLECULE
*****
 28 30 0 0 0
SMALL
GASTEIGER

@<TRIPOS>ATOM
      1 O         -11.1687  -19.3874   22.6074 O.3     1  UNL1       -0.4535
      2 C         -10.1991  -19.5524   21.4750 C.ar    1  UNL1        0.2283
      3 C          -8.7237  -19.5570   21.7457 C.ar    1  UNL1        0.0945
      4 C          -7.7539  -19.7220   20.6132 C.ar    1  UNL1        0.1448
      5 C          -8.2596  -19.8824   19.2101 C.ar    1  UNL1        0.0578
      6 C          -9.7350  -19.8777   18.9395 C.ar    1  UNL1        0.1052
      7 N         -10.7047  -19.7127   20.0719 N.ar    1  UNL1       -0.2099
      8 O          -6.2786  -19.7267   20.8838 O.3     1  UNL1       -0.4752
      9 C          -5.7317  -18.9926   22.0722 C.3     1  UNL1        0.2078
     10 C          -4.3746  -19.3396   22.6086 C.3     1  UNL1        0.0742
     11 C          -3.2662  -18.3303   22.5544 C.3     1  UNL1        0.0921
     12 C          -4.0902  -17.3814   23.3734 C.3     1  UNL1        0.0294
     13 C          -2.4423  -19.2792   21.7354 C.3     1  UNL1        0.0294
     14 O          -2.1579  -17.3211   22.5002 O.3     1  UNL1       -0.3866
     15 H          -2.4213  -16.5250   22.9878 H       1  UNL1        0.2102
     16 C         -11.3473  -18.0450   23.2524 C.3     1  UNL1        0.2523
     17 C          -9.8417  -16.2765   21.3535 C.3     1  UNL1        0.0358
     18 C          -9.3977  -16.3935   22.7816 C.2     1  UNL1        0.0342
     19 C         -10.1504  -17.2777   23.7310 C.2     1  UNL1        0.1014
     20 N          -9.7064  -17.3947   25.1590 N.2     1  UNL1       -0.2501
     21 C          -8.5095  -16.6275   25.6375 C.2     1  UNL1        0.0661
     22 C          -8.0655  -16.7445   27.0655 C.3     1  UNL1        0.0718
     23 C          -6.8687  -15.9773   27.5440 C.2     1  UNL1       -0.0198
     24 C          -6.1160  -15.0930   26.5946 C.2     1  UNL1       -0.0040
     25 C          -6.5600  -14.9760   25.1666 C.2     1  UNL1        0.0040
     26 C          -7.7568  -15.7432   24.6881 C.2     1  UNL1        0.0525
     27 C          -8.2009  -15.6262   23.2601 C.2     1  UNL1        0.1940
     28 O          -7.4481  -14.7420   22.3106 O.2     1  UNL1       -0.2868
@<TRIPOS>BOND
     1    17    18    1
     2    18    19    2
     3    19    16    1
     4    16     1    1
     5     1     2    1
     6     2     3   ar
     7     3     4   ar
     8     4     8    1
     9     8     9    1
    10     9    10    1
    11    10    11    1
    12    11    12    1
    13    11    13    1
    14    11    14    1
    15     4     5   ar
    16     5     6   ar
    17     6     7   ar
    18    19    20    1
    19    20    21    2
    20    21    22    1
    21    22    23    1
    22    23    24    2
    23    24    25    1
    24    25    26    2
    25    26    27    1
    26    27    28    2
    27    27    18    1
    28     7     2   ar
    29    26    21    1
    30    14    15    1
@<TRIPOS>MOLECULE
*****
 28 30 0 0 0
SMALL
GASTEIGER

@<TRIPOS>ATOM
      1 O          -5.1901  -15.2106   23.9868 O.3     1  UNL1       -0.4535
      2 C          -6.2496  -15.5123   25.0048 C.ar    1  UNL1        0.2283
      3 C          -7.5274  -16.1754   24.5835 C.ar    1  UNL1        0.0945
      4 C          -8.5869  -16.4771   25.6015 C.ar    1  UNL1        0.1448
      5 C          -8.3687  -16.1157   27.0409 C.ar    1  UNL1        0.0578
      6 C          -7.0908  -15.4525   27.4622 C.ar    1  UNL1        0.1052
      7 N          -6.0314  -15.1508   26.4442 N.ar    1  UNL1       -0.2099
      8 O          -9.8647  -17.1403   25.1802 O.3     1  UNL1       -0.4752
      9 C         -10.1094  -17.4450   23.7321 C.3     1  UNL1        0.2078
     10 C         -10.8561  -16.4660   22.8754 C.3     1  UNL1        0.0742
     11 C         -11.9042  -16.9530   21.9192 C.3     1  UNL1        0.0921
     12 C         -11.2039  -16.2506   20.7939 C.3     1  UNL1        0.0294
     13 C         -12.6045  -17.6553   23.0445 C.3     1  UNL1        0.0294
     14 O         -12.9523  -17.4399   20.9630 O.3     1  UNL1       -0.3866
     15 H         -12.7513  -17.1167   20.0708 H       1  UNL1        0.2102
     16 C          -4.0742  -16.1856   23.7541 C.3     1  UNL1        0.2523
     17 C          -1.7586  -17.9347   22.9936 C.3     1  UNL1        0.0358
     18 C          -3.1367  -18.2567   22.4964 C.2     1  UNL1        0.0342
     19 C          -4.2945  -17.3821   22.8766 C.2     1  UNL1        0.1014
     20 N          -5.6726  -17.7041   22.3795 N.2     1  UNL1       -0.2501
     21 C          -5.8929  -18.9006   21.5020 C.2     1  UNL1        0.0661
     22 C          -7.2710  -19.2225   21.0048 C.3     1  UNL1        0.0718
     23 C          -7.4912  -20.4190   20.1274 C.2     1  UNL1       -0.0198
     24 C          -6.3334  -21.2935   19.7472 C.2     1  UNL1       -0.0040
     25 C          -4.9553  -20.9716   20.2443 C.2     1  UNL1        0.0040
     26 C          -4.7351  -19.7751   21.1217 C.2     1  UNL1        0.0525
     27 C          -3.3569  -19.4531   21.6189 C.2     1  UNL1        0.1940
     28 O          -2.1991  -20.3277   21.2387 O.2     1  UNL1       -0.2868
@<TRIPOS>BOND
     1    17    18    1
     2    18    19    2
     3    19    16    1
     4    16     1    1
     5     1     2    1
     6     2     3   ar
     7     3     4   ar
     8     4     8    1
     9     8     9    1
    10     9    10    1
    11    10    11    1
    12    11    12    1
    13    11    13    1
    14    11    14    1
    15     4     5   ar
    16     5     6   ar
    17     6     7   ar
    18    19    20    1
    19    20    21    2
    20    21    22    1
    21    22    23    1
    22    23    24    2
    23    24    25    1
    24    25    26    2
    25    26    27    1
    26    27    28    2
    27    27    18    1
    28     7     2   ar
    29    26    21    1
    30    14    15    1
@<TRIPOS>MOLECULE
*****
 28 30 0 0 0
SMALL
GASTEIGER

@<TRIPOS>ATOM
      1 O          -3.6779  -15.6296   22.7597 O.3     1  UNL1       -0.4535
      2 C          -2.7904  -16.5416   21.9657 C.ar    1  UNL1        0.2283
      3 C          -3.1141  -18.0028   21.8654 C.ar    1  UNL1        0.0945
      4 C          -2.2266  -18.9149   21.0714 C.ar    1  UNL1        0.1448
      5 C          -1.0153  -18.3657   20.3777 C.ar    1  UNL1        0.0578
      6 C          -0.6915  -16.9045   20.4780 C.ar    1  UNL1        0.1052
      7 N          -1.5791  -15.9925   21.2720 N.ar    1  UNL1       -0.2099
      8 O          -2.5503  -20.3761   20.9711 O.3     1  UNL1       -0.4752
      9 C          -3.6648  -20.8379   20.0796 C.3     1  UNL1        0.2078
     10 C          -5.0823  -20.7961   20.5681 C.3     1  UNL1        0.0742
     11 C          -5.9174  -19.5705   20.3431 C.3     1  UNL1        0.0921
     12 C          -6.8262  -19.9842   21.4624 C.3     1  UNL1        0.0294
     13 C          -5.0085  -19.1568   19.2237 C.3     1  UNL1        0.0294
     14 O          -6.7524  -18.3449   20.1180 O.3     1  UNL1       -0.3866
     15 H          -7.4865  -18.3329   20.7520 H       1  UNL1        0.2102
     16 C          -4.4049  -16.1515   23.9634 C.3     1  UNL1        0.2523
     17 C          -5.8520  -15.2444   26.4298 C.3     1  UNL1        0.0358
     18 C          -6.6282  -15.6936   25.2274 C.2     1  UNL1        0.0342
     19 C          -5.9047  -16.1471   23.9942 C.2     1  UNL1        0.1014
     20 N          -6.6808  -16.5962   22.7917 N.2     1  UNL1       -0.2501
     21 C          -8.1805  -16.5918   22.8225 C.2     1  UNL1        0.0661
     22 C          -8.9566  -17.0410   21.6200 C.3     1  UNL1        0.0718
     23 C         -10.4563  -17.0365   21.6508 C.2     1  UNL1       -0.0198
     24 C         -11.1798  -16.5830   22.8840 C.2     1  UNL1       -0.0040
     25 C         -10.4037  -16.1339   24.0864 C.2     1  UNL1        0.0040
     26 C          -8.9040  -16.1383   24.0557 C.2     1  UNL1        0.0525
     27 C          -8.1278  -15.6891   25.2581 C.2     1  UNL1        0.1940
     28 O          -8.8514  -15.2356   26.4913 O.2     1  UNL1       -0.2868
@<TRIPOS>BOND
     1    17    18    1
     2    18    19    2
     3    19    16    1
     4    16     1    1
     5     1     2    1
     6     2     3   ar
     7     3     4   ar
     8     4     8    1
     9     8     9    1
    10     9    10    1
    11    10    11    1
    12    11    12    1
    13    11    13    1
    14    11    14    1
    15     4     5   ar
    16     5     6   ar
    17     6     7   ar
    18    19    20    1
    19    20    21    2
    20    21    22    1
    21    22    23    1
    22    23    24    2
    23    24    25    1
    24    25    26    2
    25    26    27    1
    26    27    28    2
    27    27    18    1
    28     7     2   ar
    29    26    21    1
    30    14    15    1
@<TRIPOS>MOLECULE
*****
 28 30 0 0 0
SMALL
GASTEIGER

@<TRIPOS>ATOM
      1 O          -9.1204  -18.7028   19.9204 O.3     1  UNL1       -0.4535
      2 C          -7.7995  -19.1905   20.4374 C.ar    1  UNL1        0.2283
      3 C          -6.5580  -19.0049   19.6164 C.ar    1  UNL1        0.0945
      4 C          -5.2370  -19.4925   20.1335 C.ar    1  UNL1        0.1448
      5 C          -5.1577  -20.1658   21.4716 C.ar    1  UNL1        0.0578
      6 C          -6.3993  -20.3514   22.2926 C.ar    1  UNL1        0.1052
      7 N          -7.7202  -19.8637   21.7755 N.ar    1  UNL1       -0.2099
      8 O          -3.9955  -19.3069   19.3125 O.3     1  UNL1       -0.4752
      9 C          -3.2650  -17.9971   19.3429 C.3     1  UNL1        0.2078
     10 C          -1.9481  -17.8891   20.0528 C.3     1  UNL1        0.0742
     11 C          -1.9056  -17.8432   21.5515 C.3     1  UNL1        0.0921
     12 C          -1.7652  -19.3361   21.5932 C.3     1  UNL1        0.0294
     13 C          -2.0459  -16.3504   21.5099 C.3     1  UNL1        0.0294
     14 O          -1.8630  -17.7974   23.0502 O.3     1  UNL1       -0.3866
     15 H          -1.7682  -18.6977   23.3987 H       1  UNL1        0.2102
     16 C          -9.9874  -17.8321   20.7806 C.3     1  UNL1        0.2523
     17 C         -10.9047  -20.0445   22.5872 C.3     1  UNL1        0.0358
     18 C         -10.1942  -18.8541   23.1603 C.2     1  UNL1        0.0342
     19 C          -9.7356  -17.7479   22.2570 C.2     1  UNL1        0.1014
     20 N          -9.0251  -16.5576   22.8300 N.2     1  UNL1       -0.2501
     21 C          -8.7733  -16.4734   24.3063 C.2     1  UNL1        0.0661
     22 C          -8.0628  -15.2831   24.8793 C.3     1  UNL1        0.0718
     23 C          -7.8110  -15.1990   26.3556 C.2     1  UNL1       -0.0198
     24 C          -8.2696  -16.3052   27.2589 C.2     1  UNL1       -0.0040
     25 C          -8.9801  -17.4955   26.6859 C.2     1  UNL1        0.0040
     26 C          -9.2319  -17.5796   25.2096 C.2     1  UNL1        0.0525
     27 C          -9.9424  -18.7700   24.6366 C.2     1  UNL1        0.1940
     28 O         -10.4010  -19.8762   25.5399 O.2     1  UNL1       -0.2868
@<TRIPOS>BOND
     1    17    18    1
     2    18    19    2
     3    19    16    1
     4    16     1    1
     5     1     2    1
     6     2     3   ar
     7     3     4   ar
     8     4     8    1
     9     8     9    1
    10     9    10    1
    11    10    11    1
    12    11    12    1
    13    11    13    1
    14    11    14    1
    15     4     5   ar
    16     5     6   ar
    17     6     7   ar
    18    19    20    1
    19    20    21    2
    20    21    22    1
    21    22    23    1
    22    23    24    2
    23    24    25    1
    24    25    26    2
    25    26    27    1
    26    27    28    2
    27    27    18    1
    28     7     2   ar
    29    26    21    1
    30    14    15    1
