@<TRIPOS>MOLECULE
*****
 40 43 0 0 0
SMALL
GASTEIGER

@<TRIPOS>ATOM
      1 C           5.9918   -3.5057   24.2260 C.ar    1  UNL1        0.0207
      2 C           6.5892   -4.1741   23.0234 C.ar    1  UNL1        0.1021
      3 N           7.6435   -5.2270   23.1968 N.ar    1  UNL1       -0.2090
      4 C           8.1004   -5.6114   24.5729 C.ar    1  UNL1        0.2400
      5 C           7.5029   -4.9429   25.7755 C.ar    1  UNL1        0.1178
      6 C           6.4487   -3.8901   25.6021 C.ar    1  UNL1        0.0221
      7 N           1.4984    0.0188   21.0421 N.ar    1  UNL1       -0.2777
      8 C           1.1094    0.8886   22.2006 C.ar    1  UNL1        0.1808
      9 N           1.7747    0.7056   23.5325 N.ar    1  UNL1       -0.2252
     10 C           2.8290   -0.3473   23.7059 C.ar    1  UNL1        0.0876
     11 C           3.4942   -0.5302   25.0377 C.ar    1  UNL1        0.0193
     12 C           4.5485   -1.5831   25.2111 C.ar    1  UNL1        0.0016
     13 C           4.9375   -2.4529   24.0526 C.ar    1  UNL1        0.0018
     14 C           4.2722   -2.2699   22.7207 C.ar    1  UNL1        0.0063
     15 C           3.2180   -1.2171   22.5474 C.ar    1  UNL1        0.0739
     16 C           2.5526   -1.0340   21.2155 C.ar    1  UNL1        0.2634
     17 O           2.9416   -1.9038   20.0570 O.2     1  UNL1       -0.2669
     18 C           0.8331    0.2018   19.7102 C.3     1  UNL1        0.1196
     19 C           1.3677    1.2103   18.7371 C.3     1  UNL1        0.0991
     20 C           0.5180    2.3740   18.3203 C.3     1  UNL1        0.0116
     21 C           4.5491   -0.3954   16.9906 C.3     1  UNL1        0.1107
     22 N           3.1647   -0.2402   17.5469 N.am    1  UNL1       -0.3026
     23 C           2.7520    1.0551   18.1807 C.2     1  UNL1        0.2239
     24 O           3.7236    2.1952   18.2581 O.2     1  UNL1       -0.2750
     25 H           2.5270   -0.9886   17.4961 H       1  UNL1        0.1495
     26 O           9.1546   -6.6641   24.7463 O.3     1  UNL1       -0.4553
     27 C           9.4652   -7.6069   23.6218 C.3     1  UNL1        0.2543
     28 N           7.9598   -5.3273   27.1516 N.pl3   1  UNL1       -0.2104
     29 H           8.6092   -6.0579   27.2685 H       1  UNL1        0.1739
     30 S           7.4271   -4.5985   28.3495 S.O2    1  UNL1        0.0745
     31 O           8.6917   -3.7952   28.4231 O.2     1  UNL1       -0.1499
     32 O           6.1625   -5.4018   28.2760 O.2     1  UNL1       -0.1499
     33 C           6.8945   -3.8697   29.5476 C.ar    1  UNL1        0.1358
     34 C           6.2718   -2.5147   29.3855 C.ar    1  UNL1        0.0234
     35 C           5.7392   -1.7859   30.5834 C.ar    1  UNL1        0.0311
     36 C           5.8293   -2.4121   31.9434 C.ar    1  UNL1        0.1411
     37 F           5.2966   -1.6832   33.1415 F       1  UNL1       -0.2041
     38 C           6.4520   -3.7670   32.1056 C.ar    1  UNL1        0.0424
     39 C           6.9846   -4.4958   30.9076 C.ar    1  UNL1        0.0787
     40 CL          7.6073   -5.8508   31.0697 Cl      1  UNL1       -0.0808
@<TRIPOS>BOND
     1    21    22    1
     2    22    23   am
     3    23    24    2
     4    23    19    1
     5    19    20    1
     6    19    18    1
     7    18     7    1
     8     7     8   ar
     9     8     9   ar
    10     9    10   ar
    11    10    11   ar
    12    11    12   ar
    13    12    13   ar
    14    13     1    1
    15     1     2   ar
    16     2     3   ar
    17     3     4   ar
    18     4    26    1
    19    26    27    1
    20     4     5   ar
    21     5    28    1
    22    28    30    1
    23    30    31    2
    24    30    32    2
    25    30    33    1
    26    33    34   ar
    27    34    35   ar
    28    35    36   ar
    29    36    37    1
    30    36    38   ar
    31    38    39   ar
    32    39    40    1
    33     5     6   ar
    34    13    14   ar
    35    14    15   ar
    36    15    16   ar
    37    16    17    2
    38    16     7   ar
    39    15    10   ar
    40     6     1   ar
    41    39    33   ar
    42    22    25    1
    43    28    29    1
@<TRIPOS>MOLECULE
*****
 40 43 0 0 0
SMALL
GASTEIGER

@<TRIPOS>ATOM
      1 C           7.5819   -3.6536   20.5671 C.ar    1  UNL1        0.0207
      2 C           8.7340   -2.9883   19.8744 C.ar    1  UNL1        0.1021
      3 N           8.4834   -2.0738   18.7120 N.ar    1  UNL1       -0.2090
      4 C           7.0808   -1.8246   18.2425 C.ar    1  UNL1        0.2400
      5 C           5.9286   -2.4900   18.9354 C.ar    1  UNL1        0.1178
      6 C           6.1792   -3.4044   20.0976 C.ar    1  UNL1        0.0221
      7 N           7.1609   -5.7631   26.7415 N.ar    1  UNL1       -0.2777
      8 C           7.9977   -6.9946   26.5600 C.ar    1  UNL1        0.1808
      9 N           8.5840   -7.3117   25.2163 N.ar    1  UNL1       -0.2252
     10 C           8.3335   -6.3972   24.0539 C.ar    1  UNL1        0.0876
     11 C           8.9198   -6.7142   22.7102 C.ar    1  UNL1        0.0193
     12 C           8.6692   -5.7997   21.5480 C.ar    1  UNL1        0.0016
     13 C           7.8324   -4.5681   21.7295 C.ar    1  UNL1        0.0018
     14 C           7.2461   -4.2511   23.0732 C.ar    1  UNL1        0.0063
     15 C           7.4966   -5.1656   24.2354 C.ar    1  UNL1        0.0739
     16 C           6.9103   -4.8485   25.5793 C.ar    1  UNL1        0.2634
     17 O           6.0735   -3.6170   25.7608 O.2     1  UNL1       -0.2669
     18 C           6.5746   -5.4460   28.0853 C.3     1  UNL1        0.1196
     19 C           7.4496   -4.9037   29.1763 C.3     1  UNL1        0.0991
     20 C           8.8524   -4.4717   28.8676 C.3     1  UNL1        0.0116
     21 C           5.9268   -3.3574   32.4990 C.3     1  UNL1        0.1107
     22 N           6.4547   -3.4676   31.0992 N.am    1  UNL1       -0.3026
     23 C           6.9217   -4.7935   30.5761 C.2     1  UNL1        0.2239
     24 O           6.8609   -6.0092   31.4526 O.2     1  UNL1       -0.2750
     25 H           6.4946   -2.6697   30.5239 H       1  UNL1        0.1495
     26 O           6.8302   -0.9101   17.0803 O.3     1  UNL1       -0.4553
     27 C           7.1307    0.5546   17.2001 C.3     1  UNL1        0.2543
     28 N           4.5260   -2.2408   18.4658 N.pl3   1  UNL1       -0.2104
     29 H           4.2267   -2.5970   17.5982 H       1  UNL1        0.1739
     30 S           3.5792   -1.4490   19.3183 S.O2    1  UNL1        0.0745
     31 O           2.9357   -2.7209   19.7851 O.2     1  UNL1       -0.1499
     32 O           4.2228   -0.1770   18.8515 O.2     1  UNL1       -0.1499
     33 C           2.6325   -0.6572   20.1708 C.ar    1  UNL1        0.1358
     34 C           1.3258   -0.1876   19.6031 C.ar    1  UNL1        0.0234
     35 C           0.3791    0.6042   20.4556 C.ar    1  UNL1        0.0311
     36 C           0.7389    0.9264   21.8756 C.ar    1  UNL1        0.1411
     37 F          -0.2079    1.7182   22.7281 F       1  UNL1       -0.2041
     38 C           2.0455    0.4568   22.4433 C.ar    1  UNL1        0.0424
     39 C           2.9923   -0.3350   21.5909 C.ar    1  UNL1        0.0787
     40 CL          4.2989   -0.8045   22.1585 Cl      1  UNL1       -0.0808
@<TRIPOS>BOND
     1    21    22    1
     2    22    23   am
     3    23    24    2
     4    23    19    1
     5    19    20    1
     6    19    18    1
     7    18     7    1
     8     7     8   ar
     9     8     9   ar
    10     9    10   ar
    11    10    11   ar
    12    11    12   ar
    13    12    13   ar
    14    13     1    1
    15     1     2   ar
    16     2     3   ar
    17     3     4   ar
    18     4    26    1
    19    26    27    1
    20     4     5   ar
    21     5    28    1
    22    28    30    1
    23    30    31    2
    24    30    32    2
    25    30    33    1
    26    33    34   ar
    27    34    35   ar
    28    35    36   ar
    29    36    37    1
    30    36    38   ar
    31    38    39   ar
    32    39    40    1
    33     5     6   ar
    34    13    14   ar
    35    14    15   ar
    36    15    16   ar
    37    16    17    2
    38    16     7   ar
    39    15    10   ar
    40     6     1   ar
    41    39    33   ar
    42    22    25    1
    43    28    29    1
@<TRIPOS>MOLECULE
*****
 40 43 0 0 0
SMALL
GASTEIGER

@<TRIPOS>ATOM
      1 C          -2.9525    3.4458   25.6650 C.ar    1  UNL1        0.0207
      2 C          -3.6070    4.2541   26.7457 C.ar    1  UNL1        0.1021
      3 N          -4.9742    4.8313   26.5269 N.ar    1  UNL1       -0.2090
      4 C          -5.6867    4.6001   25.2274 C.ar    1  UNL1        0.2400
      5 C          -5.0321    3.7917   24.1466 C.ar    1  UNL1        0.1178
      6 C          -3.6650    3.2146   24.3654 C.ar    1  UNL1        0.0221
      7 N           1.7861    0.2982   28.8880 N.ar    1  UNL1       -0.2777
      8 C           2.8346    0.4290   27.8233 C.ar    1  UNL1        0.1808
      9 N           2.5160    1.1370   26.5399 N.ar    1  UNL1       -0.2252
     10 C           1.1489    1.7142   26.3212 C.ar    1  UNL1        0.0876
     11 C           0.8302    2.4222   25.0377 C.ar    1  UNL1        0.0193
     12 C          -0.5369    2.9993   24.8190 C.ar    1  UNL1        0.0016
     13 C          -1.5853    2.8685   25.8837 C.ar    1  UNL1        0.0018
     14 C          -1.2667    2.1606   27.1671 C.ar    1  UNL1        0.0063
     15 C           0.1004    1.5834   27.3859 C.ar    1  UNL1        0.0739
     16 C           0.4191    0.8753   28.6693 C.ar    1  UNL1        0.2634
     17 O          -0.6294    0.7445   29.7340 O.2     1  UNL1       -0.2669
     18 C           2.1048   -0.4099   30.1715 C.3     1  UNL1        0.1196
     19 C           2.6461    0.3610   31.3389 C.3     1  UNL1        0.0991
     20 C           3.5846   -0.3005   32.3041 C.3     1  UNL1        0.0116
     21 C           0.4961    3.5572   32.2934 C.3     1  UNL1        0.1107
     22 N           0.8934    2.1250   32.0912 N.am    1  UNL1       -0.3026
     23 C           2.2488    1.7932   31.5411 C.2     1  UNL1        0.2239
     24 O           3.2069    2.8936   31.1932 O.2     1  UNL1       -0.2750
     25 H           0.2645    1.4028   32.3195 H       1  UNL1        0.1495
     26 O          -7.0538    5.1773   25.0086 O.3     1  UNL1       -0.4553
     27 C          -7.2028    6.5767   24.4896 C.3     1  UNL1        0.2543
     28 N          -5.7446    3.5605   22.8470 N.pl3   1  UNL1       -0.2104
     29 H          -6.6924    3.2940   22.8459 H       1  UNL1        0.1739
     30 S          -5.0132    3.7355   21.5492 S.O2    1  UNL1        0.0745
     31 O          -4.6808    2.2728   21.5394 O.2     1  UNL1       -0.1499
     32 O          -5.3456    5.1981   21.5590 O.2     1  UNL1       -0.1499
     33 C          -4.2818    3.9104   20.2513 C.ar    1  UNL1        0.1358
     34 C          -2.8383    4.3184   20.2530 C.ar    1  UNL1        0.0234
     35 C          -2.1069    4.4933   18.9552 C.ar    1  UNL1        0.0311
     36 C          -2.8188    4.2601   17.6557 C.ar    1  UNL1        0.1411
     37 F          -2.0874    4.4350   16.3578 F       1  UNL1       -0.2041
     38 C          -4.2623    3.8521   17.6540 C.ar    1  UNL1        0.0424
     39 C          -4.9937    3.6772   18.9518 C.ar    1  UNL1        0.0787
     40 CL         -6.4372    3.2692   18.9502 Cl      1  UNL1       -0.0808
@<TRIPOS>BOND
     1    21    22    1
     2    22    23   am
     3    23    24    2
     4    23    19    1
     5    19    20    1
     6    19    18    1
     7    18     7    1
     8     7     8   ar
     9     8     9   ar
    10     9    10   ar
    11    10    11   ar
    12    11    12   ar
    13    12    13   ar
    14    13     1    1
    15     1     2   ar
    16     2     3   ar
    17     3     4   ar
    18     4    26    1
    19    26    27    1
    20     4     5   ar
    21     5    28    1
    22    28    30    1
    23    30    31    2
    24    30    32    2
    25    30    33    1
    26    33    34   ar
    27    34    35   ar
    28    35    36   ar
    29    36    37    1
    30    36    38   ar
    31    38    39   ar
    32    39    40    1
    33     5     6   ar
    34    13    14   ar
    35    14    15   ar
    36    15    16   ar
    37    16    17    2
    38    16     7   ar
    39    15    10   ar
    40     6     1   ar
    41    39    33   ar
    42    22    25    1
    43    28    29    1
@<TRIPOS>MOLECULE
*****
 40 43 0 0 0
SMALL
GASTEIGER

@<TRIPOS>ATOM
      1 C          -0.5152    2.1769   25.2701 C.ar    1  UNL1        0.0207
      2 C          -1.7847    2.9743   25.3204 C.ar    1  UNL1        0.1021
      3 N          -2.3226    3.6076   24.0715 N.ar    1  UNL1       -0.2090
      4 C          -1.5910    3.4435   22.7724 C.ar    1  UNL1        0.2400
      5 C          -0.3214    2.6460   22.7221 C.ar    1  UNL1        0.1178
      6 C           0.2164    2.0128   23.9710 C.ar    1  UNL1        0.0221
      7 N           4.0270   -0.3306   29.2489 N.ar    1  UNL1       -0.2777
      8 C           3.1006   -0.6601   30.3816 C.ar    1  UNL1        0.1808
      9 N           1.6363   -0.3563   30.2656 N.ar    1  UNL1       -0.2252
     10 C           1.0984    0.2770   29.0167 C.ar    1  UNL1        0.0876
     11 C          -0.3659    0.5808   28.9006 C.ar    1  UNL1        0.0193
     12 C          -0.9037    1.2141   27.6517 C.ar    1  UNL1        0.0016
     13 C           0.0227    1.5436   26.5190 C.ar    1  UNL1        0.0018
     14 C           1.4870    1.2398   26.6351 C.ar    1  UNL1        0.0063
     15 C           2.0248    0.6065   27.8839 C.ar    1  UNL1        0.0739
     16 C           3.4892    0.3027   28.0001 C.ar    1  UNL1        0.2634
     17 O           4.4156    0.6322   26.8673 O.2     1  UNL1       -0.2669
     18 C           5.4914   -0.6344   29.3650 C.3     1  UNL1        0.1196
     19 C           5.9735   -2.0514   29.2667 C.3     1  UNL1        0.0991
     20 C           6.3858   -2.7909   30.5049 C.3     1  UNL1        0.0116
     21 C           6.0720   -2.5901   25.3361 C.3     1  UNL1        0.1107
     22 N           6.0022   -1.9126   26.6725 N.am    1  UNL1       -0.3026
     23 C           6.0433   -2.7289   27.9303 C.2     1  UNL1        0.2239
     24 O           6.1541   -4.2227   27.8515 O.2     1  UNL1       -0.2750
     25 H           5.9295   -0.9321   26.7242 H       1  UNL1        0.1495
     26 O          -2.1288    4.0767   21.5235 O.3     1  UNL1       -0.4553
     27 C          -3.3882    3.5528   20.8995 C.3     1  UNL1        0.2543
     28 N           0.4102    2.4819   21.4230 N.pl3   1  UNL1       -0.2104
     29 H           0.3112    3.1573   20.7136 H       1  UNL1        0.1739
     30 S           1.2926    1.2887   21.2047 S.O2    1  UNL1        0.0745
     31 O           0.0798    0.4161   21.0718 O.2     1  UNL1       -0.1499
     32 O           2.5054    2.1613   21.3375 O.2     1  UNL1       -0.1499
     33 C           2.1749    0.0954   20.9864 C.ar    1  UNL1        0.1358
     34 C           2.7441   -0.6417   22.1623 C.ar    1  UNL1        0.0234
     35 C           3.6264   -1.8349   21.9440 C.ar    1  UNL1        0.0311
     36 C           3.9396   -2.2910   20.5499 C.ar    1  UNL1        0.1411
     37 F           4.8220   -3.4843   20.3315 F       1  UNL1       -0.2041
     38 C           3.3705   -1.5539   19.3739 C.ar    1  UNL1        0.0424
     39 C           2.4882   -0.3607   19.5922 C.ar    1  UNL1        0.0787
     40 CL          1.9190    0.3764   18.4162 Cl      1  UNL1       -0.0808
@<TRIPOS>BOND
     1    21    22    1
     2    22    23   am
     3    23    24    2
     4    23    19    1
     5    19    20    1
     6    19    18    1
     7    18     7    1
     8     7     8   ar
     9     8     9   ar
    10     9    10   ar
    11    10    11   ar
    12    11    12   ar
    13    12    13   ar
    14    13     1    1
    15     1     2   ar
    16     2     3   ar
    17     3     4   ar
    18     4    26    1
    19    26    27    1
    20     4     5   ar
    21     5    28    1
    22    28    30    1
    23    30    31    2
    24    30    32    2
    25    30    33    1
    26    33    34   ar
    27    34    35   ar
    28    35    36   ar
    29    36    37    1
    30    36    38   ar
    31    38    39   ar
    32    39    40    1
    33     5     6   ar
    34    13    14   ar
    35    14    15   ar
    36    15    16   ar
    37    16    17    2
    38    16     7   ar
    39    15    10   ar
    40     6     1   ar
    41    39    33   ar
    42    22    25    1
    43    28    29    1
@<TRIPOS>MOLECULE
*****
 40 43 0 0 0
SMALL
GASTEIGER

@<TRIPOS>ATOM
      1 C           2.0049   -0.2384   21.2164 C.ar    1  UNL1        0.0207
      2 C           0.9187   -0.0433   20.2005 C.ar    1  UNL1        0.1021
      3 N          -0.1615    0.9690   20.4424 N.ar    1  UNL1       -0.2090
      4 C          -0.1554    1.7862   21.7002 C.ar    1  UNL1        0.2400
      5 C           0.9309    1.5911   22.7162 C.ar    1  UNL1        0.1178
      6 C           2.0110    0.5788   22.4742 C.ar    1  UNL1        0.0221
      7 N           7.1247   -4.0223   22.7065 N.ar    1  UNL1       -0.2777
      8 C           7.2652   -4.6610   21.3566 C.ar    1  UNL1        0.1808
      9 N           6.3256   -4.2875   20.2486 N.ar    1  UNL1       -0.2252
     10 C           5.2454   -3.2752   20.4905 C.ar    1  UNL1        0.0876
     11 C           4.3058   -2.9017   19.3826 C.ar    1  UNL1        0.0193
     12 C           3.2257   -1.8894   19.6245 C.ar    1  UNL1        0.0016
     13 C           3.0851   -1.2507   20.9744 C.ar    1  UNL1        0.0018
     14 C           4.0247   -1.6242   22.0824 C.ar    1  UNL1        0.0063
     15 C           5.1049   -2.6364   21.8404 C.ar    1  UNL1        0.0739
     16 C           6.0445   -3.0100   22.9484 C.ar    1  UNL1        0.2634
     17 O           5.9040   -2.3712   24.2983 O.2     1  UNL1       -0.2669
     18 C           8.0643   -4.3958   23.8144 C.3     1  UNL1        0.1196
     19 C           7.7630   -5.5783   24.6867 C.3     1  UNL1        0.0991
     20 C           8.1308   -6.9593   24.2312 C.3     1  UNL1        0.0116
     21 C           6.2435   -3.7973   27.8911 C.3     1  UNL1        0.1107
     22 N           6.9125   -3.9958   26.5634 N.am    1  UNL1       -0.3026
     23 C           7.0940   -5.3798   26.0145 C.2     1  UNL1        0.2239
     24 O           6.6065   -6.5654   26.7933 O.2     1  UNL1       -0.2750
     25 H           7.2325   -3.2176   26.0522 H       1  UNL1        0.1495
     26 O          -1.2355    2.7985   21.9422 O.3     1  UNL1       -0.4553
     27 C          -2.1050    3.2532   20.8076 C.3     1  UNL1        0.2543
     28 N           0.9369    2.4083   23.9740 N.pl3   1  UNL1       -0.2104
     29 H           0.7741    3.3783   23.9316 H       1  UNL1        0.1739
     30 S           1.1910    1.7476   25.2964 S.O2    1  UNL1        0.0745
     31 O           2.4186    2.5895   25.4812 O.2     1  UNL1       -0.1499
     32 O          -0.0365    0.9056   25.1116 O.2     1  UNL1       -0.1499
     33 C           1.4452    1.0868   26.6189 C.ar    1  UNL1        0.1358
     34 C           2.5508    0.0823   26.7552 C.ar    1  UNL1        0.0234
     35 C           2.8050   -0.5784   28.0776 C.ar    1  UNL1        0.0311
     36 C           1.9536   -0.2346   29.2637 C.ar    1  UNL1        0.1411
     37 F           2.2077   -0.8953   30.5862 F       1  UNL1       -0.2041
     38 C           0.8479    0.7699   29.1274 C.ar    1  UNL1        0.0424
     39 C           0.5938    1.4306   27.8050 C.ar    1  UNL1        0.0787
     40 CL         -0.5118    2.4352   27.6687 Cl      1  UNL1       -0.0808
@<TRIPOS>BOND
     1    21    22    1
     2    22    23   am
     3    23    24    2
     4    23    19    1
     5    19    20    1
     6    19    18    1
     7    18     7    1
     8     7     8   ar
     9     8     9   ar
    10     9    10   ar
    11    10    11   ar
    12    11    12   ar
    13    12    13   ar
    14    13     1    1
    15     1     2   ar
    16     2     3   ar
    17     3     4   ar
    18     4    26    1
    19    26    27    1
    20     4     5   ar
    21     5    28    1
    22    28    30    1
    23    30    31    2
    24    30    32    2
    25    30    33    1
    26    33    34   ar
    27    34    35   ar
    28    35    36   ar
    29    36    37    1
    30    36    38   ar
    31    38    39   ar
    32    39    40    1
    33     5     6   ar
    34    13    14   ar
    35    14    15   ar
    36    15    16   ar
    37    16    17    2
    38    16     7   ar
    39    15    10   ar
    40     6     1   ar
    41    39    33   ar
    42    22    25    1
    43    28    29    1
@<TRIPOS>MOLECULE
*****
 40 43 0 0 0
SMALL
GASTEIGER

@<TRIPOS>ATOM
      1 C           6.7506   -4.0641   23.8135 C.ar    1  UNL1        0.0207
      2 C           8.0310   -4.0115   23.0340 C.ar    1  UNL1        0.1021
      3 N           8.0043   -3.6930   21.5684 N.ar    1  UNL1       -0.2090
      4 C           6.6971   -3.4271   20.8824 C.ar    1  UNL1        0.2400
      5 C           5.4167   -3.4798   21.6620 C.ar    1  UNL1        0.1178
      6 C           5.4434   -3.7983   23.1275 C.ar    1  UNL1        0.0221
      7 N           6.3585   -2.8486   30.2259 N.ar    1  UNL1       -0.2777
      8 C           6.6213   -4.2527   30.6836 C.ar    1  UNL1        0.1808
      9 N           6.8574   -5.3383   29.6757 N.ar    1  UNL1       -0.2252
     10 C           6.8307   -5.0197   28.2101 C.ar    1  UNL1        0.0876
     11 C           7.0668   -6.1053   27.2023 C.ar    1  UNL1        0.0193
     12 C           7.0401   -5.7867   25.7368 C.ar    1  UNL1        0.0016
     13 C           6.7773   -4.3827   25.2791 C.ar    1  UNL1        0.0018
     14 C           6.5412   -3.2971   26.2869 C.ar    1  UNL1        0.0063
     15 C           6.5679   -3.6157   27.7525 C.ar    1  UNL1        0.0739
     16 C           6.3318   -2.5301   28.7604 C.ar    1  UNL1        0.2634
     17 O           6.0690   -1.1260   28.3027 O.2     1  UNL1       -0.2669
     18 C           6.1224   -1.7630   31.2338 C.3     1  UNL1        0.1196
     19 C           4.7948   -1.6560   31.9238 C.3     1  UNL1        0.0991
     20 C           4.5191   -2.4740   33.1505 C.3     1  UNL1        0.0116
     21 C           2.3557    0.1803   29.3883 C.3     1  UNL1        0.1107
     22 N           3.4075   -0.7447   29.9251 N.am    1  UNL1       -0.3026
     23 C           3.7430   -0.7311   31.3870 C.2     1  UNL1        0.2239
     24 O           3.0266    0.2074   32.3122 O.2     1  UNL1       -0.2750
     25 H           3.8777   -1.3607   29.3179 H       1  UNL1        0.1495
     26 O           6.6704   -3.1086   19.4169 O.3     1  UNL1       -0.4553
     27 C           7.5744   -2.0474   18.8634 C.3     1  UNL1        0.2543
     28 N           4.1095   -3.2139   20.9760 N.pl3   1  UNL1       -0.2104
     29 H           3.4227   -3.9181   20.9355 H       1  UNL1        0.1739
     30 S           3.8487   -1.8752   20.3517 S.O2    1  UNL1        0.0745
     31 O           4.0982   -1.2105   21.6730 O.2     1  UNL1       -0.1499
     32 O           3.5993   -2.5400   19.0304 O.2     1  UNL1       -0.1499
     33 C           3.5880   -0.5364   19.7274 C.ar    1  UNL1        0.1358
     34 C           4.7268    0.2673   19.1732 C.ar    1  UNL1        0.0234
     35 C           4.4662    1.6060   18.5489 C.ar    1  UNL1        0.0311
     36 C           3.0666    2.1411   18.4788 C.ar    1  UNL1        0.1411
     37 F           2.8059    3.4799   17.8546 F       1  UNL1       -0.2041
     38 C           1.9278    1.3374   19.0331 C.ar    1  UNL1        0.0424
     39 C           2.1885   -0.0013   19.6573 C.ar    1  UNL1        0.0787
     40 CL          1.0496   -0.8050   20.2115 Cl      1  UNL1       -0.0808
@<TRIPOS>BOND
     1    21    22    1
     2    22    23   am
     3    23    24    2
     4    23    19    1
     5    19    20    1
     6    19    18    1
     7    18     7    1
     8     7     8   ar
     9     8     9   ar
    10     9    10   ar
    11    10    11   ar
    12    11    12   ar
    13    12    13   ar
    14    13     1    1
    15     1     2   ar
    16     2     3   ar
    17     3     4   ar
    18     4    26    1
    19    26    27    1
    20     4     5   ar
    21     5    28    1
    22    28    30    1
    23    30    31    2
    24    30    32    2
    25    30    33    1
    26    33    34   ar
    27    34    35   ar
    28    35    36   ar
    29    36    37    1
    30    36    38   ar
    31    38    39   ar
    32    39    40    1
    33     5     6   ar
    34    13    14   ar
    35    14    15   ar
    36    15    16   ar
    37    16    17    2
    38    16     7   ar
    39    15    10   ar
    40     6     1   ar
    41    39    33   ar
    42    22    25    1
    43    28    29    1
@<TRIPOS>MOLECULE
*****
 40 43 0 0 0
SMALL
GASTEIGER

@<TRIPOS>ATOM
      1 C          -0.2416    2.0061   25.4322 C.ar    1  UNL1        0.0207
      2 C          -1.5158    2.7975   25.4438 C.ar    1  UNL1        0.1021
      3 N          -2.0276    3.4137   24.1756 N.ar    1  UNL1       -0.2090
      4 C          -1.2652    3.2385   22.8957 C.ar    1  UNL1        0.2400
      5 C           0.0091    2.4471   22.8841 C.ar    1  UNL1        0.1178
      6 C           0.5208    1.8309   24.1523 C.ar    1  UNL1        0.0221
      7 N           4.1936   -0.5689   29.4879 N.ar    1  UNL1       -0.2777
      8 C           3.2554   -0.8219   30.6306 C.ar    1  UNL1        0.1808
      9 N           1.8055   -0.4588   30.5051 N.ar    1  UNL1       -0.2252
     10 C           1.2937    0.1574   29.2368 C.ar    1  UNL1        0.0876
     11 C          -0.1563    0.5206   29.1113 C.ar    1  UNL1        0.0193
     12 C          -0.6680    1.1368   27.8431 C.ar    1  UNL1        0.0016
     13 C           0.2702    1.3898   26.7004 C.ar    1  UNL1        0.0018
     14 C           1.7201    1.0267   26.8259 C.ar    1  UNL1        0.0063
     15 C           2.2319    0.4105   28.0941 C.ar    1  UNL1        0.0739
     16 C           3.6819    0.0473   28.2197 C.ar    1  UNL1        0.2634
     17 O           4.6201    0.3004   27.0770 O.2     1  UNL1       -0.2669
     18 C           5.6436   -0.9320   29.6134 C.3     1  UNL1        0.1196
     19 C           6.0935   -2.3334   29.3243 C.3     1  UNL1        0.0991
     20 C           6.2087   -2.8064   27.9055 C.3     1  UNL1        0.0116
     21 C           7.1118   -5.6212   31.2999 C.3     1  UNL1        0.1107
     22 N           6.7770   -4.6928   30.1703 N.am    1  UNL1       -0.3026
     23 C           6.4283   -3.2618   30.4539 C.2     1  UNL1        0.2239
     24 O           6.4144   -2.7591   31.8670 O.2     1  UNL1       -0.2750
     25 H           6.7861   -5.0228   29.2428 H       1  UNL1        0.1495
     26 O          -1.7769    3.8547   21.6275 O.3     1  UNL1       -0.4553
     27 C          -2.3288    5.2494   21.6409 C.3     1  UNL1        0.2543
     28 N           0.7715    2.2719   21.6043 N.pl3   1  UNL1       -0.2104
     29 H           0.7485    2.9766   20.9172 H       1  UNL1        0.1739
     30 S           1.5688    1.0230   21.3712 S.O2    1  UNL1        0.0745
     31 O           2.8391    1.8118   21.4897 O.2     1  UNL1       -0.1499
     32 O           0.2986    0.2341   21.2527 O.2     1  UNL1       -0.1499
     33 C           2.3663   -0.2260   21.1382 C.ar    1  UNL1        0.1358
     34 C           2.5334   -0.7604   19.7466 C.ar    1  UNL1        0.0234
     35 C           3.3308   -2.0093   19.5135 C.ar    1  UNL1        0.0311
     36 C           3.9611   -2.7238   20.6720 C.ar    1  UNL1        0.1411
     37 F           4.7585   -3.9727   20.4389 F       1  UNL1       -0.2041
     38 C           3.7940   -2.1894   22.0635 C.ar    1  UNL1        0.0424
     39 C           2.9966   -0.9405   22.2966 C.ar    1  UNL1        0.0787
     40 CL          2.8296   -0.4061   23.6882 Cl      1  UNL1       -0.0808
@<TRIPOS>BOND
     1    21    22    1
     2    22    23   am
     3    23    24    2
     4    23    19    1
     5    19    20    1
     6    19    18    1
     7    18     7    1
     8     7     8   ar
     9     8     9   ar
    10     9    10   ar
    11    10    11   ar
    12    11    12   ar
    13    12    13   ar
    14    13     1    1
    15     1     2   ar
    16     2     3   ar
    17     3     4   ar
    18     4    26    1
    19    26    27    1
    20     4     5   ar
    21     5    28    1
    22    28    30    1
    23    30    31    2
    24    30    32    2
    25    30    33    1
    26    33    34   ar
    27    34    35   ar
    28    35    36   ar
    29    36    37    1
    30    36    38   ar
    31    38    39   ar
    32    39    40    1
    33     5     6   ar
    34    13    14   ar
    35    14    15   ar
    36    15    16   ar
    37    16    17    2
    38    16     7   ar
    39    15    10   ar
    40     6     1   ar
    41    39    33   ar
    42    22    25    1
    43    28    29    1
@<TRIPOS>MOLECULE
*****
 40 43 0 0 0
SMALL
GASTEIGER

@<TRIPOS>ATOM
      1 C           0.4356    1.7373   22.7062 C.ar    1  UNL1        0.0207
      2 C           0.7529    1.1012   24.0270 C.ar    1  UNL1        0.1021
      3 N           0.0815    1.5907   25.2759 N.ar    1  UNL1       -0.2090
      4 C          -0.9073    2.7164   25.2038 C.ar    1  UNL1        0.2400
      5 C          -1.2246    3.3525   23.8829 C.ar    1  UNL1        0.1178
      6 C          -0.5532    2.8629   22.6341 C.ar    1  UNL1        0.0221
      7 N           4.2753   -2.1093   19.0715 N.ar    1  UNL1       -0.2777
      8 C           4.0339   -1.4098   17.7667 C.ar    1  UNL1        0.1808
      9 N           3.1211   -0.2209   17.7108 N.ar    1  UNL1       -0.2252
     10 C           2.4497    0.2687   18.9596 C.ar    1  UNL1        0.0876
     11 C           1.5369    1.4576   18.9037 C.ar    1  UNL1        0.0193
     12 C           0.8656    1.9471   20.1525 C.ar    1  UNL1        0.0016
     13 C           1.1070    1.2477   21.4573 C.ar    1  UNL1        0.0018
     14 C           2.0197    0.0587   21.5133 C.ar    1  UNL1        0.0063
     15 C           2.6911   -0.4308   20.2644 C.ar    1  UNL1        0.0739
     16 C           3.6039   -1.6198   20.3204 C.ar    1  UNL1        0.2634
     17 O           3.8453   -2.3193   21.6251 O.2     1  UNL1       -0.2669
     18 C           5.1881   -3.2983   19.1274 C.3     1  UNL1        0.1196
     19 C           6.5695   -3.1573   19.6947 C.3     1  UNL1        0.0991
     20 C           7.5780   -2.2867   19.0055 C.3     1  UNL1        0.0116
     21 C           6.8602   -4.0979   23.5393 C.3     1  UNL1        0.1107
     22 N           6.4872   -3.3682   22.2829 N.am    1  UNL1       -0.3026
     23 C           6.9425   -3.8869   20.9511 C.2     1  UNL1        0.2239
     24 O           7.7707   -5.1352   20.8757 O.2     1  UNL1       -0.2750
     25 H           5.9436   -2.5489   22.3323 H       1  UNL1        0.1495
     26 O          -1.5787    3.2060   26.4526 O.3     1  UNL1       -0.4553
     27 C          -0.9562    4.3095   27.2554 C.3     1  UNL1        0.2543
     28 N          -2.2134    4.4782   23.8109 N.pl3   1  UNL1       -0.2104
     29 H          -2.1349    5.2424   24.4265 H       1  UNL1        0.1739
     30 S          -3.3217    4.4394   22.8009 S.O2    1  UNL1        0.0745
     31 O          -3.9238    3.2608   23.5067 O.2     1  UNL1       -0.1499
     32 O          -2.7196    5.6181   22.0950 O.2     1  UNL1       -0.1499
     33 C          -4.4301    4.4006   21.7908 C.ar    1  UNL1        0.1358
     34 C          -5.7428    5.0608   22.0922 C.ar    1  UNL1        0.0234
     35 C          -6.8511    5.0221   21.0823 C.ar    1  UNL1        0.0311
     36 C          -6.6467    4.3231   19.7709 C.ar    1  UNL1        0.1411
     37 F          -7.7551    4.2844   18.7609 F       1  UNL1       -0.2041
     38 C          -5.3340    3.6629   19.4696 C.ar    1  UNL1        0.0424
     39 C          -4.2256    3.7017   20.4795 C.ar    1  UNL1        0.0787
     40 CL         -2.9129    3.0415   20.1781 Cl      1  UNL1       -0.0808
@<TRIPOS>BOND
     1    21    22    1
     2    22    23   am
     3    23    24    2
     4    23    19    1
     5    19    20    1
     6    19    18    1
     7    18     7    1
     8     7     8   ar
     9     8     9   ar
    10     9    10   ar
    11    10    11   ar
    12    11    12   ar
    13    12    13   ar
    14    13     1    1
    15     1     2   ar
    16     2     3   ar
    17     3     4   ar
    18     4    26    1
    19    26    27    1
    20     4     5   ar
    21     5    28    1
    22    28    30    1
    23    30    31    2
    24    30    32    2
    25    30    33    1
    26    33    34   ar
    27    34    35   ar
    28    35    36   ar
    29    36    37    1
    30    36    38   ar
    31    38    39   ar
    32    39    40    1
    33     5     6   ar
    34    13    14   ar
    35    14    15   ar
    36    15    16   ar
    37    16    17    2
    38    16     7   ar
    39    15    10   ar
    40     6     1   ar
    41    39    33   ar
    42    22    25    1
    43    28    29    1
@<TRIPOS>MOLECULE
*****
 40 43 0 0 0
SMALL
GASTEIGER

@<TRIPOS>ATOM
      1 C           6.2970   -2.9933   26.4510 C.ar    1  UNL1        0.0207
      2 C           7.1404   -3.7991   27.3939 C.ar    1  UNL1        0.1021
      3 N           7.1135   -3.5028   28.8642 N.ar    1  UNL1       -0.2090
      4 C           6.2432   -2.4008   29.3914 C.ar    1  UNL1        0.2400
      5 C           5.3997   -1.5949   28.4483 C.ar    1  UNL1        0.1178
      6 C           5.4266   -1.8912   26.9781 C.ar    1  UNL1        0.0221
      7 N           4.2406   -2.7771   20.2482 N.ar    1  UNL1       -0.2777
      8 C           5.3360   -3.6259   19.6740 C.ar    1  UNL1        0.1808
      9 N           6.4046   -4.1784   20.5701 N.ar    1  UNL1       -0.2252
     10 C           6.3777   -3.8821   22.0404 C.ar    1  UNL1        0.0876
     11 C           7.4462   -4.4346   22.9364 C.ar    1  UNL1        0.0193
     12 C           7.4193   -4.1383   24.4066 C.ar    1  UNL1        0.0016
     13 C           6.3238   -3.2896   24.9807 C.ar    1  UNL1        0.0018
     14 C           5.2553   -2.7371   24.0846 C.ar    1  UNL1        0.0063
     15 C           5.2822   -3.0333   22.6145 C.ar    1  UNL1        0.0739
     16 C           4.2137   -2.4808   21.7183 C.ar    1  UNL1        0.2634
     17 O           3.1182   -1.6321   22.2924 O.2     1  UNL1       -0.2669
     18 C           3.1720   -2.2246   19.3520 C.3     1  UNL1        0.1196
     19 C           3.1177   -0.7526   19.0689 C.3     1  UNL1        0.0991
     20 C           4.3016   -0.0618   18.4597 C.3     1  UNL1        0.0116
     21 C           0.2970    1.1078   21.1504 C.3     1  UNL1        0.1107
     22 N           1.5352    0.3265   20.8243 N.am    1  UNL1       -0.3026
     23 C           1.8795    0.0287   19.3950 C.2     1  UNL1        0.2239
     24 O           0.9854    0.5122   18.2919 O.2     1  UNL1       -0.2750
     25 H           2.1220    0.0092   21.5483 H       1  UNL1        0.1495
     26 O           6.2163   -2.1045   30.8616 O.3     1  UNL1       -0.4553
     27 C           6.4415   -3.2072   31.8531 C.3     1  UNL1        0.2543
     28 N           4.5294   -0.4929   28.9755 N.pl3   1  UNL1       -0.2104
     29 H           4.6873   -0.1293   29.8767 H       1  UNL1        0.1739
     30 S           3.4185    0.0552   28.1297 S.O2    1  UNL1        0.0745
     31 O           2.6329   -1.2043   28.3453 O.2     1  UNL1       -0.1499
     32 O           4.2040    1.3147   27.9141 O.2     1  UNL1       -0.1499
     33 C           2.3075    0.6033   27.2839 C.ar    1  UNL1        0.1358
     34 C           2.3855    0.5072   25.7890 C.ar    1  UNL1        0.0234
     35 C           1.2746    1.0552   24.9431 C.ar    1  UNL1        0.0311
     36 C           0.0856    1.6993   25.5922 C.ar    1  UNL1        0.1411
     37 F          -1.0254    2.2474   24.7464 F       1  UNL1       -0.2041
     38 C           0.0075    1.7954   27.0871 C.ar    1  UNL1        0.0424
     39 C           1.1185    1.2474   27.9329 C.ar    1  UNL1        0.0787
     40 CL          1.0404    1.3435   29.4278 Cl      1  UNL1       -0.0808
@<TRIPOS>BOND
     1    21    22    1
     2    22    23   am
     3    23    24    2
     4    23    19    1
     5    19    20    1
     6    19    18    1
     7    18     7    1
     8     7     8   ar
     9     8     9   ar
    10     9    10   ar
    11    10    11   ar
    12    11    12   ar
    13    12    13   ar
    14    13     1    1
    15     1     2   ar
    16     2     3   ar
    17     3     4   ar
    18     4    26    1
    19    26    27    1
    20     4     5   ar
    21     5    28    1
    22    28    30    1
    23    30    31    2
    24    30    32    2
    25    30    33    1
    26    33    34   ar
    27    34    35   ar
    28    35    36   ar
    29    36    37    1
    30    36    38   ar
    31    38    39   ar
    32    39    40    1
    33     5     6   ar
    34    13    14   ar
    35    14    15   ar
    36    15    16   ar
    37    16    17    2
    38    16     7   ar
    39    15    10   ar
    40     6     1   ar
    41    39    33   ar
    42    22    25    1
    43    28    29    1
