@<TRIPOS>MOLECULE
*****
 19 21 0 0 0
SMALL
GASTEIGER

@<TRIPOS>ATOM
      1 N          -8.9347  -18.9545   21.5423 N.pl3   1  UNL1       -0.2924
      2 C          -8.5648  -19.3427   20.1414 C.3     1  UNL1        0.1094
      3 C          -7.0947  -19.6393   20.1154 C.3     1  UNL1        0.0951
      4 N          -6.5559  -19.4344   21.5002 N.3     1  UNL1       -0.2528
      5 C          -7.6931  -19.0112   22.3821 C.3     1  UNL1        0.1690
      6 C         -13.0469  -17.8193   22.9743 C.ar    1  UNL1        0.0001
      7 C         -12.0381  -18.3604   23.9435 C.ar    1  UNL1        0.0013
      8 C         -10.6674  -18.7388   23.4662 C.ar    1  UNL1        0.0145
      9 C         -10.3054  -18.5761   22.0196 C.ar    1  UNL1        0.0488
     10 C         -11.3143  -18.0350   21.0504 C.ar    1  UNL1        0.0145
     11 C         -12.6850  -17.6566   21.5278 C.ar    1  UNL1        0.0013
     12 C          -5.1302  -19.6201   21.9280 C.3     1  UNL1        0.0893
     13 C          -4.0331  -18.8787   21.2233 C.3     1  UNL1        0.0702
     14 C          -3.5950  -19.3101   19.8551 C.3     1  UNL1        0.0172
     15 C          -2.4979  -18.5688   19.1504 C.3     1  UNL1        0.0028
     16 C          -1.8387  -17.3961   19.8139 C.3     1  UNL1        0.0171
     17 C          -2.2768  -16.9647   21.1822 C.3     1  UNL1        0.0686
     18 N          -3.3740  -17.7061   21.8869 N.3     1  UNL1       -0.2974
     19 H          -4.1094  -17.0270   22.0830 H       1  UNL1        0.1232
@<TRIPOS>BOND
     1     6     7   ar
     2     7     8   ar
     3     8     9   ar
     4     9     1    1
     5     1     2    1
     6     2     3    1
     7     3     4    1
     8     4    12    1
     9    12    13    1
    10    13    14    1
    11    14    15    1
    12    15    16    1
    13    16    17    1
    14    17    18    1
    15     4     5    1
    16     9    10   ar
    17    10    11   ar
    18    11     6   ar
    19     5     1    1
    20    18    13    1
    21    18    19    1
@<TRIPOS>MOLECULE
*****
 19 21 0 0 0
SMALL
GASTEIGER

@<TRIPOS>ATOM
      1 N          -8.2363  -16.7590   23.5223 N.pl3   1  UNL1       -0.2924
      2 C          -9.5886  -16.5221   22.9180 C.3     1  UNL1        0.1094
      3 C          -9.6706  -17.3079   21.6429 C.3     1  UNL1        0.0951
      4 N          -8.3690  -18.0304   21.4592 N.3     1  UNL1       -0.2528
      5 C          -7.4826  -17.6912   22.6207 C.3     1  UNL1        0.1690
      6 C          -6.7090  -14.9846   27.3653 C.ar    1  UNL1        0.0001
      7 C          -8.1252  -15.4703   27.2743 C.ar    1  UNL1        0.0013
      8 C          -8.6343  -16.0618   25.9933 C.ar    1  UNL1        0.0145
      9 C          -7.7272  -16.1675   24.8033 C.ar    1  UNL1        0.0488
     10 C          -6.3110  -15.6818   24.8944 C.ar    1  UNL1        0.0145
     11 C          -5.8019  -15.0904   26.1754 C.ar    1  UNL1        0.0013
     12 C          -8.0158  -18.9336   20.3149 C.3     1  UNL1        0.0893
     13 C          -6.5947  -19.3699   20.1147 C.3     1  UNL1        0.0702
     14 C          -6.1971  -20.7867   20.4052 C.3     1  UNL1        0.0172
     15 C          -4.7760  -21.2230   20.2050 C.3     1  UNL1        0.0028
     16 C          -3.7525  -20.2424   19.7143 C.3     1  UNL1        0.0171
     17 C          -4.1501  -18.8255   19.4238 C.3     1  UNL1        0.0686
     18 N          -5.5712  -18.3893   19.6240 N.3     1  UNL1       -0.2974
     19 H          -5.9027  -18.0435   18.7235 H       1  UNL1        0.1232
@<TRIPOS>BOND
     1     6     7   ar
     2     7     8   ar
     3     8     9   ar
     4     9     1    1
     5     1     2    1
     6     2     3    1
     7     3     4    1
     8     4    12    1
     9    12    13    1
    10    13    14    1
    11    14    15    1
    12    15    16    1
    13    16    17    1
    14    17    18    1
    15     4     5    1
    16     9    10   ar
    17    10    11   ar
    18    11     6   ar
    19     5     1    1
    20    18    13    1
    21    18    19    1
@<TRIPOS>MOLECULE
*****
 19 21 0 0 0
SMALL
GASTEIGER

@<TRIPOS>ATOM
      1 N          -5.9722  -17.5238   22.9238 N.pl3   1  UNL1       -0.2924
      2 C          -5.5168  -16.3919   23.7963 C.3     1  UNL1        0.1094
      3 C          -6.7340  -15.7376   24.3796 C.3     1  UNL1        0.0951
      4 N          -7.9417  -16.4651   23.8676 N.3     1  UNL1       -0.2528
      5 C          -7.4709  -17.5691   22.9678 C.3     1  UNL1        0.1690
      6 C          -3.3099  -20.2971   20.5847 C.ar    1  UNL1        0.0001
      7 C          -4.7592  -20.1650   20.2214 C.ar    1  UNL1        0.0013
      8 C          -5.6466  -19.2406   21.0011 C.ar    1  UNL1        0.0145
      9 C          -5.0848  -18.4483   22.1441 C.ar    1  UNL1        0.0488
     10 C          -3.6355  -18.5803   22.5074 C.ar    1  UNL1        0.0145
     11 C          -2.7480  -19.5047   21.7277 C.ar    1  UNL1        0.0013
     12 C          -9.3695  -16.1449   24.1974 C.3     1  UNL1        0.0893
     13 C         -10.4670  -16.5647   23.2650 C.3     1  UNL1        0.0702
     14 C         -11.3603  -17.7140   23.6273 C.3     1  UNL1        0.0172
     15 C         -12.4577  -18.1338   22.6950 C.3     1  UNL1        0.0028
     16 C         -12.6618  -17.4044   21.4003 C.3     1  UNL1        0.0171
     17 C         -11.7686  -16.2552   21.0379 C.3     1  UNL1        0.0686
     18 N         -10.6711  -15.8354   21.9703 N.3     1  UNL1       -0.2974
     19 H         -10.8434  -14.8582   22.2068 H       1  UNL1        0.1232
@<TRIPOS>BOND
     1     6     7   ar
     2     7     8   ar
     3     8     9   ar
     4     9     1    1
     5     1     2    1
     6     2     3    1
     7     3     4    1
     8     4    12    1
     9    12    13    1
    10    13    14    1
    11    14    15    1
    12    15    16    1
    13    16    17    1
    14    17    18    1
    15     4     5    1
    16     9    10   ar
    17    10    11   ar
    18    11     6   ar
    19     5     1    1
    20    18    13    1
    21    18    19    1
@<TRIPOS>MOLECULE
*****
 19 21 0 0 0
SMALL
GASTEIGER

@<TRIPOS>ATOM
      1 N          -7.4775  -16.9862   23.4706 N.pl3   1  UNL1       -0.2924
      2 C          -8.7413  -17.0868   22.6689 C.3     1  UNL1        0.1094
      3 C          -8.4426  -17.8775   21.4298 C.3     1  UNL1        0.0951
      4 N          -6.9941  -18.2657   21.4656 N.3     1  UNL1       -0.2528
      5 C          -6.3977  -17.7149   22.7268 C.3     1  UNL1        0.1690
      6 C          -7.0078  -14.8703   27.4142 C.ar    1  UNL1        0.0001
      7 C          -5.8403  -14.9815   26.4790 C.ar    1  UNL1        0.0013
      8 C          -5.9969  -15.6869   25.1645 C.ar    1  UNL1        0.0145
      9 C          -7.3209  -16.2809   24.7851 C.ar    1  UNL1        0.0488
     10 C          -8.4884  -16.1697   25.7203 C.ar    1  UNL1        0.0145
     11 C          -8.3319  -15.4644   27.0348 C.ar    1  UNL1        0.0013
     12 C          -6.2694  -19.0645   20.4231 C.3     1  UNL1        0.0893
     13 C          -4.7699  -19.1063   20.4184 C.3     1  UNL1        0.0702
     14 C          -4.0074  -18.5328   19.2609 C.3     1  UNL1        0.0172
     15 C          -2.5080  -18.5746   19.2562 C.3     1  UNL1        0.0028
     16 C          -1.7712  -19.1897   20.4088 C.3     1  UNL1        0.0171
     17 C          -2.5338  -19.7632   21.5662 C.3     1  UNL1        0.0686
     18 N          -4.0332  -19.7214   21.5710 N.3     1  UNL1       -0.2974
     19 H          -4.3108  -19.2064   22.4065 H       1  UNL1        0.1232
@<TRIPOS>BOND
     1     6     7   ar
     2     7     8   ar
     3     8     9   ar
     4     9     1    1
     5     1     2    1
     6     2     3    1
     7     3     4    1
     8     4    12    1
     9    12    13    1
    10    13    14    1
    11    14    15    1
    12    15    16    1
    13    16    17    1
    14    17    18    1
    15     4     5    1
    16     9    10   ar
    17    10    11   ar
    18    11     6   ar
    19     5     1    1
    20    18    13    1
    21    18    19    1
@<TRIPOS>MOLECULE
*****
 19 21 0 0 0
SMALL
GASTEIGER

@<TRIPOS>ATOM
      1 N         -14.2683   -7.0855   18.9255 N.pl3   1  UNL1       -0.2924
      2 C         -13.4377   -7.9622   18.0358 C.3     1  UNL1        0.1094
      3 C         -12.0549   -7.3841   17.9754 C.3     1  UNL1        0.0951
      4 N         -12.0308   -6.1500   18.8278 N.3     1  UNL1       -0.2528
      5 C         -13.3988   -5.9655   19.4150 C.3     1  UNL1        0.1690
      6 C         -18.6066   -7.7064   19.9468 C.ar    1  UNL1        0.0001
      7 C         -17.6494   -8.8595   20.0075 C.ar    1  UNL1        0.0013
      8 C         -16.2032   -8.6526   19.6671 C.ar    1  UNL1        0.0145
      9 C         -15.7144   -7.2925   19.2659 C.ar    1  UNL1        0.0488
     10 C         -16.6717   -6.1393   19.2051 C.ar    1  UNL1        0.0145
     11 C         -18.1178   -6.3462   19.5455 C.ar    1  UNL1        0.0013
     12 C         -10.8468   -5.2573   19.0534 C.3     1  UNL1        0.0893
     13 C         -10.8374   -3.8671   18.4900 C.3     1  UNL1        0.0702
     14 C         -10.1582   -3.5930   17.1810 C.3     1  UNL1        0.0172
     15 C         -10.1488   -2.2030   16.6175 C.3     1  UNL1        0.0028
     16 C         -10.8186   -1.0870   17.3630 C.3     1  UNL1        0.0171
     17 C         -11.4979   -1.3611   18.6720 C.3     1  UNL1        0.0686
     18 N         -11.5073   -2.7512   19.2355 N.3     1  UNL1       -0.2974
     19 H         -12.4857   -3.0172   19.3469 H       1  UNL1        0.1232
@<TRIPOS>BOND
     1     6     7   ar
     2     7     8   ar
     3     8     9   ar
     4     9     1    1
     5     1     2    1
     6     2     3    1
     7     3     4    1
     8     4    12    1
     9    12    13    1
    10    13    14    1
    11    14    15    1
    12    15    16    1
    13    16    17    1
    14    17    18    1
    15     4     5    1
    16     9    10   ar
    17    10    11   ar
    18    11     6   ar
    19     5     1    1
    20    18    13    1
    21    18    19    1
@<TRIPOS>MOLECULE
*****
 19 21 0 0 0
SMALL
GASTEIGER

@<TRIPOS>ATOM
      1 N         -13.7559   -5.2611   19.4174 N.pl3   1  UNL1       -0.2924
      2 C         -14.3855   -4.0178   19.9721 C.3     1  UNL1        0.1094
      3 C         -15.8606   -4.2604   20.0952 C.3     1  UNL1        0.0951
      4 N         -16.1427   -5.6538   19.6165 N.3     1  UNL1       -0.2528
      5 C         -14.8419   -6.2722   19.1976 C.3     1  UNL1        0.1690
      6 C          -9.3777   -5.8538   18.5625 C.ar    1  UNL1        0.0001
      7 C         -10.2870   -7.0412   18.6769 C.ar    1  UNL1        0.0013
      8 C         -11.7464   -6.8437   18.9619 C.ar    1  UNL1        0.0145
      9 C         -12.2965   -5.4587   19.1324 C.ar    1  UNL1        0.0488
     10 C         -11.3872   -4.2712   19.0180 C.ar    1  UNL1        0.0145
     11 C          -9.9278   -4.4688   18.7331 C.ar    1  UNL1        0.0013
     12 C         -17.4891   -6.3129   19.5657 C.3     1  UNL1        0.0893
     13 C         -17.6108   -7.7358   19.1066 C.3     1  UNL1        0.0702
     14 C         -17.0445   -8.8447   19.9430 C.3     1  UNL1        0.0172
     15 C         -17.1662  -10.2675   19.4840 C.3     1  UNL1        0.0028
     16 C         -17.8541  -10.5814   18.1886 C.3     1  UNL1        0.0171
     17 C         -18.4203   -9.4725   17.3522 C.3     1  UNL1        0.0686
     18 N         -18.2987   -8.0496   17.8112 N.3     1  UNL1       -0.2974
     19 H         -19.2472   -7.6819   17.8849 H       1  UNL1        0.1232
@<TRIPOS>BOND
     1     6     7   ar
     2     7     8   ar
     3     8     9   ar
     4     9     1    1
     5     1     2    1
     6     2     3    1
     7     3     4    1
     8     4    12    1
     9    12    13    1
    10    13    14    1
    11    14    15    1
    12    15    16    1
    13    16    17    1
    14    17    18    1
    15     4     5    1
    16     9    10   ar
    17    10    11   ar
    18    11     6   ar
    19     5     1    1
    20    18    13    1
    21    18    19    1
@<TRIPOS>MOLECULE
*****
 19 21 0 0 0
SMALL
GASTEIGER

@<TRIPOS>ATOM
      1 N           8.0321   -8.6180   26.9118 N.pl3   1  UNL1       -0.2924
      2 C           9.4026   -9.0984   27.2874 C.3     1  UNL1        0.1094
      3 C           9.2667  -10.4688   27.8819 C.3     1  UNL1        0.0951
      4 N           7.8122  -10.8354   27.8737 N.3     1  UNL1       -0.2528
      5 C           7.0492   -9.6915   27.2742 C.3     1  UNL1        0.1690
      6 C           7.0432   -4.6524   25.0286 C.ar    1  UNL1        0.0001
      7 C           6.7300   -4.8945   26.4754 C.ar    1  UNL1        0.0013
      8 C           7.0597   -6.2164   27.1031 C.ar    1  UNL1        0.0145
      9 C           7.7025   -7.2961   26.2841 C.ar    1  UNL1        0.0488
     10 C           8.0156   -7.0540   24.8373 C.ar    1  UNL1        0.0145
     11 C           7.6860   -5.7321   24.2095 C.ar    1  UNL1        0.0013
     12 C           7.2239  -12.1203   28.3767 C.3     1  UNL1        0.0893
     13 C           5.8185  -12.4957   28.0107 C.3     1  UNL1        0.0702
     14 C           4.6841  -12.1355   28.9235 C.3     1  UNL1        0.0172
     15 C           3.2788  -12.5109   28.5576 C.3     1  UNL1        0.0028
     16 C           3.0078  -13.2466   27.2788 C.3     1  UNL1        0.0171
     17 C           4.1423  -13.6069   26.3660 C.3     1  UNL1        0.0686
     18 N           5.5477  -13.2314   26.7320 N.3     1  UNL1       -0.2974
     19 H           5.9029  -12.6471   25.9752 H       1  UNL1        0.1232
@<TRIPOS>BOND
     1     6     7   ar
     2     7     8   ar
     3     8     9   ar
     4     9     1    1
     5     1     2    1
     6     2     3    1
     7     3     4    1
     8     4    12    1
     9    12    13    1
    10    13    14    1
    11    14    15    1
    12    15    16    1
    13    16    17    1
    14    17    18    1
    15     4     5    1
    16     9    10   ar
    17    10    11   ar
    18    11     6   ar
    19     5     1    1
    20    18    13    1
    21    18    19    1
@<TRIPOS>MOLECULE
*****
 19 21 0 0 0
SMALL
GASTEIGER

@<TRIPOS>ATOM
      1 N           1.7133    2.4463   32.8191 N.pl3   1  UNL1       -0.2924
      2 C           1.1171    3.8136   32.9771 C.3     1  UNL1        0.1094
      3 C           1.4604    4.3132   34.3492 C.3     1  UNL1        0.0951
      4 N           2.2688    3.2547   35.0391 N.3     1  UNL1       -0.2528
      5 C           2.4250    2.1008   34.0934 C.3     1  UNL1        0.1690
      6 C           1.4182   -0.1615   29.1636 C.ar    1  UNL1        0.0001
      7 C           0.4539    0.9711   29.3567 C.ar    1  UNL1        0.0013
      8 C           0.5522    1.8404   30.5752 C.ar    1  UNL1        0.0145
      9 C           1.6149    1.5770   31.6006 C.ar    1  UNL1        0.0488
     10 C           2.5792    0.4445   31.4074 C.ar    1  UNL1        0.0145
     11 C           2.4808   -0.4248   30.1889 C.ar    1  UNL1        0.0013
     12 C           2.8235    3.3357   36.4304 C.3     1  UNL1        0.0893
     13 C           2.1640    2.5803   37.5460 C.3     1  UNL1        0.0702
     14 C           2.7562    1.2903   38.0311 C.3     1  UNL1        0.0172
     15 C           2.0967    0.5350   39.1466 C.3     1  UNL1        0.0028
     16 C           0.8450    1.0695   39.7770 C.3     1  UNL1        0.0171
     17 C           0.2528    2.3595   39.2919 C.3     1  UNL1        0.0686
     18 N           0.9123    3.1149   38.1764 N.3     1  UNL1       -0.2974
     19 H           1.1383    4.0404   38.5407 H       1  UNL1        0.1232
@<TRIPOS>BOND
     1     6     7   ar
     2     7     8   ar
     3     8     9   ar
     4     9     1    1
     5     1     2    1
     6     2     3    1
     7     3     4    1
     8     4    12    1
     9    12    13    1
    10    13    14    1
    11    14    15    1
    12    15    16    1
    13    16    17    1
    14    17    18    1
    15     4     5    1
    16     9    10   ar
    17    10    11   ar
    18    11     6   ar
    19     5     1    1
    20    18    13    1
    21    18    19    1
@<TRIPOS>MOLECULE
*****
 19 21 0 0 0
SMALL
GASTEIGER

@<TRIPOS>ATOM
      1 N         -12.1319   -2.9615   18.5903 N.pl3   1  UNL1       -0.2924
      2 C         -11.4319   -1.6494   18.7865 C.3     1  UNL1        0.1094
      3 C         -12.4326   -0.5532   18.5701 C.3     1  UNL1        0.0951
      4 N         -13.7512   -1.1878   18.2402 N.3     1  UNL1       -0.2528
      5 C         -13.5653   -2.6762   18.2527 C.3     1  UNL1        0.1690
      6 C         -10.2603   -7.0379   18.9512 C.ar    1  UNL1        0.0001
      7 C          -9.4030   -5.8095   19.0290 C.ar    1  UNL1        0.0013
      8 C         -10.0269   -4.4507   18.9087 C.ar    1  UNL1        0.0145
      9 C         -11.5080   -4.3203   18.7106 C.ar    1  UNL1        0.0488
     10 C         -12.3653   -5.5487   18.6328 C.ar    1  UNL1        0.0145
     11 C         -11.7414   -6.9075   18.7531 C.ar    1  UNL1        0.0013
     12 C         -15.0309   -0.4615   17.9490 C.3     1  UNL1        0.0893
     13 C         -15.6035    0.4849   18.9622 C.3     1  UNL1        0.0702
     14 C         -16.5344   -0.0245   20.0223 C.3     1  UNL1        0.0172
     15 C         -17.1070    0.9219   21.0354 C.3     1  UNL1        0.0028
     16 C         -16.7486    2.3777   20.9885 C.3     1  UNL1        0.0171
     17 C         -15.8177    2.8870   19.9284 C.3     1  UNL1        0.0686
     18 N         -15.2451    1.9406   18.9152 N.3     1  UNL1       -0.2974
     19 H         -14.2302    1.9969   19.0002 H       1  UNL1        0.1232
@<TRIPOS>BOND
     1     6     7   ar
     2     7     8   ar
     3     8     9   ar
     4     9     1    1
     5     1     2    1
     6     2     3    1
     7     3     4    1
     8     4    12    1
     9    12    13    1
    10    13    14    1
    11    14    15    1
    12    15    16    1
    13    16    17    1
    14    17    18    1
    15     4     5    1
    16     9    10   ar
    17    10    11   ar
    18    11     6   ar
    19     5     1    1
    20    18    13    1
    21    18    19    1
