@<TRIPOS>MOLECULE
*****
 34 38 0 0 0
SMALL
GASTEIGER

@<TRIPOS>ATOM
      1 C           7.9030   -1.7442   23.3348 C.2     1  UNL1        0.2463
      2 O           9.1312   -1.7482   24.1958 O.2     1  UNL1       -0.2730
      3 N           7.8480   -0.8793   22.1106 N.am    1  UNL1       -0.2781
      4 C           9.0214   -0.0183   21.7472 C.3     1  UNL1        0.0935
      5 C           8.9664    0.8466   20.5230 C.3     1  UNL1        0.0219
      6 C           7.7381    0.8506   19.6620 C.3     1  UNL1        0.0078
      7 C           6.5648   -0.0103   20.0253 C.3     1  UNL1        0.0419
      8 C           6.6197   -0.8753   21.2496 C.3     1  UNL1        0.0953
      9 C           5.3365   -0.0063   19.1643 C.ar    1  UNL1       -0.0209
     10 C           5.3304   -0.7523   17.8629 C.ar    1  UNL1       -0.0042
     11 C           4.1021   -0.7483   17.0019 C.ar    1  UNL1       -0.0003
     12 C           2.8799    0.0017   17.4424 C.ar    1  UNL1       -0.0000
     13 C           2.8861    0.7476   18.7437 C.ar    1  UNL1       -0.0003
     14 C           4.1144    0.7436   19.6047 C.ar    1  UNL1       -0.0042
     15 C           6.7296   -2.6052   23.6982 C.3     1  UNL1        0.1835
     16 C           8.3022   -8.5185   26.8301 C.3     1  UNL1        0.0308
     17 C           7.8602   -7.1505   26.4022 C.ar    1  UNL1       -0.0227
     18 C           7.2230   -6.2236   27.3945 C.ar    1  UNL1        0.0336
     19 C           6.7810   -4.8556   26.9666 C.ar    1  UNL1        0.1525
     20 C           6.9763   -4.4144   25.5464 C.ar    1  UNL1        0.0882
     21 C           7.6135   -5.3413   24.5540 C.ar    1  UNL1        0.0134
     22 C           8.0555   -6.7093   24.9820 C.ar    1  UNL1       -0.0244
     23 C           8.6928   -7.6362   23.9895 C.3     1  UNL1        0.0307
     24 N           6.5343   -3.0464   25.1184 N.am    1  UNL1       -0.2439
     25 C           5.8970   -2.1195   26.1108 C.2     1  UNL1        0.2744
     26 O           5.4550   -0.7515   25.6828 O.2     1  UNL1       -0.2705
     27 C           5.7017   -2.5607   27.5311 C.3     1  UNL1        0.2900
     28 O           6.1437   -3.9287   27.9590 O.3     1  UNL1       -0.4643
     29 C           5.4464   -1.7362   21.6129 C.3     1  UNL1        0.0924
     30 N           4.9330   -2.7545   20.6384 N.3     1  UNL1       -0.2713
     31 C           3.5133   -2.8940   20.1749 C.3     1  UNL1        0.0722
     32 C           3.4521   -4.0378   19.2064 C.3     1  UNL1        0.0188
     33 C           4.8340   -4.6053   19.0714 C.3     1  UNL1        0.0188
     34 C           5.7493   -3.8121   19.9564 C.3     1  UNL1        0.0722
@<TRIPOS>BOND
     1    16    17    1
     2    17    18   ar
     3    18    19   ar
     4    19    20   ar
     5    20    21   ar
     6    21    22   ar
     7    22    23    1
     8    20    24    1
     9    24    15    1
    10    15     1    1
    11     1     2    2
    12     1     3   am
    13     3     4    1
    14     4     5    1
    15     5     6    1
    16     6     7    1
    17     7     9    1
    18     9    10   ar
    19    10    11   ar
    20    11    12   ar
    21    12    13   ar
    22    13    14   ar
    23     7     8    1
    24     8    29    1
    25    29    30    1
    26    30    31    1
    27    31    32    1
    28    32    33    1
    29    33    34    1
    30    24    25   am
    31    25    26    2
    32    25    27    1
    33    27    28    1
    34    22    17   ar
    35     8     3    1
    36    34    30    1
    37    28    19    1
    38    14     9   ar
@<TRIPOS>MOLECULE
*****
 34 38 0 0 0
SMALL
GASTEIGER

@<TRIPOS>ATOM
      1 C           7.0410   -1.7113   23.4554 C.2     1  UNL1        0.2463
      2 O           7.2137   -0.6029   22.4596 O.2     1  UNL1       -0.2730
      3 N           7.8150   -1.6926   24.7401 N.am    1  UNL1       -0.2781
      4 C           8.7618   -0.5655   25.0291 C.3     1  UNL1        0.0935
      5 C           9.5358   -0.5468   26.3138 C.3     1  UNL1        0.0219
      6 C           9.3631   -1.6552   27.3096 C.3     1  UNL1        0.0078
      7 C           8.4164   -2.7822   27.0207 C.3     1  UNL1        0.0419
      8 C           7.6423   -2.8010   25.7360 C.3     1  UNL1        0.0953
      9 C           8.2437   -3.8906   28.0166 C.ar    1  UNL1       -0.0209
     10 C           7.0128   -3.9451   28.8722 C.ar    1  UNL1       -0.0042
     11 C           6.8401   -5.0534   29.8681 C.ar    1  UNL1       -0.0003
     12 C           7.8983   -6.1073   30.0083 C.ar    1  UNL1       -0.0000
     13 C           9.1291   -6.0528   29.1527 C.ar    1  UNL1       -0.0003
     14 C           9.3018   -4.9445   28.1568 C.ar    1  UNL1       -0.0042
     15 C           6.0943   -2.8384   23.1665 C.3     1  UNL1        0.1835
     16 C           0.5650    0.3595   20.6267 C.3     1  UNL1        0.0308
     17 C           1.7821   -0.4646   20.9259 C.ar    1  UNL1       -0.0227
     18 C           2.3381   -1.3874   19.8823 C.ar    1  UNL1        0.0336
     19 C           3.5552   -2.2116   20.1816 C.ar    1  UNL1        0.1525
     20 C           4.2162   -2.1129   21.5244 C.ar    1  UNL1        0.0882
     21 C           3.6601   -1.1901   22.5680 C.ar    1  UNL1        0.0134
     22 C           2.4431   -0.3659   22.2688 C.ar    1  UNL1       -0.0244
     23 C           1.8870    0.5570   23.3125 C.3     1  UNL1        0.0307
     24 N           5.4333   -2.9370   21.8237 N.am    1  UNL1       -0.2439
     25 C           5.9893   -3.8599   20.7801 C.2     1  UNL1        0.2744
     26 O           7.2064   -4.6840   21.0793 O.2     1  UNL1       -0.2705
     27 C           5.3283   -3.9586   19.4371 C.3     1  UNL1        0.2900
     28 O           4.1112   -3.1345   19.1379 O.3     1  UNL1       -0.4643
     29 C           6.6956   -3.9280   25.4471 C.3     1  UNL1        0.0924
     30 N           7.2149   -5.3293   25.3181 N.3     1  UNL1       -0.2713
     31 C           8.2055   -5.8123   24.3005 C.3     1  UNL1        0.0722
     32 C           8.4376   -7.2752   24.5375 C.3     1  UNL1        0.0188
     33 C           7.5905   -7.6963   25.7016 C.3     1  UNL1        0.0188
     34 C           6.8348   -6.4937   26.1840 C.3     1  UNL1        0.0722
@<TRIPOS>BOND
     1    16    17    1
     2    17    18   ar
     3    18    19   ar
     4    19    20   ar
     5    20    21   ar
     6    21    22   ar
     7    22    23    1
     8    20    24    1
     9    24    15    1
    10    15     1    1
    11     1     2    2
    12     1     3   am
    13     3     4    1
    14     4     5    1
    15     5     6    1
    16     6     7    1
    17     7     9    1
    18     9    10   ar
    19    10    11   ar
    20    11    12   ar
    21    12    13   ar
    22    13    14   ar
    23     7     8    1
    24     8    29    1
    25    29    30    1
    26    30    31    1
    27    31    32    1
    28    32    33    1
    29    33    34    1
    30    24    25   am
    31    25    26    2
    32    25    27    1
    33    27    28    1
    34    22    17   ar
    35     8     3    1
    36    34    30    1
    37    28    19    1
    38    14     9   ar
@<TRIPOS>MOLECULE
*****
 34 38 0 0 0
SMALL
GASTEIGER

@<TRIPOS>ATOM
      1 C           0.7995    1.8298   21.5090 C.2     1  UNL1        0.2463
      2 O           0.1277    2.7666   22.4686 O.2     1  UNL1       -0.2730
      3 N           1.7254    0.7671   22.0223 N.am    1  UNL1       -0.2781
      4 C           1.9795    0.6413   23.4953 C.3     1  UNL1        0.0935
      5 C           2.9053   -0.4213   24.0085 C.3     1  UNL1        0.0219
      6 C           3.5772   -1.3582   23.0489 C.3     1  UNL1        0.0078
      7 C           3.3231   -1.2324   21.5760 C.3     1  UNL1        0.0419
      8 C           2.3972   -0.1697   21.0626 C.3     1  UNL1        0.0953
      9 C           3.9950   -2.1693   20.6163 C.ar    1  UNL1       -0.0209
     10 C           5.4592   -2.0223   20.3256 C.ar    1  UNL1       -0.0042
     11 C           6.1310   -2.9591   19.3659 C.ar    1  UNL1       -0.0003
     12 C           5.3386   -4.0430   18.6970 C.ar    1  UNL1       -0.0000
     13 C           3.8744   -4.1899   18.9877 C.ar    1  UNL1       -0.0003
     14 C           3.2026   -3.2531   19.9474 C.ar    1  UNL1       -0.0042
     15 C           0.5454    1.9556   20.0360 C.3     1  UNL1        0.1835
     16 C           3.1815    7.0117   16.1972 C.3     1  UNL1        0.0308
     17 C           2.3652    6.0592   17.0197 C.ar    1  UNL1       -0.0227
     18 C           0.9200    6.3530   17.2933 C.ar    1  UNL1        0.0336
     19 C           0.1037    5.4005   18.1158 C.ar    1  UNL1        0.1525
     20 C           0.7327    4.1543   18.6647 C.ar    1  UNL1        0.0882
     21 C           2.1779    3.8605   18.3910 C.ar    1  UNL1        0.0134
     22 C           2.9942    4.8130   17.5685 C.ar    1  UNL1       -0.0244
     23 C           4.4395    4.5192   17.2948 C.3     1  UNL1        0.0307
     24 N          -0.0836    3.2018   19.4872 N.am    1  UNL1       -0.2439
     25 C          -1.5288    3.4956   19.7609 C.2     1  UNL1        0.2744
     26 O          -2.3451    2.5431   20.5834 O.2     1  UNL1       -0.2705
     27 C          -2.1579    4.7419   19.2120 C.3     1  UNL1        0.2900
     28 O          -1.3416    5.6944   18.3895 O.3     1  UNL1       -0.4643
     29 C           2.1431   -0.0440   19.5897 C.3     1  UNL1        0.0924
     30 N           3.2922    0.1426   18.6436 N.3     1  UNL1       -0.2713
     31 C           4.4324    1.1012   18.8195 C.3     1  UNL1        0.0722
     32 C           5.3476    0.9543   17.6402 C.3     1  UNL1        0.0188
     33 C           4.7730   -0.0950   16.7354 C.3     1  UNL1        0.0188
     34 C           3.5027   -0.5967   17.3556 C.3     1  UNL1        0.0722
@<TRIPOS>BOND
     1    16    17    1
     2    17    18   ar
     3    18    19   ar
     4    19    20   ar
     5    20    21   ar
     6    21    22   ar
     7    22    23    1
     8    20    24    1
     9    24    15    1
    10    15     1    1
    11     1     2    2
    12     1     3   am
    13     3     4    1
    14     4     5    1
    15     5     6    1
    16     6     7    1
    17     7     9    1
    18     9    10   ar
    19    10    11   ar
    20    11    12   ar
    21    12    13   ar
    22    13    14   ar
    23     7     8    1
    24     8    29    1
    25    29    30    1
    26    30    31    1
    27    31    32    1
    28    32    33    1
    29    33    34    1
    30    24    25   am
    31    25    26    2
    32    25    27    1
    33    27    28    1
    34    22    17   ar
    35     8     3    1
    36    34    30    1
    37    28    19    1
    38    14     9   ar
@<TRIPOS>MOLECULE
*****
 34 38 0 0 0
SMALL
GASTEIGER

@<TRIPOS>ATOM
      1 C           8.2020   -2.4191   22.9770 C.2     1  UNL1        0.2463
      2 O           9.5358   -2.5224   23.6555 O.2     1  UNL1       -0.2730
      3 N           7.9613   -1.3476   21.9553 N.am    1  UNL1       -0.2781
      4 C           9.0545   -0.3793   21.6121 C.3     1  UNL1        0.0935
      5 C           8.8138    0.6922   20.5904 C.3     1  UNL1        0.0219
      6 C           7.4800    0.7956   19.9119 C.3     1  UNL1        0.0078
      7 C           6.3870   -0.1726   20.2550 C.3     1  UNL1        0.0419
      8 C           6.6276   -1.2442   21.2767 C.3     1  UNL1        0.0953
      9 C           5.0532   -0.0693   19.5765 C.ar    1  UNL1       -0.0209
     10 C           3.8850    0.5259   20.3053 C.ar    1  UNL1       -0.0042
     11 C           2.5513    0.6292   19.6268 C.ar    1  UNL1       -0.0003
     12 C           2.3857    0.1374   18.2193 C.ar    1  UNL1       -0.0000
     13 C           3.5539   -0.4577   17.4905 C.ar    1  UNL1       -0.0003
     14 C           4.8876   -0.5611   18.1691 C.ar    1  UNL1       -0.0042
     15 C           7.1089   -3.3873   23.3202 C.3     1  UNL1        0.1835
     16 C           6.6826   -5.2230   29.9306 C.3     1  UNL1        0.0308
     17 C           6.8720   -5.0875   28.4488 C.ar    1  UNL1       -0.0227
     18 C           7.3925   -6.2456   27.6502 C.ar    1  UNL1        0.0336
     19 C           7.5819   -6.1101   26.1684 C.ar    1  UNL1        0.1525
     20 C           7.2507   -4.8165   25.4852 C.ar    1  UNL1        0.0882
     21 C           6.7302   -3.6584   26.2838 C.ar    1  UNL1        0.0134
     22 C           6.5408   -3.7939   27.7656 C.ar    1  UNL1       -0.0244
     23 C           6.0203   -2.6357   28.5642 C.3     1  UNL1        0.0307
     24 N           7.4401   -4.6809   24.0034 N.am    1  UNL1       -0.2439
     25 C           7.9606   -5.8391   23.2048 C.2     1  UNL1        0.2744
     26 O           8.1499   -5.7035   21.7230 O.2     1  UNL1       -0.2705
     27 C           8.2918   -7.1328   23.8880 C.3     1  UNL1        0.2900
     28 O           8.1024   -7.2683   25.3698 O.3     1  UNL1       -0.4643
     29 C           5.5345   -2.2124   21.6199 C.3     1  UNL1        0.0924
     30 N           4.9584   -3.1005   20.5572 N.3     1  UNL1       -0.2713
     31 C           5.7277   -4.0564   19.6944 C.3     1  UNL1        0.0722
     32 C           4.7565   -4.7353   18.7747 C.3     1  UNL1        0.0188
     33 C           3.3869   -4.1991   19.0691 C.3     1  UNL1        0.0188
     34 C           3.5117   -3.1887   20.1707 C.3     1  UNL1        0.0722
@<TRIPOS>BOND
     1    16    17    1
     2    17    18   ar
     3    18    19   ar
     4    19    20   ar
     5    20    21   ar
     6    21    22   ar
     7    22    23    1
     8    20    24    1
     9    24    15    1
    10    15     1    1
    11     1     2    2
    12     1     3   am
    13     3     4    1
    14     4     5    1
    15     5     6    1
    16     6     7    1
    17     7     9    1
    18     9    10   ar
    19    10    11   ar
    20    11    12   ar
    21    12    13   ar
    22    13    14   ar
    23     7     8    1
    24     8    29    1
    25    29    30    1
    26    30    31    1
    27    31    32    1
    28    32    33    1
    29    33    34    1
    30    24    25   am
    31    25    26    2
    32    25    27    1
    33    27    28    1
    34    22    17   ar
    35     8     3    1
    36    34    30    1
    37    28    19    1
    38    14     9   ar
@<TRIPOS>MOLECULE
*****
 34 38 0 0 0
SMALL
GASTEIGER

@<TRIPOS>ATOM
      1 C           7.2873   -1.5988   23.0989 C.2     1  UNL1        0.2463
      2 O           8.6517   -1.5309   23.7185 O.2     1  UNL1       -0.2730
      3 N           6.6332   -0.3500   22.5867 N.am    1  UNL1       -0.2781
      4 C           7.3434    0.9669   22.6940 C.3     1  UNL1        0.0935
      5 C           6.6892    2.2157   22.1817 C.3     1  UNL1        0.0219
      6 C           5.3249    2.1478   21.5621 C.3     1  UNL1        0.0078
      7 C           4.6146    0.8310   21.4548 C.3     1  UNL1        0.0419
      8 C           5.2688   -0.4180   21.9671 C.3     1  UNL1        0.0953
      9 C           3.2503    0.7630   20.8352 C.ar    1  UNL1       -0.0209
     10 C           3.0990    0.8366   19.3446 C.ar    1  UNL1       -0.0042
     11 C           1.7346    0.7686   18.7251 C.ar    1  UNL1       -0.0003
     12 C           0.5215    0.6271   19.5961 C.ar    1  UNL1       -0.0000
     13 C           0.6729    0.5535   21.0866 C.ar    1  UNL1       -0.0003
     14 C           2.0373    0.6215   21.7061 C.ar    1  UNL1       -0.0042
     15 C           6.5771   -2.9157   22.9916 C.3     1  UNL1        0.1835
     16 C           7.9386   -8.2488   27.1092 C.3     1  UNL1        0.0308
     17 C           7.7937   -7.2296   26.0182 C.ar    1  UNL1       -0.0227
     18 C           8.4310   -7.4663   24.6812 C.ar    1  UNL1        0.0336
     19 C           8.2861   -6.4471   23.5903 C.ar    1  UNL1        0.1525
     20 C           7.5040   -5.1910   23.8364 C.ar    1  UNL1        0.0882
     21 C           6.8668   -4.9543   25.1735 C.ar    1  UNL1        0.0134
     22 C           7.0116   -5.9735   26.2644 C.ar    1  UNL1       -0.0244
     23 C           6.3743   -5.7367   27.6015 C.3     1  UNL1        0.0307
     24 N           7.3592   -4.1718   22.7455 N.am    1  UNL1       -0.2439
     25 C           7.9964   -4.4085   21.4084 C.2     1  UNL1        0.2744
     26 O           7.8516   -3.3893   20.3175 O.2     1  UNL1       -0.2705
     27 C           8.7786   -5.6646   21.1622 C.3     1  UNL1        0.2900
     28 O           8.9234   -6.6839   22.2531 O.3     1  UNL1       -0.4643
     29 C           4.5586   -1.7348   21.8598 C.3     1  UNL1        0.0924
     30 N           4.6169   -2.5163   20.5808 N.3     1  UNL1       -0.2713
     31 C           4.1898   -3.9427   20.3988 C.3     1  UNL1        0.0722
     32 C           4.4215   -4.3166   18.9648 C.3     1  UNL1        0.0188
     33 C           4.9916   -3.1213   18.2604 C.3     1  UNL1        0.0188
     34 C           5.1124   -2.0087   19.2591 C.3     1  UNL1        0.0722
@<TRIPOS>BOND
     1    16    17    1
     2    17    18   ar
     3    18    19   ar
     4    19    20   ar
     5    20    21   ar
     6    21    22   ar
     7    22    23    1
     8    20    24    1
     9    24    15    1
    10    15     1    1
    11     1     2    2
    12     1     3   am
    13     3     4    1
    14     4     5    1
    15     5     6    1
    16     6     7    1
    17     7     9    1
    18     9    10   ar
    19    10    11   ar
    20    11    12   ar
    21    12    13   ar
    22    13    14   ar
    23     7     8    1
    24     8    29    1
    25    29    30    1
    26    30    31    1
    27    31    32    1
    28    32    33    1
    29    33    34    1
    30    24    25   am
    31    25    26    2
    32    25    27    1
    33    27    28    1
    34    22    17   ar
    35     8     3    1
    36    34    30    1
    37    28    19    1
    38    14     9   ar
@<TRIPOS>MOLECULE
*****
 34 38 0 0 0
SMALL
GASTEIGER

@<TRIPOS>ATOM
      1 C           4.6391    1.2364   25.1766 C.2     1  UNL1        0.2463
      2 O           5.4196    1.5492   23.9344 O.2     1  UNL1       -0.2730
      3 N           4.5437    2.2506   26.2777 N.am    1  UNL1       -0.2781
      4 C           5.2287    3.5776   26.1365 C.3     1  UNL1        0.0935
      5 C           5.1333    4.5918   27.2375 C.3     1  UNL1        0.0219
      6 C           4.3528    4.2791   28.4797 C.3     1  UNL1        0.0078
      7 C           3.6678    2.9522   28.6209 C.3     1  UNL1        0.0419
      8 C           3.7632    1.9379   27.5199 C.3     1  UNL1        0.0953
      9 C           2.8873    2.6394   29.8631 C.ar    1  UNL1       -0.0209
     10 C           1.5341    3.2518   30.0727 C.ar    1  UNL1       -0.0042
     11 C           0.7536    2.9391   31.3149 C.ar    1  UNL1       -0.0003
     12 C           1.3263    2.0140   32.3475 C.ar    1  UNL1       -0.0000
     13 C           2.6795    1.4016   32.1379 C.ar    1  UNL1       -0.0003
     14 C           3.4599    1.7143   30.8957 C.ar    1  UNL1       -0.0042
     15 C           3.9541   -0.0906   25.3178 C.3     1  UNL1        0.1835
     16 C           3.6389   -3.5275   19.3732 C.3     1  UNL1        0.0308
     17 C           3.8908   -2.9815   20.7474 C.ar    1  UNL1       -0.0227
     18 C           4.8352   -3.6884   21.6738 C.ar    1  UNL1        0.0336
     19 C           5.0871   -3.1424   23.0480 C.ar    1  UNL1        0.1525
     20 C           4.3946   -1.8895   23.4958 C.ar    1  UNL1        0.0882
     21 C           3.4502   -1.1826   22.5694 C.ar    1  UNL1        0.0134
     22 C           3.1983   -1.7285   21.1952 C.ar    1  UNL1       -0.0244
     23 C           2.2538   -1.0215   20.2688 C.3     1  UNL1        0.0307
     24 N           4.6466   -1.3435   24.8700 N.am    1  UNL1       -0.2439
     25 C           5.5910   -2.0504   25.7964 C.2     1  UNL1        0.2744
     26 O           5.8429   -1.5044   27.1706 O.2     1  UNL1       -0.2705
     27 C           6.2835   -3.3034   25.3486 C.3     1  UNL1        0.2900
     28 O           6.0316   -3.8494   23.9744 O.3     1  UNL1       -0.4643
     29 C           3.0782    0.6110   27.6610 C.3     1  UNL1        0.0924
     30 N           1.5974    0.5523   27.8933 N.3     1  UNL1       -0.2713
     31 C           0.5531    1.3004   27.1188 C.3     1  UNL1        0.0722
     32 C          -0.7887    0.9457   27.6876 C.3     1  UNL1        0.0188
     33 C          -0.5738   -0.0217   28.8136 C.3     1  UNL1        0.0188
     34 C           0.9009   -0.2648   28.9407 C.3     1  UNL1        0.0722
@<TRIPOS>BOND
     1    16    17    1
     2    17    18   ar
     3    18    19   ar
     4    19    20   ar
     5    20    21   ar
     6    21    22   ar
     7    22    23    1
     8    20    24    1
     9    24    15    1
    10    15     1    1
    11     1     2    2
    12     1     3   am
    13     3     4    1
    14     4     5    1
    15     5     6    1
    16     6     7    1
    17     7     9    1
    18     9    10   ar
    19    10    11   ar
    20    11    12   ar
    21    12    13   ar
    22    13    14   ar
    23     7     8    1
    24     8    29    1
    25    29    30    1
    26    30    31    1
    27    31    32    1
    28    32    33    1
    29    33    34    1
    30    24    25   am
    31    25    26    2
    32    25    27    1
    33    27    28    1
    34    22    17   ar
    35     8     3    1
    36    34    30    1
    37    28    19    1
    38    14     9   ar
@<TRIPOS>MOLECULE
*****
 34 38 0 0 0
SMALL
GASTEIGER

@<TRIPOS>ATOM
      1 C           0.3931    3.4931   20.7067 C.2     1  UNL1        0.2463
      2 O           1.8850    3.6375   20.6488 O.2     1  UNL1       -0.2730
      3 N          -0.4763    4.3259   19.8120 N.am    1  UNL1       -0.2781
      4 C           0.1462    5.3031   18.8593 C.3     1  UNL1        0.0935
      5 C          -0.7231    6.1359   17.9645 C.3     1  UNL1        0.0219
      6 C          -2.2151    5.9916   18.0224 C.3     1  UNL1        0.0078
      7 C          -2.8376    5.0144   18.9751 C.3     1  UNL1        0.0419
      8 C          -1.9682    4.1816   19.8699 C.3     1  UNL1        0.0953
      9 C          -4.3295    4.8701   19.0330 C.ar    1  UNL1       -0.0209
     10 C          -4.9888    3.6558   18.4491 C.ar    1  UNL1       -0.0042
     11 C          -6.4807    3.5114   18.5070 C.ar    1  UNL1       -0.0003
     12 C          -7.3133    4.5814   19.1488 C.ar    1  UNL1       -0.0000
     13 C          -6.6541    5.7957   19.7327 C.ar    1  UNL1       -0.0003
     14 C          -5.1622    5.9400   19.6748 C.ar    1  UNL1       -0.0042
     15 C          -0.2295    2.5159   21.6594 C.3     1  UNL1        0.1835
     16 C           4.3238   -2.5882   22.3419 C.3     1  UNL1        0.0308
     17 C           3.3779   -1.4311   22.4703 C.ar    1  UNL1       -0.0227
     18 C           3.2021   -0.7496   23.7949 C.ar    1  UNL1        0.0336
     19 C           2.2563    0.4075   23.9233 C.ar    1  UNL1        0.1525
     20 C           1.4863    0.8832   22.7272 C.ar    1  UNL1        0.0882
     21 C           1.6621    0.2017   21.4026 C.ar    1  UNL1        0.0134
     22 C           2.6079   -0.9555   21.2742 C.ar    1  UNL1       -0.0244
     23 C           2.7837   -1.6370   19.9495 C.3     1  UNL1        0.0307
     24 N           0.5405    2.0403   22.8556 N.am    1  UNL1       -0.2439
     25 C           0.3647    2.7218   24.1802 C.2     1  UNL1        0.2744
     26 O          -0.5811    3.8789   24.3086 O.2     1  UNL1       -0.2705
     27 C           1.1347    2.2462   25.3764 C.3     1  UNL1        0.2900
     28 O           2.0805    1.0891   25.2480 O.3     1  UNL1       -0.4643
     29 C          -2.5908    3.2044   20.8225 C.3     1  UNL1        0.0924
     30 N          -3.5797    3.6801   21.8451 N.3     1  UNL1       -0.2713
     31 C          -3.4285    4.8867   22.7234 C.3     1  UNL1        0.0722
     32 C          -4.6489    4.9851   23.5901 C.3     1  UNL1        0.0188
     33 C          -5.5543    3.8393   23.2474 C.3     1  UNL1        0.0188
     34 C          -4.8935    3.0329   22.1690 C.3     1  UNL1        0.0722
@<TRIPOS>BOND
     1    16    17    1
     2    17    18   ar
     3    18    19   ar
     4    19    20   ar
     5    20    21   ar
     6    21    22   ar
     7    22    23    1
     8    20    24    1
     9    24    15    1
    10    15     1    1
    11     1     2    2
    12     1     3   am
    13     3     4    1
    14     4     5    1
    15     5     6    1
    16     6     7    1
    17     7     9    1
    18     9    10   ar
    19    10    11   ar
    20    11    12   ar
    21    12    13   ar
    22    13    14   ar
    23     7     8    1
    24     8    29    1
    25    29    30    1
    26    30    31    1
    27    31    32    1
    28    32    33    1
    29    33    34    1
    30    24    25   am
    31    25    26    2
    32    25    27    1
    33    27    28    1
    34    22    17   ar
    35     8     3    1
    36    34    30    1
    37    28    19    1
    38    14     9   ar
@<TRIPOS>MOLECULE
*****
 34 38 0 0 0
SMALL
GASTEIGER

@<TRIPOS>ATOM
      1 C           1.3486    1.1808   23.0152 C.2     1  UNL1        0.2463
      2 O           0.1022    1.1977   22.1809 O.2     1  UNL1       -0.2730
      3 N           1.2495    1.1904   24.5119 N.am    1  UNL1       -0.2781
      4 C          -0.0961    1.2169   25.1743 C.3     1  UNL1        0.0935
      5 C          -0.1953    1.2265   26.6709 C.3     1  UNL1        0.0219
      6 C           1.0512    1.2097   27.5053 C.3     1  UNL1        0.0078
      7 C           2.3967    1.1832   26.8430 C.3     1  UNL1        0.0419
      8 C           2.4959    1.1736   25.3462 C.3     1  UNL1        0.0953
      9 C           3.6432    1.1663   27.6773 C.ar    1  UNL1       -0.0209
     10 C           4.4279    2.4287   27.8788 C.ar    1  UNL1       -0.0042
     11 C           5.6744    2.4119   28.7132 C.ar    1  UNL1       -0.0003
     12 C           6.1360    1.1326   29.3460 C.ar    1  UNL1       -0.0000
     13 C           5.3513   -0.1297   29.1445 C.ar    1  UNL1       -0.0003
     14 C           4.1048   -0.1129   28.3101 C.ar    1  UNL1       -0.0042
     15 C           2.6943    1.1543   22.3528 C.3     1  UNL1        0.1835
     16 C           4.6667   -4.4673   18.9241 C.3     1  UNL1        0.0308
     17 C           4.2001   -3.1283   19.4132 C.ar    1  UNL1       -0.0227
     18 C           3.8395   -2.0546   18.4297 C.ar    1  UNL1        0.0336
     19 C           3.3729   -0.7156   18.9188 C.ar    1  UNL1        0.1525
     20 C           3.2669   -0.4501   20.3913 C.ar    1  UNL1        0.0882
     21 C           3.6275   -1.5238   21.3747 C.ar    1  UNL1        0.0134
     22 C           4.0941   -2.8629   20.8856 C.ar    1  UNL1       -0.0244
     23 C           4.4547   -3.9366   21.8692 C.3     1  UNL1        0.0307
     24 N           2.8003    0.8889   20.8803 N.am    1  UNL1       -0.2439
     25 C           2.4397    1.9626   19.8969 C.2     1  UNL1        0.2744
     26 O           1.9731    3.3016   20.3860 O.2     1  UNL1       -0.2705
     27 C           2.5457    1.6972   18.4243 C.3     1  UNL1        0.2900
     28 O           3.0123    0.3581   17.9353 O.3     1  UNL1       -0.4643
     29 C           3.8415    1.1471   24.6839 C.3     1  UNL1        0.0924
     30 N           4.7613   -0.0178   24.9006 N.3     1  UNL1       -0.2713
     31 C           6.2350    0.0605   25.1692 C.3     1  UNL1        0.0722
     32 C           6.7534   -1.3389   25.3214 C.3     1  UNL1        0.0188
     33 C           5.6002   -2.2820   25.1469 C.3     1  UNL1        0.0188
     34 C           4.3690   -1.4655   24.8868 C.3     1  UNL1        0.0722
@<TRIPOS>BOND
     1    16    17    1
     2    17    18   ar
     3    18    19   ar
     4    19    20   ar
     5    20    21   ar
     6    21    22   ar
     7    22    23    1
     8    20    24    1
     9    24    15    1
    10    15     1    1
    11     1     2    2
    12     1     3   am
    13     3     4    1
    14     4     5    1
    15     5     6    1
    16     6     7    1
    17     7     9    1
    18     9    10   ar
    19    10    11   ar
    20    11    12   ar
    21    12    13   ar
    22    13    14   ar
    23     7     8    1
    24     8    29    1
    25    29    30    1
    26    30    31    1
    27    31    32    1
    28    32    33    1
    29    33    34    1
    30    24    25   am
    31    25    26    2
    32    25    27    1
    33    27    28    1
    34    22    17   ar
    35     8     3    1
    36    34    30    1
    37    28    19    1
    38    14     9   ar
@<TRIPOS>MOLECULE
*****
 34 38 0 0 0
SMALL
GASTEIGER

@<TRIPOS>ATOM
      1 C           5.9413   -3.3489   22.5709 C.2     1  UNL1        0.2463
      2 O           6.5451   -4.6627   22.9701 O.2     1  UNL1       -0.2730
      3 N           4.9867   -3.2823   21.4158 N.am    1  UNL1       -0.2781
      4 C           4.6359   -4.5295   20.6598 C.3     1  UNL1        0.0935
      5 C           3.6813   -4.4629   19.5047 C.3     1  UNL1        0.0219
      6 C           3.0776   -3.1491   19.1055 C.3     1  UNL1        0.0078
      7 C           3.4284   -1.9019   19.8614 C.3     1  UNL1        0.0419
      8 C           4.3830   -1.9685   21.0166 C.3     1  UNL1        0.0953
      9 C           2.8246   -0.5881   19.4622 C.ar    1  UNL1       -0.0209
     10 C           1.3908   -0.2916   19.7883 C.ar    1  UNL1       -0.0042
     11 C           0.7870    1.0222   19.3891 C.ar    1  UNL1       -0.0003
     12 C           1.6171    2.0395   18.6637 C.ar    1  UNL1       -0.0000
     13 C           3.0509    1.7430   18.3376 C.ar    1  UNL1       -0.0003
     14 C           3.6546    0.4292   18.7368 C.ar    1  UNL1       -0.0042
     15 C           6.2922   -2.1017   23.3269 C.3     1  UNL1        0.1835
     16 C           4.9443   -1.1761   30.0034 C.3     1  UNL1        0.0308
     17 C           5.5047   -1.4270   28.6348 C.ar    1  UNL1       -0.0227
     18 C           6.9586   -1.7559   28.4685 C.ar    1  UNL1        0.0336
     19 C           7.5190   -2.0068   27.0999 C.ar    1  UNL1        0.1525
     20 C           6.6254   -1.9288   25.8977 C.ar    1  UNL1        0.0882
     21 C           5.1714   -1.5999   26.0641 C.ar    1  UNL1        0.0134
     22 C           4.6111   -1.3490   27.4326 C.ar    1  UNL1       -0.0244
     23 C           3.1570   -1.0200   27.5990 C.3     1  UNL1        0.0307
     24 N           7.1858   -2.1797   24.5291 N.am    1  UNL1       -0.2439
     25 C           8.6397   -2.5087   24.3627 C.2     1  UNL1        0.2744
     26 O           9.2001   -2.7596   22.9941 O.2     1  UNL1       -0.2705
     27 C           9.5334   -2.5867   25.5649 C.3     1  UNL1        0.2900
     28 O           8.9731   -2.3358   26.9335 O.3     1  UNL1       -0.4643
     29 C           4.7338   -0.7213   21.7725 C.3     1  UNL1        0.0924
     30 N           3.6721    0.0210   22.5287 N.3     1  UNL1       -0.2713
     31 C           3.3455    1.4783   22.3885 C.3     1  UNL1        0.0722
     32 C           2.2222    1.7943   23.3310 C.3     1  UNL1        0.0188
     33 C           1.8546    0.5324   24.0537 C.3     1  UNL1        0.0188
     34 C           2.7507   -0.5636   23.5578 C.3     1  UNL1        0.0722
@<TRIPOS>BOND
     1    16    17    1
     2    17    18   ar
     3    18    19   ar
     4    19    20   ar
     5    20    21   ar
     6    21    22   ar
     7    22    23    1
     8    20    24    1
     9    24    15    1
    10    15     1    1
    11     1     2    2
    12     1     3   am
    13     3     4    1
    14     4     5    1
    15     5     6    1
    16     6     7    1
    17     7     9    1
    18     9    10   ar
    19    10    11   ar
    20    11    12   ar
    21    12    13   ar
    22    13    14   ar
    23     7     8    1
    24     8    29    1
    25    29    30    1
    26    30    31    1
    27    31    32    1
    28    32    33    1
    29    33    34    1
    30    24    25   am
    31    25    26    2
    32    25    27    1
    33    27    28    1
    34    22    17   ar
    35     8     3    1
    36    34    30    1
    37    28    19    1
    38    14     9   ar
