@<TRIPOS>MOLECULE
*****
 42 46 0 0 0
SMALL
GASTEIGER

@<TRIPOS>ATOM
      1 C           5.0581   -3.3867   22.5005 C.ar    1  UNL1        0.0611
      2 C           6.1075   -4.0086   23.3734 C.ar    1  UNL1        0.1037
      3 N           6.1071   -3.2839   24.6867 N.ar    1  UNL1       -0.2269
      4 C           5.0575   -2.2140   24.6255 C.ar    1  UNL1        0.1407
      5 N           4.6083   -1.1902   25.6255 N.ar    1  UNL1       -0.3374
      6 C           3.5109   -0.2300   25.2743 C.ar    1  UNL1        0.0734
      7 C           2.8626   -0.2935   23.9231 C.ar    1  UNL1        0.0171
      8 C           3.3117   -1.3173   22.9231 C.ar    1  UNL1        0.0046
      9 C           4.4092   -2.2776   23.2743 C.ar    1  UNL1        0.0386
     10 H           5.0338   -1.1486   26.5123 H       1  UNL1        0.1674
     11 C           1.7650    0.6669   23.5720 C.ar    1  UNL1        0.0015
     12 C           1.3167    0.8050   22.1473 C.ar    1  UNL1        0.0014
     13 C           0.2192    1.7654   21.7961 C.ar    1  UNL1        0.0199
     14 C          -0.4300    2.5875   22.8697 C.ar    1  UNL1        0.1219
     15 C           0.0184    2.4494   24.2945 C.ar    1  UNL1        0.0199
     16 C           1.1159    1.4890   24.6456 C.ar    1  UNL1        0.0014
     17 S          -1.5274    3.5479   22.5186 S.O2    1  UNL1        0.0602
     18 O          -1.7748    2.7988   21.2429 O.2     1  UNL1       -0.1530
     19 O          -1.2801    4.2970   23.7944 O.2     1  UNL1       -0.1530
     20 N          -2.6249    4.5082   22.1675 N.3     1  UNL1       -0.1808
     21 H          -2.4228    4.8564   21.2303 H       1  UNL1        0.1487
     22 C          -4.0519    4.0459   22.1594 C.3     1  UNL1        0.0756
     23 C          -5.4304    4.0967   21.5704 C.3     1  UNL1        0.0188
     24 C          -5.1448    3.1946   22.7343 C.3     1  UNL1        0.0188
     25 C           4.7175   -3.8011   21.0997 C.2     1  UNL1        0.2015
     26 O           4.0126   -5.1018   20.8528 O.2     1  UNL1       -0.2864
     27 C           4.4002   -1.1658   18.1493 C.ar    1  UNL1        0.0920
     28 C           5.8102   -1.1416   17.6380 C.ar    1  UNL1        0.0204
     29 C           6.8559   -2.0039   18.2806 C.ar    1  UNL1        0.0312
     30 C           6.4917   -2.8904   19.4345 C.ar    1  UNL1        0.1454
     31 F           7.5374   -3.7527   20.0771 F       1  UNL1       -0.2040
     32 C           5.0818   -2.9146   19.9458 C.ar    1  UNL1        0.0951
     33 C           4.0360   -2.0523   19.3032 C.ar    1  UNL1        0.1598
     34 F           2.6261   -2.0765   19.8145 F       1  UNL1       -0.2026
     35 N           3.3545   -0.3035   17.5067 N.pl3   1  UNL1       -0.2166
     36 H           2.9654   -0.5644   16.6408 H       1  UNL1        0.1734
     37 S           2.9017    0.9562   18.1834 S.O2    1  UNL1        0.0540
     38 O           4.3027    1.4894   18.1283 O.2     1  UNL1       -0.1545
     39 O           1.5007    0.4231   18.2384 O.2     1  UNL1       -0.1545
     40 C           2.4488    2.2160   18.8600 C.3     1  UNL1        0.1724
     41 C           0.7857    4.2083   18.9827 C.3     1  UNL1        0.0019
     42 C           1.1334    2.8348   18.4901 C.3     1  UNL1        0.0273
@<TRIPOS>BOND
     1    41    42    1
     2    42    40    1
     3    40    37    1
     4    37    38    2
     5    37    39    2
     6    37    35    1
     7    35    27    1
     8    27    28   ar
     9    28    29   ar
    10    29    30   ar
    11    30    31    1
    12    30    32   ar
    13    32    25    1
    14    25    26    2
    15    25     1    1
    16     1     2   ar
    17     2     3   ar
    18     3     4   ar
    19     4     5   ar
    20     5     6   ar
    21     6     7   ar
    22     7    11    1
    23    11    12   ar
    24    12    13   ar
    25    13    14   ar
    26    14    17    1
    27    17    18    2
    28    17    19    2
    29    17    20    1
    30    20    22    1
    31    22    23    1
    32    23    24    1
    33    14    15   ar
    34    15    16   ar
    35     7     8   ar
    36     8     9   ar
    37    32    33   ar
    38    33    34    1
    39    33    27   ar
    40     9     1   ar
    41     9     4    1
    42    16    11   ar
    43    24    22    1
    44    35    36    1
    45     5    10    1
    46    20    21    1
@<TRIPOS>MOLECULE
*****
 42 46 0 0 0
SMALL
GASTEIGER

@<TRIPOS>ATOM
      1 C           1.0743    1.5735   20.5198 C.ar    1  UNL1        0.0611
      2 C          -0.0023    2.5462   20.9002 C.ar    1  UNL1        0.1037
      3 N          -0.1375    2.5270   22.3940 N.ar    1  UNL1       -0.2269
      4 C           0.8555    1.5424   22.9367 C.ar    1  UNL1        0.1407
      5 N           1.1745    1.1064   24.3360 N.ar    1  UNL1       -0.3374
      6 C           2.2425    0.0810   24.5769 C.ar    1  UNL1        0.0734
      7 C           2.9914   -0.5083   23.4185 C.ar    1  UNL1        0.0171
      8 C           2.6724   -0.0722   22.0193 C.ar    1  UNL1        0.0046
      9 C           1.6044    0.9531   21.7783 C.ar    1  UNL1        0.0386
     10 H           0.6830    1.4931   25.0963 H       1  UNL1        0.1674
     11 C           4.0594   -1.5337   23.6595 C.ar    1  UNL1        0.0015
     12 C           4.2969   -2.6201   22.6529 C.ar    1  UNL1        0.0014
     13 C           5.3649   -3.6455   22.8938 C.ar    1  UNL1        0.0199
     14 C           6.1954   -3.5844   24.1415 C.ar    1  UNL1        0.1219
     15 C           5.9578   -2.4980   25.1481 C.ar    1  UNL1        0.0199
     16 C           4.8899   -1.4726   24.9071 C.ar    1  UNL1        0.0014
     17 S           7.2633   -4.6097   24.3825 S.O2    1  UNL1        0.0602
     18 O           7.4298   -4.1065   25.7857 O.2     1  UNL1       -0.1530
     19 O           7.0969   -5.1129   22.9793 O.2     1  UNL1       -0.1530
     20 N           8.3313   -5.6351   24.6235 N.3     1  UNL1       -0.1808
     21 H           9.1169   -5.1465   25.0531 H       1  UNL1        0.1487
     22 C           8.0430   -6.8307   25.4821 C.3     1  UNL1        0.0756
     23 C           7.0931   -7.6200   26.3334 C.3     1  UNL1        0.0188
     24 C           8.4936   -8.1123   26.1181 C.3     1  UNL1        0.0188
     25 C           1.5391    1.2738   19.1254 C.2     1  UNL1        0.2015
     26 O           0.5658    0.7667   18.1031 O.2     1  UNL1       -0.2864
     27 C           5.3011    0.5058   18.1213 C.ar    1  UNL1        0.0920
     28 C           5.8540    1.8957   18.0097 C.ar    1  UNL1        0.0204
     29 C           4.9687    3.0783   18.2700 C.ar    1  UNL1        0.0312
     30 C           3.5304    2.8710   18.6419 C.ar    1  UNL1        0.1454
     31 F           2.6451    4.0536   18.9022 F       1  UNL1       -0.2040
     32 C           2.9775    1.4811   18.7535 C.ar    1  UNL1        0.0951
     33 C           3.8628    0.2986   18.4932 C.ar    1  UNL1        0.1598
     34 F           3.3098   -1.0913   18.6049 F       1  UNL1       -0.2026
     35 N           6.1864   -0.6767   17.8610 N.pl3   1  UNL1       -0.2166
     36 H           6.9106   -0.6128   17.1972 H       1  UNL1        0.1734
     37 S           5.9684   -1.9566   18.6122 S.O2    1  UNL1        0.0540
     38 O           5.4632   -2.6065   17.3583 O.2     1  UNL1       -0.1545
     39 O           6.4735   -1.3067   19.8662 O.2     1  UNL1       -0.1545
     40 C           5.7504   -3.2364   19.3635 C.3     1  UNL1        0.1724
     41 C           3.6926   -4.8114   19.5513 C.3     1  UNL1        0.0019
     42 C           4.8775   -4.3085   18.7813 C.3     1  UNL1        0.0273
@<TRIPOS>BOND
     1    41    42    1
     2    42    40    1
     3    40    37    1
     4    37    38    2
     5    37    39    2
     6    37    35    1
     7    35    27    1
     8    27    28   ar
     9    28    29   ar
    10    29    30   ar
    11    30    31    1
    12    30    32   ar
    13    32    25    1
    14    25    26    2
    15    25     1    1
    16     1     2   ar
    17     2     3   ar
    18     3     4   ar
    19     4     5   ar
    20     5     6   ar
    21     6     7   ar
    22     7    11    1
    23    11    12   ar
    24    12    13   ar
    25    13    14   ar
    26    14    17    1
    27    17    18    2
    28    17    19    2
    29    17    20    1
    30    20    22    1
    31    22    23    1
    32    23    24    1
    33    14    15   ar
    34    15    16   ar
    35     7     8   ar
    36     8     9   ar
    37    32    33   ar
    38    33    34    1
    39    33    27   ar
    40     9     1   ar
    41     9     4    1
    42    16    11   ar
    43    24    22    1
    44    35    36    1
    45     5    10    1
    46    20    21    1
@<TRIPOS>MOLECULE
*****
 42 46 0 0 0
SMALL
GASTEIGER

@<TRIPOS>ATOM
      1 C           0.2184    2.2697   22.9291 C.ar    1  UNL1        0.0611
      2 C          -0.5776    3.1916   23.8046 C.ar    1  UNL1        0.1037
      3 N          -0.1338    2.9827   25.2221 N.ar    1  UNL1       -0.2269
      4 C           0.9364    1.9317   25.2227 C.ar    1  UNL1        0.1407
      5 N           1.7409    1.3190   26.3306 N.ar    1  UNL1       -0.3374
      6 C           2.7630    0.2657   26.0213 C.ar    1  UNL1        0.0734
      7 C           2.9806   -0.1750   24.6041 C.ar    1  UNL1        0.0171
      8 C           2.1762    0.4377   23.4962 C.ar    1  UNL1        0.0046
      9 C           1.1541    1.4910   23.8055 C.ar    1  UNL1        0.0386
     10 H           1.5980    1.6082   27.2607 H       1  UNL1        0.1674
     11 C           4.0028   -1.2284   24.2948 C.ar    1  UNL1        0.0015
     12 C           3.9620   -1.9501   22.9805 C.ar    1  UNL1        0.0014
     13 C           4.9842   -3.0035   22.6713 C.ar    1  UNL1        0.0199
     14 C           6.0471   -3.3352   23.6763 C.ar    1  UNL1        0.1219
     15 C           6.0879   -2.6134   24.9907 C.ar    1  UNL1        0.0199
     16 C           5.0658   -1.5600   25.2999 C.ar    1  UNL1        0.0014
     17 S           7.0693   -4.3885   23.3671 S.O2    1  UNL1        0.0602
     18 O           7.7232   -4.1436   24.6946 O.2     1  UNL1       -0.1530
     19 O           6.4153   -4.6334   22.0396 O.2     1  UNL1       -0.1530
     20 N           8.0914   -5.4418   23.0579 N.3     1  UNL1       -0.1808
     21 H           8.9894   -4.9653   22.9748 H       1  UNL1        0.1487
     22 C           8.2957   -6.5889   24.0026 C.3     1  UNL1        0.0756
     23 C           7.7995   -7.4519   25.1246 C.3     1  UNL1        0.0188
     24 C           9.1459   -7.7126   24.5169 C.3     1  UNL1        0.0188
     25 C           0.0995    2.1478   21.4388 C.2     1  UNL1        0.2015
     26 O          -1.2543    2.1280   20.7934 O.2     1  UNL1       -0.2864
     27 C           2.7323    0.7988   18.7931 C.ar    1  UNL1        0.0920
     28 C           3.8049    1.8415   18.9037 C.ar    1  UNL1        0.0204
     29 C           3.6424    2.9863   19.8593 C.ar    1  UNL1        0.0312
     30 C           2.4074    3.0884   20.7043 C.ar    1  UNL1        0.1454
     31 F           2.2449    4.2332   21.6599 F       1  UNL1       -0.2040
     32 C           1.3347    2.0457   20.5937 C.ar    1  UNL1        0.0951
     33 C           1.4972    0.9010   19.6381 C.ar    1  UNL1        0.1598
     34 F           0.4245   -0.1417   19.5276 F       1  UNL1       -0.2026
     35 N           2.8947   -0.3459   17.8376 N.pl3   1  UNL1       -0.2166
     36 H           2.2598   -0.4603   17.0940 H       1  UNL1        0.1734
     37 S           4.0247   -1.3163   18.0149 S.O2    1  UNL1        0.0540
     38 O           3.5075   -1.6694   19.3779 O.2     1  UNL1       -0.1545
     39 O           4.5419   -0.9632   16.6520 O.2     1  UNL1       -0.1545
     40 C           5.1547   -2.2867   18.1923 C.3     1  UNL1        0.1724
     41 C           4.5581   -4.7788   18.6208 C.3     1  UNL1        0.0019
     42 C           5.0085   -3.4439   19.1355 C.3     1  UNL1        0.0273
@<TRIPOS>BOND
     1    41    42    1
     2    42    40    1
     3    40    37    1
     4    37    38    2
     5    37    39    2
     6    37    35    1
     7    35    27    1
     8    27    28   ar
     9    28    29   ar
    10    29    30   ar
    11    30    31    1
    12    30    32   ar
    13    32    25    1
    14    25    26    2
    15    25     1    1
    16     1     2   ar
    17     2     3   ar
    18     3     4   ar
    19     4     5   ar
    20     5     6   ar
    21     6     7   ar
    22     7    11    1
    23    11    12   ar
    24    12    13   ar
    25    13    14   ar
    26    14    17    1
    27    17    18    2
    28    17    19    2
    29    17    20    1
    30    20    22    1
    31    22    23    1
    32    23    24    1
    33    14    15   ar
    34    15    16   ar
    35     7     8   ar
    36     8     9   ar
    37    32    33   ar
    38    33    34    1
    39    33    27   ar
    40     9     1   ar
    41     9     4    1
    42    16    11   ar
    43    24    22    1
    44    35    36    1
    45     5    10    1
    46    20    21    1
@<TRIPOS>MOLECULE
*****
 42 46 0 0 0
SMALL
GASTEIGER

@<TRIPOS>ATOM
      1 C           4.9410   -2.5986   19.0279 C.ar    1  UNL1        0.0611
      2 C           5.3050   -2.3874   17.5882 C.ar    1  UNL1        0.1037
      3 N           4.7076   -1.0847   17.1454 N.ar    1  UNL1       -0.2269
      4 C           3.9743   -0.4909   18.3114 C.ar    1  UNL1        0.1407
      5 N           3.1938    0.7809   18.4640 N.ar    1  UNL1       -0.3374
      6 C           2.5576    1.1171   19.7801 C.ar    1  UNL1        0.0734
      7 C           2.7019    0.1814   20.9436 C.ar    1  UNL1        0.0171
      8 C           3.4823   -1.0904   20.7910 C.ar    1  UNL1        0.0046
      9 C           4.1185   -1.4266   19.4749 C.ar    1  UNL1        0.0386
     10 H           3.0991    1.3950   17.7004 H       1  UNL1        0.1674
     11 C           2.0657    0.5176   22.2598 C.ar    1  UNL1        0.0015
     12 C           2.6254   -0.0503   23.5303 C.ar    1  UNL1        0.0014
     13 C           1.9892    0.2859   24.8464 C.ar    1  UNL1        0.0199
     14 C           0.7932    1.1901   24.8921 C.ar    1  UNL1        0.1219
     15 C           0.2334    1.7580   23.6215 C.ar    1  UNL1        0.0199
     16 C           0.8696    1.4218   22.3055 C.ar    1  UNL1        0.0014
     17 S           0.1570    1.5263   26.2082 S.O2    1  UNL1        0.0602
     18 O           1.3656    1.0032   26.9261 O.2     1  UNL1       -0.1530
     19 O          -1.0517    2.0494   25.4902 O.2     1  UNL1       -0.1530
     20 N          -0.4793    1.8625   27.5242 N.3     1  UNL1       -0.1808
     21 H          -1.2374    2.5156   27.3265 H       1  UNL1        0.1487
     22 C          -1.0579    0.7731   28.3777 C.3     1  UNL1        0.0756
     23 C          -1.2391   -0.6858   28.6756 C.3     1  UNL1        0.0188
     24 C          -1.8788    0.3450   29.5578 C.3     1  UNL1        0.0188
     25 C           5.3309   -3.7754   19.8724 C.2     1  UNL1        0.2015
     26 O           4.7945   -5.1390   19.5522 O.2     1  UNL1       -0.2864
     27 C           6.6683   -3.5554   23.6025 C.ar    1  UNL1        0.0920
     28 C           8.1100   -3.2146   23.3671 C.ar    1  UNL1        0.0204
     29 C           8.6253   -3.0608   21.9668 C.ar    1  UNL1        0.0312
     30 C           7.6990   -3.2477   20.8019 C.ar    1  UNL1        0.1454
     31 F           8.2143   -3.0939   19.4016 F       1  UNL1       -0.2040
     32 C           6.2573   -3.5884   21.0373 C.ar    1  UNL1        0.0951
     33 C           5.7420   -3.7423   22.4376 C.ar    1  UNL1        0.1598
     34 F           4.3003   -4.0830   22.6730 F       1  UNL1       -0.2026
     35 N           6.1530   -3.7092   25.0028 N.pl3   1  UNL1       -0.2166
     36 H           5.2096   -3.5126   25.2045 H       1  UNL1        0.1734
     37 S           7.0750   -4.1625   26.0957 S.O2    1  UNL1        0.0540
     38 O           7.1560   -2.7560   26.6106 O.2     1  UNL1       -0.1545
     39 O           6.9940   -5.5689   25.5807 O.2     1  UNL1       -0.1545
     40 C           7.9970   -4.6158   27.1885 C.3     1  UNL1        0.1724
     41 C           6.5645   -5.2881   29.2492 C.3     1  UNL1        0.0019
     42 C           7.5418   -5.6534   28.1715 C.3     1  UNL1        0.0273
@<TRIPOS>BOND
     1    41    42    1
     2    42    40    1
     3    40    37    1
     4    37    38    2
     5    37    39    2
     6    37    35    1
     7    35    27    1
     8    27    28   ar
     9    28    29   ar
    10    29    30   ar
    11    30    31    1
    12    30    32   ar
    13    32    25    1
    14    25    26    2
    15    25     1    1
    16     1     2   ar
    17     2     3   ar
    18     3     4   ar
    19     4     5   ar
    20     5     6   ar
    21     6     7   ar
    22     7    11    1
    23    11    12   ar
    24    12    13   ar
    25    13    14   ar
    26    14    17    1
    27    17    18    2
    28    17    19    2
    29    17    20    1
    30    20    22    1
    31    22    23    1
    32    23    24    1
    33    14    15   ar
    34    15    16   ar
    35     7     8   ar
    36     8     9   ar
    37    32    33   ar
    38    33    34    1
    39    33    27   ar
    40     9     1   ar
    41     9     4    1
    42    16    11   ar
    43    24    22    1
    44    35    36    1
    45     5    10    1
    46    20    21    1
@<TRIPOS>MOLECULE
*****
 42 46 0 0 0
SMALL
GASTEIGER

@<TRIPOS>ATOM
      1 C           0.6717    1.9971   22.7149 C.ar    1  UNL1        0.0611
      2 C          -0.5254    2.4627   21.9402 C.ar    1  UNL1        0.1037
      3 N          -0.6268    1.6282   20.6979 N.ar    1  UNL1       -0.2269
      4 C           0.5076    0.6468   20.7048 C.ar    1  UNL1        0.1407
      5 N           0.9134   -0.4249   19.7370 N.ar    1  UNL1       -0.3374
      6 C           2.1218   -1.2687   20.0158 C.ar    1  UNL1        0.0734
      7 C           2.9243   -1.0408   21.2624 C.ar    1  UNL1        0.0171
      8 C           2.5185    0.0310   22.2302 C.ar    1  UNL1        0.0046
      9 C           1.3101    0.8748   21.9514 C.ar    1  UNL1        0.0386
     10 H           0.3866   -0.5746   18.9189 H       1  UNL1        0.1674
     11 C           4.1328   -1.8846   21.5412 C.ar    1  UNL1        0.0015
     12 C           4.2513   -2.6175   22.8445 C.ar    1  UNL1        0.0014
     13 C           5.4598   -3.4613   23.1233 C.ar    1  UNL1        0.0199
     14 C           6.5496   -3.5723   22.0987 C.ar    1  UNL1        0.1219
     15 C           6.4310   -2.8394   20.7952 C.ar    1  UNL1        0.0199
     16 C           5.2226   -1.9956   20.5165 C.ar    1  UNL1        0.0014
     17 S           7.7580   -4.4161   22.3774 S.O2    1  UNL1        0.0602
     18 O           7.5952   -5.0889   21.0467 O.2     1  UNL1       -0.1530
     19 O           7.9209   -3.7433   23.7081 O.2     1  UNL1       -0.1530
     20 N           8.9664   -5.2599   22.6561 N.3     1  UNL1       -0.1808
     21 H           9.6530   -4.6524   23.1032 H       1  UNL1        0.1487
     22 C           8.8451   -6.4828   23.5162 C.3     1  UNL1        0.0756
     23 C           9.4350   -7.7468   24.0676 C.3     1  UNL1        0.0188
     24 C           8.0450   -7.3368   24.4545 C.3     1  UNL1        0.0188
     25 C           1.1471    2.5556   24.0233 C.2     1  UNL1        0.2015
     26 O           2.3958    3.3849   24.0756 O.2     1  UNL1       -0.2864
     27 C           0.0097    0.8905   27.4416 C.ar    1  UNL1        0.0920
     28 C          -1.1735    1.7433   27.7924 C.ar    1  UNL1        0.0204
     29 C          -1.5831    2.8668   26.8869 C.ar    1  UNL1        0.0312
     30 C          -0.8096    3.1376   25.6305 C.ar    1  UNL1        0.1454
     31 F          -1.2192    4.2611   24.7250 F       1  UNL1       -0.2040
     32 C           0.3735    2.2848   25.2797 C.ar    1  UNL1        0.0951
     33 C           0.7831    1.1613   26.1853 C.ar    1  UNL1        0.1598
     34 F           1.9663    0.3086   25.8344 F       1  UNL1       -0.2026
     35 N           0.4193   -0.2330   28.3471 N.pl3   1  UNL1       -0.2166
     36 H          -0.0233   -1.1094   28.2753 H       1  UNL1        0.1734
     37 S           1.5033   -0.0211   29.3620 S.O2    1  UNL1        0.0540
     38 O           0.5939    0.8785   30.1454 O.2     1  UNL1       -0.1545
     39 O           2.4126   -0.9206   28.5786 O.2     1  UNL1       -0.1545
     40 C           2.5873    0.1908   30.3768 C.3     1  UNL1        0.1724
     41 C           4.6940   -1.1048   31.1728 C.3     1  UNL1        0.0019
     42 C           3.2019   -0.9863   31.0746 C.3     1  UNL1        0.0273
@<TRIPOS>BOND
     1    41    42    1
     2    42    40    1
     3    40    37    1
     4    37    38    2
     5    37    39    2
     6    37    35    1
     7    35    27    1
     8    27    28   ar
     9    28    29   ar
    10    29    30   ar
    11    30    31    1
    12    30    32   ar
    13    32    25    1
    14    25    26    2
    15    25     1    1
    16     1     2   ar
    17     2     3   ar
    18     3     4   ar
    19     4     5   ar
    20     5     6   ar
    21     6     7   ar
    22     7    11    1
    23    11    12   ar
    24    12    13   ar
    25    13    14   ar
    26    14    17    1
    27    17    18    2
    28    17    19    2
    29    17    20    1
    30    20    22    1
    31    22    23    1
    32    23    24    1
    33    14    15   ar
    34    15    16   ar
    35     7     8   ar
    36     8     9   ar
    37    32    33   ar
    38    33    34    1
    39    33    27   ar
    40     9     1   ar
    41     9     4    1
    42    16    11   ar
    43    24    22    1
    44    35    36    1
    45     5    10    1
    46    20    21    1
@<TRIPOS>MOLECULE
*****
 42 46 0 0 0
SMALL
GASTEIGER

@<TRIPOS>ATOM
      1 C           6.9282   -2.8553   28.7376 C.ar    1  UNL1        0.0611
      2 C           7.4185   -3.7073   29.8707 C.ar    1  UNL1        0.1037
      3 N           7.7863   -5.0510   29.3147 N.ar    1  UNL1       -0.2269
      4 C           7.5234   -5.0295   27.8381 C.ar    1  UNL1        0.1407
      5 N           7.6984   -6.0703   26.7723 N.ar    1  UNL1       -0.3374
      6 C           7.3430   -5.7541   25.3497 C.ar    1  UNL1        0.0734
      7 C           6.8127   -4.3971   24.9930 C.ar    1  UNL1        0.0171
      8 C           6.6377   -3.3563   26.0589 C.ar    1  UNL1        0.0046
      9 C           6.9930   -3.6725   27.4814 C.ar    1  UNL1        0.0386
     10 H           8.0465   -6.9610   27.0064 H       1  UNL1        0.1674
     11 C           6.4573   -4.0809   23.5704 C.ar    1  UNL1        0.0015
     12 C           5.0972   -3.5421   23.2391 C.ar    1  UNL1        0.0014
     13 C           4.7418   -3.2259   21.8164 C.ar    1  UNL1        0.0199
     14 C           5.7466   -3.4485   20.7252 C.ar    1  UNL1        0.1219
     15 C           7.1068   -3.9874   21.0566 C.ar    1  UNL1        0.0199
     16 C           7.4621   -4.3035   22.4791 C.ar    1  UNL1        0.0014
     17 S           5.3913   -3.1324   19.3026 S.O2    1  UNL1        0.0602
     18 O           3.9623   -3.4949   19.5790 O.2     1  UNL1       -0.1530
     19 O           6.8204   -2.7699   19.0263 O.2     1  UNL1       -0.1530
     20 N           5.0360   -2.8162   17.8800 N.3     1  UNL1       -0.1808
     21 H           4.2769   -3.4456   17.6193 H       1  UNL1        0.1487
     22 C           4.5979   -1.4311   17.5065 C.3     1  UNL1        0.0756
     23 C           3.5012   -0.4392   17.2548 C.3     1  UNL1        0.0188
     24 C           4.9355   -0.0241   17.1112 C.3     1  UNL1        0.0188
     25 C           6.4560   -1.4355   28.8423 C.2     1  UNL1        0.2015
     26 O           7.3646   -0.3114   28.4416 O.2     1  UNL1       -0.2864
     27 C           2.5713   -0.6245   28.8829 C.ar    1  UNL1        0.0920
     28 C           2.3130   -0.5481   30.3585 C.ar    1  UNL1        0.0204
     29 C           3.4358   -0.7676   31.3287 C.ar    1  UNL1        0.0312
     30 C           4.8167   -1.0634   30.8234 C.ar    1  UNL1        0.1454
     31 F           5.9395   -1.2828   31.7936 F       1  UNL1       -0.2040
     32 C           5.0750   -1.1397   29.3478 C.ar    1  UNL1        0.0951
     33 C           3.9522   -0.9202   28.3776 C.ar    1  UNL1        0.1598
     34 F           4.2105   -0.9965   26.9019 F       1  UNL1       -0.2026
     35 N           1.4485   -0.4050   27.9127 N.pl3   1  UNL1       -0.2166
     36 H           1.2487   -1.0847   27.2291 H       1  UNL1        0.1734
     37 S           0.6303    0.8501   27.9840 S.O2    1  UNL1        0.0540
     38 O          -0.5800    0.0407   28.3444 O.2     1  UNL1       -0.1545
     39 O           1.8406    1.6596   27.6235 O.2     1  UNL1       -0.1545
     40 C          -0.1878    2.1053   28.0552 C.3     1  UNL1        0.1724
     41 C          -0.9311    2.2513   25.5699 C.3     1  UNL1        0.0019
     42 C          -1.2520    2.3661   27.0307 C.3     1  UNL1        0.0273
@<TRIPOS>BOND
     1    41    42    1
     2    42    40    1
     3    40    37    1
     4    37    38    2
     5    37    39    2
     6    37    35    1
     7    35    27    1
     8    27    28   ar
     9    28    29   ar
    10    29    30   ar
    11    30    31    1
    12    30    32   ar
    13    32    25    1
    14    25    26    2
    15    25     1    1
    16     1     2   ar
    17     2     3   ar
    18     3     4   ar
    19     4     5   ar
    20     5     6   ar
    21     6     7   ar
    22     7    11    1
    23    11    12   ar
    24    12    13   ar
    25    13    14   ar
    26    14    17    1
    27    17    18    2
    28    17    19    2
    29    17    20    1
    30    20    22    1
    31    22    23    1
    32    23    24    1
    33    14    15   ar
    34    15    16   ar
    35     7     8   ar
    36     8     9   ar
    37    32    33   ar
    38    33    34    1
    39    33    27   ar
    40     9     1   ar
    41     9     4    1
    42    16    11   ar
    43    24    22    1
    44    35    36    1
    45     5    10    1
    46    20    21    1
@<TRIPOS>MOLECULE
*****
 42 46 0 0 0
SMALL
GASTEIGER

@<TRIPOS>ATOM
      1 C           5.3613   -1.1906   31.2893 C.ar    1  UNL1        0.0611
      2 C           4.6452   -0.8512   32.5629 C.ar    1  UNL1        0.1037
      3 N           3.2574   -0.4049   32.2095 N.ar    1  UNL1       -0.2269
      4 C           3.1158   -0.4685   30.7176 C.ar    1  UNL1        0.1407
      5 N           1.9708   -0.1470   29.8035 N.ar    1  UNL1       -0.3374
      6 C           2.1262   -0.3110   28.3206 C.ar    1  UNL1        0.0734
      7 C           3.4265   -0.7965   27.7519 C.ar    1  UNL1        0.0171
      8 C           4.5714   -1.1181   28.6660 C.ar    1  UNL1        0.0046
      9 C           4.4161   -0.9540   30.1488 C.ar    1  UNL1        0.0386
     10 H           1.1174    0.1717   30.1768 H       1  UNL1        0.1674
     11 C           3.5818   -0.9606   26.2689 C.ar    1  UNL1        0.0015
     12 C           4.5482   -1.9695   25.7231 C.ar    1  UNL1        0.0014
     13 C           4.7035   -2.1336   24.2401 C.ar    1  UNL1        0.0199
     14 C           3.8923   -1.2886   23.3031 C.ar    1  UNL1        0.1219
     15 C           2.9259   -0.2796   23.8490 C.ar    1  UNL1        0.0199
     16 C           2.7706   -0.1156   25.3319 C.ar    1  UNL1        0.0014
     17 S           4.0476   -1.4526   21.8202 S.O2    1  UNL1        0.0602
     18 O           2.6218   -1.0300   21.6242 O.2     1  UNL1       -0.1530
     19 O           5.4734   -1.8752   22.0162 O.2     1  UNL1       -0.1530
     20 N           4.2028   -1.6165   20.3374 N.3     1  UNL1       -0.1808
     21 H           5.0846   -1.1717   20.0826 H       1  UNL1        0.1487
     22 C           4.2196   -2.9890   19.7322 C.3     1  UNL1        0.0756
     23 C           3.5163   -4.0971   19.0060 C.3     1  UNL1        0.0188
     24 C           4.9518   -4.2579   19.4104 C.3     1  UNL1        0.0188
     25 C           6.7745   -1.6805   31.1760 C.2     1  UNL1        0.2015
     26 O           7.9102   -0.8007   31.6073 O.2     1  UNL1       -0.2864
     27 C           7.9333   -4.5766   28.7225 C.ar    1  UNL1        0.0920
     28 C           7.6072   -5.7899   29.5421 C.ar    1  UNL1        0.0204
     29 C           7.0035   -5.6333   30.9063 C.ar    1  UNL1        0.0312
     30 C           6.7260   -4.2636   31.4510 C.ar    1  UNL1        0.1454
     31 F           6.1223   -4.1070   32.8152 F       1  UNL1       -0.2040
     32 C           7.0521   -3.0503   30.6314 C.ar    1  UNL1        0.0951
     33 C           7.6557   -3.2069   29.2672 C.ar    1  UNL1        0.1598
     34 F           7.9818   -1.9936   28.4476 F       1  UNL1       -0.2026
     35 N           8.5369   -4.7332   27.3583 N.pl3   1  UNL1       -0.2166
     36 H           9.2105   -4.0890   27.0411 H       1  UNL1        0.1734
     37 S           8.1143   -5.8713   26.4773 S.O2    1  UNL1        0.0540
     38 O           6.8028   -5.1886   26.2246 O.2     1  UNL1       -0.1545
     39 O           9.4258   -6.5539   26.7299 O.2     1  UNL1       -0.1545
     40 C           7.6917   -7.0094   25.5963 C.3     1  UNL1        0.1724
     41 C           8.8748   -7.1901   23.2902 C.3     1  UNL1        0.0019
     42 C           8.6925   -7.6742   24.6981 C.3     1  UNL1        0.0273
@<TRIPOS>BOND
     1    41    42    1
     2    42    40    1
     3    40    37    1
     4    37    38    2
     5    37    39    2
     6    37    35    1
     7    35    27    1
     8    27    28   ar
     9    28    29   ar
    10    29    30   ar
    11    30    31    1
    12    30    32   ar
    13    32    25    1
    14    25    26    2
    15    25     1    1
    16     1     2   ar
    17     2     3   ar
    18     3     4   ar
    19     4     5   ar
    20     5     6   ar
    21     6     7   ar
    22     7    11    1
    23    11    12   ar
    24    12    13   ar
    25    13    14   ar
    26    14    17    1
    27    17    18    2
    28    17    19    2
    29    17    20    1
    30    20    22    1
    31    22    23    1
    32    23    24    1
    33    14    15   ar
    34    15    16   ar
    35     7     8   ar
    36     8     9   ar
    37    32    33   ar
    38    33    34    1
    39    33    27   ar
    40     9     1   ar
    41     9     4    1
    42    16    11   ar
    43    24    22    1
    44    35    36    1
    45     5    10    1
    46    20    21    1
@<TRIPOS>MOLECULE
*****
 42 46 0 0 0
SMALL
GASTEIGER

@<TRIPOS>ATOM
      1 C           6.7877   -3.4220   29.9589 C.ar    1  UNL1        0.0611
      2 C           6.9429   -4.3902   31.0940 C.ar    1  UNL1        0.1037
      3 N           7.0865   -5.7658   30.5135 N.ar    1  UNL1       -0.2269
      4 C           7.0201   -5.6479   29.0196 C.ar    1  UNL1        0.1407
      5 N           7.1039   -6.6723   27.9272 N.ar    1  UNL1       -0.3374
      6 C           7.0031   -6.2482   26.4920 C.ar    1  UNL1        0.0734
      7 C           6.8185   -4.7996   26.1492 C.ar    1  UNL1        0.0171
      8 C           6.7346   -3.7752   27.2416 C.ar    1  UNL1        0.0046
      9 C           6.8354   -4.1993   28.6768 C.ar    1  UNL1        0.0386
     10 H           7.2251   -7.6231   28.1522 H       1  UNL1        0.1674
     11 C           6.7176   -4.3755   24.7139 C.ar    1  UNL1        0.0015
     12 C           7.6511   -4.9556   23.6931 C.ar    1  UNL1        0.0014
     13 C           7.5503   -4.5315   22.2578 C.ar    1  UNL1        0.0199
     14 C           6.5160   -3.5273   21.8433 C.ar    1  UNL1        0.1219
     15 C           5.5825   -2.9472   22.8642 C.ar    1  UNL1        0.0199
     16 C           5.6833   -3.3713   24.2995 C.ar    1  UNL1        0.0014
     17 S           6.4151   -3.1032   20.4081 S.O2    1  UNL1        0.0602
     18 O           7.0429   -1.7854   20.7534 O.2     1  UNL1       -0.1530
     19 O           5.7873   -4.4210   20.0628 O.2     1  UNL1       -0.1530
     20 N           6.3143   -2.6791   18.9729 N.3     1  UNL1       -0.1808
     21 H           6.3981   -3.5251   18.4093 H       1  UNL1        0.1487
     22 C           5.0928   -1.9555   18.4887 C.3     1  UNL1        0.0756
     23 C           4.3232   -1.3055   17.3773 C.3     1  UNL1        0.0188
     24 C           3.7469   -1.3521   18.7615 C.3     1  UNL1        0.0188
     25 C           6.6151   -1.9372   30.0838 C.2     1  UNL1        0.2015
     26 O           7.8066   -1.0322   29.9784 O.2     1  UNL1       -0.2864
     27 C           2.9456   -0.5936   29.3909 C.ar    1  UNL1        0.0920
     28 C           2.5227   -0.1980   30.7746 C.ar    1  UNL1        0.0204
     29 C           3.4638   -0.3822   31.9280 C.ar    1  UNL1        0.0312
     30 C           4.8279   -0.9619   31.6978 C.ar    1  UNL1        0.1454
     31 F           5.7691   -1.1460   32.8512 F       1  UNL1       -0.2040
     32 C           5.2509   -1.3575   30.3141 C.ar    1  UNL1        0.0951
     33 C           4.3098   -1.1733   29.1607 C.ar    1  UNL1        0.1598
     34 F           4.7328   -1.5689   27.7770 F       1  UNL1       -0.2026
     35 N           2.0045   -0.4094   28.2376 N.pl3   1  UNL1       -0.2166
     36 H           2.0069   -1.0531   27.4926 H       1  UNL1        0.1734
     37 S           1.0596    0.7554   28.2192 S.O2    1  UNL1        0.0540
     38 O          -0.0738   -0.1583   28.5803 O.2     1  UNL1       -0.1545
     39 O           2.1930    1.6691   27.8581 O.2     1  UNL1       -0.1545
     40 C           0.1148    1.9203   28.2008 C.3     1  UNL1        0.1724
     41 C          -0.6009    1.8411   25.7045 C.3     1  UNL1        0.0019
     42 C          -0.9556    2.0013   27.1531 C.3     1  UNL1        0.0273
@<TRIPOS>BOND
     1    41    42    1
     2    42    40    1
     3    40    37    1
     4    37    38    2
     5    37    39    2
     6    37    35    1
     7    35    27    1
     8    27    28   ar
     9    28    29   ar
    10    29    30   ar
    11    30    31    1
    12    30    32   ar
    13    32    25    1
    14    25    26    2
    15    25     1    1
    16     1     2   ar
    17     2     3   ar
    18     3     4   ar
    19     4     5   ar
    20     5     6   ar
    21     6     7   ar
    22     7    11    1
    23    11    12   ar
    24    12    13   ar
    25    13    14   ar
    26    14    17    1
    27    17    18    2
    28    17    19    2
    29    17    20    1
    30    20    22    1
    31    22    23    1
    32    23    24    1
    33    14    15   ar
    34    15    16   ar
    35     7     8   ar
    36     8     9   ar
    37    32    33   ar
    38    33    34    1
    39    33    27   ar
    40     9     1   ar
    41     9     4    1
    42    16    11   ar
    43    24    22    1
    44    35    36    1
    45     5    10    1
    46    20    21    1
@<TRIPOS>MOLECULE
*****
 42 46 0 0 0
SMALL
GASTEIGER

@<TRIPOS>ATOM
      1 C          -0.2021    3.2728   24.5029 C.ar    1  UNL1        0.0611
      2 C          -1.3619    4.1624   24.1661 C.ar    1  UNL1        0.1037
      3 N          -1.7845    3.8603   22.7589 N.ar    1  UNL1       -0.2269
      4 C          -0.8859    2.7840   22.2260 C.ar    1  UNL1        0.1407
      5 N          -0.8318    2.0877   20.8986 N.ar    1  UNL1       -0.3374
      6 C           0.2003    1.0282   20.6489 C.ar    1  UNL1        0.0734
      7 C           1.1782    0.6651   21.7268 C.ar    1  UNL1        0.0171
      8 C           1.1242    1.3614   23.0542 C.ar    1  UNL1        0.0046
      9 C           0.0921    2.4209   23.3038 C.ar    1  UNL1        0.0386
     10 H          -1.4737    2.3260   20.1912 H       1  UNL1        0.1674
     11 C           2.2103   -0.3945   21.4771 C.ar    1  UNL1        0.0015
     12 C           2.3501   -0.9983   20.1111 C.ar    1  UNL1        0.0014
     13 C           3.3821   -2.0578   19.8615 C.ar    1  UNL1        0.0199
     14 C           4.2745   -2.5135   20.9778 C.ar    1  UNL1        0.1219
     15 C           4.1347   -1.9096   22.3438 C.ar    1  UNL1        0.0199
     16 C           3.1027   -0.8501   22.5934 C.ar    1  UNL1        0.0014
     17 S           5.3065   -3.5729   20.7281 S.O2    1  UNL1        0.0602
     18 O           5.6004   -2.9706   19.3862 O.2     1  UNL1       -0.1530
     19 O           5.0127   -4.1753   22.0700 O.2     1  UNL1       -0.1530
     20 N           6.3386   -4.6324   20.4785 N.3     1  UNL1       -0.1808
     21 H           6.3596   -4.7915   19.4712 H       1  UNL1        0.1487
     22 C           7.7578   -4.4139   20.9121 C.3     1  UNL1        0.0756
     23 C           8.8103   -3.5328   21.5168 C.3     1  UNL1        0.0188
     24 C           9.1634   -4.9166   21.0584 C.3     1  UNL1        0.0188
     25 C           0.5343    3.2407   25.8093 C.2     1  UNL1        0.2015
     26 O           1.5212    4.3204   26.1407 O.2     1  UNL1       -0.2864
     27 C           1.1469    0.0864   28.1387 C.ar    1  UNL1        0.0920
     28 C          -0.2177   -0.0952   28.7345 C.ar    1  UNL1        0.0204
     29 C          -1.3316    0.8351   28.3552 C.ar    1  UNL1        0.0312
     30 C          -1.0810    1.9470   27.3802 C.ar    1  UNL1        0.1454
     31 F          -2.1949    2.8773   27.0010 F       1  UNL1       -0.2040
     32 C           0.2836    2.1287   26.7844 C.ar    1  UNL1        0.0951
     33 C           1.3975    1.1984   27.1637 C.ar    1  UNL1        0.1598
     34 F           2.7620    1.3801   26.5678 F       1  UNL1       -0.2026
     35 N           2.2608   -0.8438   28.5179 N.pl3   1  UNL1       -0.2166
     36 H           2.4063   -1.6720   28.0059 H       1  UNL1        0.1734
     37 S           3.1529   -0.5123   29.6773 S.O2    1  UNL1        0.0540
     38 O           4.2536   -0.1473   28.7259 O.2     1  UNL1       -0.1545
     39 O           2.0522   -0.8773   30.6287 O.2     1  UNL1       -0.1545
     40 C           4.0449   -0.1807   30.8367 C.3     1  UNL1        0.1724
     41 C           5.3741   -0.9307   32.9394 C.3     1  UNL1        0.0019
     42 C           4.4888   -1.2635   31.7751 C.3     1  UNL1        0.0273
@<TRIPOS>BOND
     1    41    42    1
     2    42    40    1
     3    40    37    1
     4    37    38    2
     5    37    39    2
     6    37    35    1
     7    35    27    1
     8    27    28   ar
     9    28    29   ar
    10    29    30   ar
    11    30    31    1
    12    30    32   ar
    13    32    25    1
    14    25    26    2
    15    25     1    1
    16     1     2   ar
    17     2     3   ar
    18     3     4   ar
    19     4     5   ar
    20     5     6   ar
    21     6     7   ar
    22     7    11    1
    23    11    12   ar
    24    12    13   ar
    25    13    14   ar
    26    14    17    1
    27    17    18    2
    28    17    19    2
    29    17    20    1
    30    20    22    1
    31    22    23    1
    32    23    24    1
    33    14    15   ar
    34    15    16   ar
    35     7     8   ar
    36     8     9   ar
    37    32    33   ar
    38    33    34    1
    39    33    27   ar
    40     9     1   ar
    41     9     4    1
    42    16    11   ar
    43    24    22    1
    44    35    36    1
    45     5    10    1
    46    20    21    1
