@<TRIPOS>MOLECULE
*****
 46 49 0 0 0
SMALL
GASTEIGER

@<TRIPOS>ATOM
      1 N           2.8840    1.5379   18.3222 N.am    1  UNL1       -0.2724
      2 C           1.5002    1.6842   18.8824 C.2     1  UNL1        0.2491
      3 O           0.6089    0.4838   19.0025 O.2     1  UNL1       -0.2727
      4 C           3.7753    2.7385   18.2022 C.3     1  UNL1        0.1111
      5 C           5.0621    2.7970   18.9706 C.3     1  UNL1        0.0939
      6 N           6.3657    2.5520   18.2701 N.3     1  UNL1       -0.2712
      7 C           7.5343    1.4834   16.2104 C.3     1  UNL1        0.0188
      8 C           6.3816    2.2380   16.8034 C.3     1  UNL1        0.0722
      9 C           7.6534    2.6211   19.0363 C.3     1  UNL1        0.0722
     10 C           7.7835    1.9088   20.3501 C.3     1  UNL1        0.0188
     11 C           3.3764    0.1912   17.8822 C.3     1  UNL1        0.1202
     12 C           4.0897   -0.7010   18.8544 C.ar    1  UNL1       -0.0023
     13 C           3.3044   -1.5309   19.8262 C.ar    1  UNL1       -0.0026
     14 C           4.0177   -2.4231   20.7984 C.ar    1  UNL1       -0.0003
     15 C           5.5164   -2.4854   20.7987 C.ar    1  UNL1       -0.0000
     16 C           6.3018   -1.6555   19.8269 C.ar    1  UNL1       -0.0003
     17 C           5.5885   -0.7633   18.8548 C.ar    1  UNL1       -0.0026
     18 C           6.2298   -3.3776   21.7710 C.ar    1  UNL1       -0.0000
     19 C           5.6730   -3.5825   23.1486 C.ar    1  UNL1       -0.0001
     20 C           6.3863   -4.4747   24.1208 C.ar    1  UNL1        0.0039
     21 C           7.6564   -5.1620   23.7153 C.ar    1  UNL1        0.0714
     22 C           8.2132   -4.9571   22.3376 C.ar    1  UNL1        0.0039
     23 C           7.4999   -4.0649   21.3654 C.ar    1  UNL1       -0.0001
     24 C           8.3698   -6.0542   24.6875 C.3     1  UNL1        0.4186
     25 F           9.0831   -6.9464   25.6596 F       1  UNL1       -0.1659
     26 F           7.9351   -7.2565   23.9030 F       1  UNL1       -0.1659
     27 F           8.8044   -4.8519   25.4720 F       1  UNL1       -0.1659
     28 C           1.0078    3.0311   19.3225 C.3     1  UNL1        0.1931
     29 N          -0.3986    3.1898   19.8194 N.ar    1  UNL1       -0.3030
     30 C          -0.7057    2.9995   21.2753 C.ar    1  UNL1        0.1747
     31 N          -2.1121    3.1582   21.7721 N.ar    1  UNL1       -0.1847
     32 C          -3.2114    3.5073   20.8131 C.ar    1  UNL1        0.2779
     33 O          -4.6178    3.6660   21.3099 O.2     1  UNL1       -0.2654
     34 C          -2.9043    3.6976   19.3573 C.ar    1  UNL1        0.0477
     35 C          -4.0037    4.0466   18.3983 C.3     1  UNL1        0.0373
     36 C          -1.4980    3.5388   18.8604 C.ar    1  UNL1        0.0403
     37 C          -1.1909    3.7291   17.4046 C.3     1  UNL1        0.0499
     38 S           0.3936    2.6505   22.2342 S.3     1  UNL1       -0.0724
     39 C           0.7464    1.2134   22.4800 C.3     1  UNL1        0.0913
     40 C           2.1691    0.8271   22.7567 C.ar    1  UNL1       -0.0108
     41 C           2.4778   -0.1903   23.8149 C.ar    1  UNL1       -0.0011
     42 C           3.9006   -0.5766   24.0916 C.ar    1  UNL1        0.0293
     43 C           5.0146    0.0545   23.3101 C.ar    1  UNL1        0.1401
     44 F           6.4374   -0.3318   23.5868 F       1  UNL1       -0.2042
     45 C           4.7059    1.0719   22.2520 C.ar    1  UNL1        0.0293
     46 C           3.2832    1.4581   21.9753 C.ar    1  UNL1       -0.0011
@<TRIPOS>BOND
     1     7     8    1
     2     8     6    1
     3     6     9    1
     4     9    10    1
     5     6     5    1
     6     5     4    1
     7     4     1    1
     8     1    11    1
     9    11    12    1
    10    12    13   ar
    11    13    14   ar
    12    14    15   ar
    13    15    18    1
    14    18    19   ar
    15    19    20   ar
    16    20    21   ar
    17    21    24    1
    18    24    25    1
    19    24    26    1
    20    24    27    1
    21    21    22   ar
    22    22    23   ar
    23    15    16   ar
    24    16    17   ar
    25     1     2   am
    26     2     3    2
    27     2    28    1
    28    28    29    1
    29    29    30   ar
    30    30    38    1
    31    38    39    1
    32    39    40    1
    33    40    41   ar
    34    41    42   ar
    35    42    43   ar
    36    43    44    1
    37    43    45   ar
    38    45    46   ar
    39    30    31   ar
    40    31    32   ar
    41    32    33    2
    42    32    34   ar
    43    34    35    1
    44    34    36   ar
    45    36    37    1
    46    17    12   ar
    47    36    29   ar
    48    23    18   ar
    49    46    40   ar
@<TRIPOS>MOLECULE
*****
 46 49 0 0 0
SMALL
GASTEIGER

@<TRIPOS>ATOM
      1 N           0.2461    3.2164   19.1509 N.am    1  UNL1       -0.2724
      2 C          -0.7355    3.0275   20.2693 C.2     1  UNL1        0.2491
      3 O          -1.3260    1.6732   20.5281 O.2     1  UNL1       -0.2727
      4 C           0.8366    4.5708   18.8921 C.3     1  UNL1        0.1111
      5 C           0.2927    5.4276   17.7876 C.3     1  UNL1        0.0939
      6 N          -1.1155    5.9393   17.8595 N.3     1  UNL1       -0.2712
      7 C          -0.9720    7.6435   19.8154 C.3     1  UNL1        0.0188
      8 C          -1.3896    7.3055   18.4149 C.3     1  UNL1        0.0722
      9 C          -2.2496    5.0848   17.3761 C.3     1  UNL1        0.0722
     10 C          -2.0004    4.0160   16.3536 C.3     1  UNL1        0.0188
     11 C           0.6372    2.0510   18.2914 C.3     1  UNL1        0.1202
     12 C           1.6965    1.0970   18.7581 C.ar    1  UNL1       -0.0023
     13 C           3.1195    1.2847   18.3224 C.ar    1  UNL1       -0.0026
     14 C           4.1787    0.3306   18.7891 C.ar    1  UNL1       -0.0003
     15 C           3.8149   -0.8111   19.6914 C.ar    1  UNL1       -0.0000
     16 C           2.3919   -0.9988   20.1270 C.ar    1  UNL1       -0.0003
     17 C           1.3327   -0.0448   19.6604 C.ar    1  UNL1       -0.0026
     18 C           4.8742   -1.7652   20.1581 C.ar    1  UNL1       -0.0000
     19 C           4.6141   -2.6572   21.3355 C.ar    1  UNL1       -0.0001
     20 C           5.6734   -3.6113   21.8022 C.ar    1  UNL1        0.0039
     21 C           6.9928   -3.6732   21.0913 C.ar    1  UNL1        0.0714
     22 C           7.2529   -2.7811   19.9138 C.ar    1  UNL1        0.0039
     23 C           6.1936   -1.8271   19.4472 C.ar    1  UNL1       -0.0001
     24 C           8.0521   -4.6272   21.5579 C.3     1  UNL1        0.4186
     25 F           9.1114   -5.5812   22.0245 F       1  UNL1       -0.1659
     26 F           7.2430   -4.9253   22.7853 F       1  UNL1       -0.1659
     27 F           8.8612   -4.3291   20.3306 F       1  UNL1       -0.1659
     28 C          -1.1266    4.1930   21.1289 C.3     1  UNL1        0.1931
     29 N          -2.1463    4.0154   22.2145 N.ar    1  UNL1       -0.3030
     30 C          -1.7159    3.5793   23.5837 C.ar    1  UNL1        0.1747
     31 N          -2.7356    3.4017   24.6694 N.ar    1  UNL1       -0.1847
     32 C          -4.1858    3.6602   24.3858 C.ar    1  UNL1        0.2779
     33 O          -5.2055    3.4827   25.4714 O.2     1  UNL1       -0.2654
     34 C          -4.6161    4.0963   23.0166 C.ar    1  UNL1        0.0477
     35 C          -6.0662    4.3548   22.7331 C.3     1  UNL1        0.0373
     36 C          -3.5964    4.2739   21.9310 C.ar    1  UNL1        0.0403
     37 C          -4.0267    4.7100   20.5619 C.3     1  UNL1        0.0499
     38 S          -0.2658    3.3208   23.8672 S.3     1  UNL1       -0.0724
     39 C           0.2768    1.9246   23.7872 C.3     1  UNL1        0.0913
     40 C           1.6800    1.6915   23.3112 C.ar    1  UNL1       -0.0108
     41 C           2.3096    2.6433   22.3376 C.ar    1  UNL1       -0.0011
     42 C           3.7128    2.4101   21.8616 C.ar    1  UNL1        0.0293
     43 C           4.4865    1.2252   22.3592 C.ar    1  UNL1        0.1401
     44 F           5.8897    0.9920   21.8832 F       1  UNL1       -0.2042
     45 C           3.8569    0.2735   23.3327 C.ar    1  UNL1        0.0293
     46 C           2.4536    0.5067   23.8087 C.ar    1  UNL1       -0.0011
@<TRIPOS>BOND
     1     7     8    1
     2     8     6    1
     3     6     9    1
     4     9    10    1
     5     6     5    1
     6     5     4    1
     7     4     1    1
     8     1    11    1
     9    11    12    1
    10    12    13   ar
    11    13    14   ar
    12    14    15   ar
    13    15    18    1
    14    18    19   ar
    15    19    20   ar
    16    20    21   ar
    17    21    24    1
    18    24    25    1
    19    24    26    1
    20    24    27    1
    21    21    22   ar
    22    22    23   ar
    23    15    16   ar
    24    16    17   ar
    25     1     2   am
    26     2     3    2
    27     2    28    1
    28    28    29    1
    29    29    30   ar
    30    30    38    1
    31    38    39    1
    32    39    40    1
    33    40    41   ar
    34    41    42   ar
    35    42    43   ar
    36    43    44    1
    37    43    45   ar
    38    45    46   ar
    39    30    31   ar
    40    31    32   ar
    41    32    33    2
    42    32    34   ar
    43    34    35    1
    44    34    36   ar
    45    36    37    1
    46    17    12   ar
    47    36    29   ar
    48    23    18   ar
    49    46    40   ar
@<TRIPOS>MOLECULE
*****
 46 49 0 0 0
SMALL
GASTEIGER

@<TRIPOS>ATOM
      1 N           0.2148    3.3194   19.1490 N.am    1  UNL1       -0.2724
      2 C          -0.7328    3.1168   20.2940 C.2     1  UNL1        0.2491
      3 O          -1.2838    1.7510   20.5789 O.2     1  UNL1       -0.2727
      4 C           0.7658    4.6852   18.8641 C.3     1  UNL1        0.1111
      5 C           1.7684    4.8752   17.7648 C.3     1  UNL1        0.0939
      6 N           3.2350    4.8768   18.0794 N.3     1  UNL1       -0.2712
      7 C           5.4746    4.0181   17.0811 C.3     1  UNL1        0.0188
      8 C           4.2408    4.8634   16.9666 C.3     1  UNL1        0.0722
      9 C           3.6959    4.8919   19.5068 C.3     1  UNL1        0.0722
     10 C           3.9692    6.1975   20.1929 C.3     1  UNL1        0.0188
     11 C           0.6115    2.1563   18.2890 C.3     1  UNL1        0.1202
     12 C           1.6594    1.1943   18.7652 C.ar    1  UNL1       -0.0023
     13 C           3.0890    1.3760   18.3490 C.ar    1  UNL1       -0.0026
     14 C           4.1367    0.4140   18.8252 C.ar    1  UNL1       -0.0003
     15 C           3.7549   -0.7296   19.7175 C.ar    1  UNL1       -0.0000
     16 C           2.3253   -0.9113   20.1337 C.ar    1  UNL1       -0.0003
     17 C           1.2775    0.0506   19.6575 C.ar    1  UNL1       -0.0026
     18 C           4.8027   -1.6916   20.1937 C.ar    1  UNL1       -0.0000
     19 C           6.2218   -1.5447   19.7305 C.ar    1  UNL1       -0.0001
     20 C           7.2696   -2.5067   20.2067 C.ar    1  UNL1        0.0039
     21 C           6.8983   -3.6155   21.1461 C.ar    1  UNL1        0.0714
     22 C           5.4792   -3.7624   21.6094 C.ar    1  UNL1        0.0039
     23 C           4.4314   -2.8005   21.1332 C.ar    1  UNL1       -0.0001
     24 C           7.9461   -4.5775   21.6223 C.3     1  UNL1        0.4186
     25 F           8.9938   -5.5394   22.0985 F       1  UNL1       -0.1659
     26 F           7.1845   -4.7748   22.8994 F       1  UNL1       -0.1659
     27 F           8.7077   -4.3802   20.3452 F       1  UNL1       -0.1659
     28 C          -1.1295    4.2800   21.1540 C.3     1  UNL1        0.1931
     29 N          -2.1245    4.0898   22.2603 N.ar    1  UNL1       -0.3030
     30 C          -1.6742    3.5675   23.5925 C.ar    1  UNL1        0.1747
     31 N          -2.6691    3.3773   24.6988 N.ar    1  UNL1       -0.1847
     32 C          -4.1144    3.7095   24.4729 C.ar    1  UNL1        0.2779
     33 O          -5.1094    3.5193   25.5792 O.2     1  UNL1       -0.2654
     34 C          -4.5647    4.2318   23.1409 C.ar    1  UNL1        0.0477
     35 C          -6.0099    4.5639   22.9151 C.3     1  UNL1        0.0373
     36 C          -3.5697    4.4219   22.0346 C.ar    1  UNL1        0.0403
     37 C          -4.0199    4.9443   20.7025 C.3     1  UNL1        0.0499
     38 S          -0.2290    3.2353   23.8182 S.3     1  UNL1       -0.0724
     39 C           0.2423    1.8164   23.6974 C.3     1  UNL1        0.0913
     40 C           1.6716    1.5282   23.3454 C.ar    1  UNL1       -0.0108
     41 C           2.4345    2.4777   22.4697 C.ar    1  UNL1       -0.0011
     42 C           3.8638    2.1895   22.1177 C.ar    1  UNL1        0.0293
     43 C           4.5303    0.9518   22.6413 C.ar    1  UNL1        0.1401
     44 F           5.9596    0.6636   22.2893 F       1  UNL1       -0.2042
     45 C           3.7675    0.0024   23.5169 C.ar    1  UNL1        0.0293
     46 C           2.3381    0.2906   23.8689 C.ar    1  UNL1       -0.0011
@<TRIPOS>BOND
     1     7     8    1
     2     8     6    1
     3     6     9    1
     4     9    10    1
     5     6     5    1
     6     5     4    1
     7     4     1    1
     8     1    11    1
     9    11    12    1
    10    12    13   ar
    11    13    14   ar
    12    14    15   ar
    13    15    18    1
    14    18    19   ar
    15    19    20   ar
    16    20    21   ar
    17    21    24    1
    18    24    25    1
    19    24    26    1
    20    24    27    1
    21    21    22   ar
    22    22    23   ar
    23    15    16   ar
    24    16    17   ar
    25     1     2   am
    26     2     3    2
    27     2    28    1
    28    28    29    1
    29    29    30   ar
    30    30    38    1
    31    38    39    1
    32    39    40    1
    33    40    41   ar
    34    41    42   ar
    35    42    43   ar
    36    43    44    1
    37    43    45   ar
    38    45    46   ar
    39    30    31   ar
    40    31    32   ar
    41    32    33    2
    42    32    34   ar
    43    34    35    1
    44    34    36   ar
    45    36    37    1
    46    17    12   ar
    47    36    29   ar
    48    23    18   ar
    49    46    40   ar
@<TRIPOS>MOLECULE
*****
 46 49 0 0 0
SMALL
GASTEIGER

@<TRIPOS>ATOM
      1 N           3.8732   -0.5971   29.6717 N.am    1  UNL1       -0.2724
      2 C           4.2458   -1.2296   28.3636 C.2     1  UNL1        0.2491
      3 O           3.1738   -1.6993   27.4254 O.2     1  UNL1       -0.2727
      4 C           4.9453   -0.1274   30.6099 C.3     1  UNL1        0.1111
      5 C           5.1931   -0.8624   31.8938 C.3     1  UNL1        0.0939
      6 N           4.8246   -0.2300   33.2031 N.3     1  UNL1       -0.2712
      7 C           2.8193    1.4218   33.1869 C.3     1  UNL1        0.0188
      8 C           4.2978    1.1741   33.2359 C.3     1  UNL1        0.0722
      9 C           4.9829   -1.0017   34.4796 C.3     1  UNL1        0.0722
     10 C           4.7719   -0.3201   35.7991 C.3     1  UNL1        0.0188
     11 C           2.4287   -0.4344   30.0416 C.3     1  UNL1        0.1202
     12 C           1.5019    0.3177   29.1330 C.ar    1  UNL1       -0.0023
     13 C           1.9766    1.5597   28.4386 C.ar    1  UNL1       -0.0026
     14 C           1.0499    2.3117   27.5300 C.ar    1  UNL1       -0.0003
     15 C          -0.3516    1.8217   27.3158 C.ar    1  UNL1       -0.0000
     16 C          -0.8263    0.5798   28.0102 C.ar    1  UNL1       -0.0003
     17 C           0.1005   -0.1722   28.9188 C.ar    1  UNL1       -0.0026
     18 C          -1.2784    2.5738   26.4072 C.ar    1  UNL1       -0.0000
     19 C          -2.5589    3.1408   26.9444 C.ar    1  UNL1       -0.0001
     20 C          -3.4857    3.8928   26.0358 C.ar    1  UNL1        0.0039
     21 C          -3.1318    4.0779   24.5899 C.ar    1  UNL1        0.0714
     22 C          -1.8512    3.5109   24.0527 C.ar    1  UNL1        0.0039
     23 C          -0.9245    2.7589   24.9613 C.ar    1  UNL1       -0.0001
     24 C          -4.0585    4.8299   23.6813 C.3     1  UNL1        0.4186
     25 F          -4.9852    5.5820   22.7727 F       1  UNL1       -0.1659
     26 F          -4.6681    3.5353   23.2315 F       1  UNL1       -0.1659
     27 F          -3.4489    6.1245   24.1311 F       1  UNL1       -0.1659
     28 C           5.6904   -1.3924   27.9937 C.3     1  UNL1        0.1931
     29 N           6.1765   -2.6914   27.4226 N.ar    1  UNL1       -0.3030
     30 C           6.2171   -2.8888   25.9362 C.ar    1  UNL1        0.1747
     31 N           6.7033   -4.1879   25.3651 N.ar    1  UNL1       -0.1847
     32 C           7.1489   -5.2895   26.2805 C.ar    1  UNL1        0.2779
     33 O           7.6351   -6.5886   25.7095 O.2     1  UNL1       -0.2654
     34 C           7.1083   -5.0921   27.7669 C.ar    1  UNL1        0.0477
     35 C           7.5538   -6.1937   28.6822 C.3     1  UNL1        0.0373
     36 C           6.6221   -3.7931   28.3379 C.ar    1  UNL1        0.0403
     37 C           6.5815   -3.5956   29.8243 C.3     1  UNL1        0.0499
     38 S           5.7716   -1.7872   25.0208 S.3     1  UNL1       -0.0724
     39 C           4.3918   -1.8126   24.4329 C.3     1  UNL1        0.0913
     40 C           4.1961   -2.1930   22.9952 C.ar    1  UNL1       -0.0108
     41 C           3.5116   -1.2455   22.0551 C.ar    1  UNL1       -0.0011
     42 C           3.3159   -1.6260   20.6174 C.ar    1  UNL1        0.0293
     43 C           3.8047   -2.9540   20.1198 C.ar    1  UNL1        0.1401
     44 F           3.6090   -3.3345   18.6821 F       1  UNL1       -0.2042
     45 C           4.4892   -3.9015   21.0599 C.ar    1  UNL1        0.0293
     46 C           4.6849   -3.5210   22.4976 C.ar    1  UNL1       -0.0011
@<TRIPOS>BOND
     1     7     8    1
     2     8     6    1
     3     6     9    1
     4     9    10    1
     5     6     5    1
     6     5     4    1
     7     4     1    1
     8     1    11    1
     9    11    12    1
    10    12    13   ar
    11    13    14   ar
    12    14    15   ar
    13    15    18    1
    14    18    19   ar
    15    19    20   ar
    16    20    21   ar
    17    21    24    1
    18    24    25    1
    19    24    26    1
    20    24    27    1
    21    21    22   ar
    22    22    23   ar
    23    15    16   ar
    24    16    17   ar
    25     1     2   am
    26     2     3    2
    27     2    28    1
    28    28    29    1
    29    29    30   ar
    30    30    38    1
    31    38    39    1
    32    39    40    1
    33    40    41   ar
    34    41    42   ar
    35    42    43   ar
    36    43    44    1
    37    43    45   ar
    38    45    46   ar
    39    30    31   ar
    40    31    32   ar
    41    32    33    2
    42    32    34   ar
    43    34    35    1
    44    34    36   ar
    45    36    37    1
    46    17    12   ar
    47    36    29   ar
    48    23    18   ar
    49    46    40   ar
@<TRIPOS>MOLECULE
*****
 46 49 0 0 0
SMALL
GASTEIGER

@<TRIPOS>ATOM
      1 N           3.8219   -0.2534   29.5859 N.am    1  UNL1       -0.2724
      2 C           4.1920   -1.1053   28.4082 C.2     1  UNL1        0.2491
      3 O           3.1221   -1.8004   27.6195 O.2     1  UNL1       -0.2727
      4 C           4.8919    0.4417   30.3747 C.3     1  UNL1        0.1111
      5 C           5.4582   -0.2059   31.6034 C.3     1  UNL1        0.0939
      6 N           4.6381   -0.2816   32.8570 N.3     1  UNL1       -0.2712
      7 C           4.4716   -2.8249   33.3610 C.3     1  UNL1        0.0188
      8 C           4.8164   -1.4332   33.8016 C.3     1  UNL1        0.0722
      9 C           3.6396    0.7943   33.1661 C.3     1  UNL1        0.0722
     10 C           3.7708    1.6001   34.4245 C.3     1  UNL1        0.0188
     11 C           2.3818   -0.0964   29.9750 C.3     1  UNL1        0.1202
     12 C           1.4293    0.6099   29.0562 C.ar    1  UNL1       -0.0023
     13 C           0.0150    0.1273   28.9269 C.ar    1  UNL1       -0.0026
     14 C          -0.9374    0.8335   28.0082 C.ar    1  UNL1       -0.0003
     15 C          -0.4754    2.0224   27.2188 C.ar    1  UNL1       -0.0000
     16 C           0.9389    2.5050   27.3480 C.ar    1  UNL1       -0.0003
     17 C           1.8913    1.7987   28.2668 C.ar    1  UNL1       -0.0026
     18 C          -1.4279    2.7287   26.3000 C.ar    1  UNL1       -0.0000
     19 C          -2.7131    3.2861   26.8362 C.ar    1  UNL1       -0.0001
     20 C          -3.6655    3.9923   25.9175 C.ar    1  UNL1        0.0039
     21 C          -3.3327    4.1412   24.4624 C.ar    1  UNL1        0.0714
     22 C          -2.0475    3.5837   23.9262 C.ar    1  UNL1        0.0039
     23 C          -1.0951    2.8775   24.8449 C.ar    1  UNL1       -0.0001
     24 C          -4.2851    4.8474   23.5437 C.3     1  UNL1        0.4186
     25 F          -5.2375    5.5536   22.6249 F       1  UNL1       -0.1659
     26 F          -3.1452    5.2045   22.6366 F       1  UNL1       -0.1659
     27 F          -5.4251    4.4902   24.4508 F       1  UNL1       -0.1659
     28 C           5.6322   -1.2623   28.0191 C.3     1  UNL1        0.1931
     29 N           6.1299   -2.5791   27.5012 N.ar    1  UNL1       -0.3030
     30 C           6.1564   -2.8426   26.0247 C.ar    1  UNL1        0.1747
     31 N           6.6541   -4.1594   25.5067 N.ar    1  UNL1       -0.1847
     32 C           7.1254   -5.2127   26.4652 C.ar    1  UNL1        0.2779
     33 O           7.6231   -6.5295   25.9472 O.2     1  UNL1       -0.2654
     34 C           7.0989   -4.9491   27.9416 C.ar    1  UNL1        0.0477
     35 C           7.5702   -6.0023   28.9000 C.3     1  UNL1        0.0373
     36 C           6.6012   -3.6323   28.4596 C.ar    1  UNL1        0.0403
     37 C           6.5747   -3.3687   29.9359 C.3     1  UNL1        0.0499
     38 S           5.6851   -1.7894   25.0663 S.3     1  UNL1       -0.0724
     39 C           4.7087   -2.1431   23.9838 C.3     1  UNL1        0.0913
     40 C           3.6698   -1.1489   23.5568 C.ar    1  UNL1       -0.0108
     41 C           3.2246   -1.0975   22.1253 C.ar    1  UNL1       -0.0011
     42 C           2.1857   -0.1033   21.6982 C.ar    1  UNL1        0.0293
     43 C           1.5921    0.8394   22.7027 C.ar    1  UNL1        0.1401
     44 F           0.5532    1.8336   22.2757 F       1  UNL1       -0.2042
     45 C           2.0373    0.7880   24.1342 C.ar    1  UNL1        0.0293
     46 C           3.0762   -0.2062   24.5612 C.ar    1  UNL1       -0.0011
@<TRIPOS>BOND
     1     7     8    1
     2     8     6    1
     3     6     9    1
     4     9    10    1
     5     6     5    1
     6     5     4    1
     7     4     1    1
     8     1    11    1
     9    11    12    1
    10    12    13   ar
    11    13    14   ar
    12    14    15   ar
    13    15    18    1
    14    18    19   ar
    15    19    20   ar
    16    20    21   ar
    17    21    24    1
    18    24    25    1
    19    24    26    1
    20    24    27    1
    21    21    22   ar
    22    22    23   ar
    23    15    16   ar
    24    16    17   ar
    25     1     2   am
    26     2     3    2
    27     2    28    1
    28    28    29    1
    29    29    30   ar
    30    30    38    1
    31    38    39    1
    32    39    40    1
    33    40    41   ar
    34    41    42   ar
    35    42    43   ar
    36    43    44    1
    37    43    45   ar
    38    45    46   ar
    39    30    31   ar
    40    31    32   ar
    41    32    33    2
    42    32    34   ar
    43    34    35    1
    44    34    36   ar
    45    36    37    1
    46    17    12   ar
    47    36    29   ar
    48    23    18   ar
    49    46    40   ar
@<TRIPOS>MOLECULE
*****
 46 49 0 0 0
SMALL
GASTEIGER

@<TRIPOS>ATOM
      1 N           0.5314    3.9512   25.8197 N.am    1  UNL1       -0.2724
      2 C          -0.9602    3.8777   25.6783 C.2     1  UNL1        0.2491
      3 O          -1.6812    2.6003   25.9922 O.2     1  UNL1       -0.2727
      4 C           1.2524    5.2287   25.5059 C.3     1  UNL1        0.1111
      5 C           1.6166    5.5554   24.0880 C.3     1  UNL1        0.0939
      6 N           2.7606    4.8470   23.4252 N.3     1  UNL1       -0.2712
      7 C           3.4388    5.1851   20.9401 C.3     1  UNL1        0.0188
      8 C           2.6588    4.4427   21.9843 C.3     1  UNL1        0.0722
      9 C           4.0064    4.5429   24.2033 C.3     1  UNL1        0.0722
     10 C           4.8149    3.3221   23.8776 C.3     1  UNL1        0.0188
     11 C           1.3018    2.7475   26.2750 C.3     1  UNL1        0.1202
     12 C           1.7655    1.7311   25.2739 C.ar    1  UNL1       -0.0023
     13 C           2.7995    0.7155   25.6603 C.ar    1  UNL1       -0.0026
     14 C           3.2631   -0.3009   24.6592 C.ar    1  UNL1       -0.0003
     15 C           2.6928   -0.3015   23.2719 C.ar    1  UNL1       -0.0000
     16 C           1.6588    0.7141   22.8856 C.ar    1  UNL1       -0.0003
     17 C           1.1952    1.7304   23.8866 C.ar    1  UNL1       -0.0026
     18 C           3.1565   -1.3179   22.2709 C.ar    1  UNL1       -0.0000
     19 C           4.0409   -2.4490   22.7050 C.ar    1  UNL1       -0.0001
     20 C           4.5046   -3.4654   21.7040 C.ar    1  UNL1        0.0039
     21 C           4.0838   -3.3506   20.2688 C.ar    1  UNL1        0.0714
     22 C           3.1994   -2.2195   19.8346 C.ar    1  UNL1        0.0039
     23 C           2.7357   -1.2032   20.8357 C.ar    1  UNL1       -0.0001
     24 C           4.5474   -4.3670   19.2678 C.3     1  UNL1        0.4186
     25 F           5.0111   -5.3833   18.2667 F       1  UNL1       -0.1659
     26 F           3.1377   -4.8544   19.1098 F       1  UNL1       -0.1659
     27 F           5.9572   -3.8795   19.4258 F       1  UNL1       -0.1659
     28 C          -1.7307    5.0815   25.2231 C.3     1  UNL1        0.1931
     29 N          -2.9495    4.9116   24.3654 N.ar    1  UNL1       -0.3030
     30 C          -2.8018    4.6404   22.8975 C.ar    1  UNL1        0.1747
     31 N          -4.0207    4.4705   22.0399 N.ar    1  UNL1       -0.1847
     32 C          -5.3872    4.5717   22.6502 C.ar    1  UNL1        0.2779
     33 O          -6.6061    4.4018   21.7926 O.2     1  UNL1       -0.2654
     34 C          -5.5349    4.8428   24.1181 C.ar    1  UNL1        0.0477
     35 C          -6.9013    4.9441   24.7283 C.3     1  UNL1        0.0373
     36 C          -4.3160    5.0128   24.9757 C.ar    1  UNL1        0.0403
     37 C          -4.4636    5.2839   26.4435 C.3     1  UNL1        0.0499
     38 S          -1.4354    4.5392   22.2873 S.3     1  UNL1       -0.0724
     39 C          -1.2685    4.6428   20.8001 C.3     1  UNL1        0.0913
     40 C          -0.4246    3.6416   20.0685 C.ar    1  UNL1       -0.0108
     41 C           0.5000    4.0945   18.9775 C.ar    1  UNL1       -0.0011
     42 C           1.3439    3.0932   18.2459 C.ar    1  UNL1        0.0293
     43 C           1.2633    1.6391   18.6054 C.ar    1  UNL1        0.1401
     44 F           2.1073    0.6378   17.8738 F       1  UNL1       -0.2042
     45 C           0.3389    1.1863   19.6963 C.ar    1  UNL1        0.0293
     46 C          -0.5051    2.1875   20.4279 C.ar    1  UNL1       -0.0011
@<TRIPOS>BOND
     1     7     8    1
     2     8     6    1
     3     6     9    1
     4     9    10    1
     5     6     5    1
     6     5     4    1
     7     4     1    1
     8     1    11    1
     9    11    12    1
    10    12    13   ar
    11    13    14   ar
    12    14    15   ar
    13    15    18    1
    14    18    19   ar
    15    19    20   ar
    16    20    21   ar
    17    21    24    1
    18    24    25    1
    19    24    26    1
    20    24    27    1
    21    21    22   ar
    22    22    23   ar
    23    15    16   ar
    24    16    17   ar
    25     1     2   am
    26     2     3    2
    27     2    28    1
    28    28    29    1
    29    29    30   ar
    30    30    38    1
    31    38    39    1
    32    39    40    1
    33    40    41   ar
    34    41    42   ar
    35    42    43   ar
    36    43    44    1
    37    43    45   ar
    38    45    46   ar
    39    30    31   ar
    40    31    32   ar
    41    32    33    2
    42    32    34   ar
    43    34    35    1
    44    34    36   ar
    45    36    37    1
    46    17    12   ar
    47    36    29   ar
    48    23    18   ar
    49    46    40   ar
@<TRIPOS>MOLECULE
*****
 46 49 0 0 0
SMALL
GASTEIGER

@<TRIPOS>ATOM
      1 N           3.4001    1.8882   29.3090 N.am    1  UNL1       -0.2724
      2 C           3.8178    0.4498   29.3898 C.2     1  UNL1        0.2491
      3 O           2.8969   -0.5656   29.9987 O.2     1  UNL1       -0.2727
      4 C           4.3210    2.9037   28.7000 C.3     1  UNL1        0.1111
      5 C           4.1470    3.3098   27.2666 C.3     1  UNL1        0.0939
      6 N           4.1320    2.2673   26.1883 N.3     1  UNL1       -0.2712
      7 C           1.8075    2.5644   25.0664 C.3     1  UNL1        0.0188
      8 C           2.8290    1.6857   25.7253 C.3     1  UNL1        0.0722
      9 C           5.4199    1.8062   25.5728 C.3     1  UNL1        0.0722
     10 C           6.3109    2.7893   24.8729 C.3     1  UNL1        0.0188
     11 C           2.0614    2.3112   29.8372 C.3     1  UNL1        0.1202
     12 C           0.9322    2.5828   28.8878 C.ar    1  UNL1       -0.0023
     13 C           0.5989    3.9936   28.5027 C.ar    1  UNL1       -0.0026
     14 C          -0.5302    4.2651   27.5534 C.ar    1  UNL1       -0.0003
     15 C          -1.3261    3.1258   26.9892 C.ar    1  UNL1       -0.0000
     16 C          -0.9928    1.7149   27.3743 C.ar    1  UNL1       -0.0003
     17 C           0.1363    1.4434   28.3236 C.ar    1  UNL1       -0.0026
     18 C          -2.4553    3.3973   26.0398 C.ar    1  UNL1       -0.0000
     19 C          -2.2329    3.2920   24.5602 C.ar    1  UNL1       -0.0001
     20 C          -3.3621    3.5636   23.6108 C.ar    1  UNL1        0.0039
     21 C          -4.7137    3.9404   24.1412 C.ar    1  UNL1        0.0714
     22 C          -4.9360    4.0457   25.6209 C.ar    1  UNL1        0.0039
     23 C          -3.8069    3.7742   26.5702 C.ar    1  UNL1       -0.0001
     24 C          -5.8429    4.2120   23.1919 C.3     1  UNL1        0.4186
     25 F          -6.9720    4.4835   22.2426 F       1  UNL1       -0.1659
     26 F          -6.7715    4.4099   24.3531 F       1  UNL1       -0.1659
     27 F          -4.9142    4.0141   22.0307 F       1  UNL1       -0.1659
     28 C           5.1566    0.0269   28.8615 C.3     1  UNL1        0.1931
     29 N           5.6244   -1.3860   29.0486 N.ar    1  UNL1       -0.3030
     30 C           5.5831   -2.3482   27.8986 C.ar    1  UNL1        0.1747
     31 N           6.0509   -3.7610   28.0857 N.ar    1  UNL1       -0.1847
     32 C           6.5599   -4.2117   29.4228 C.ar    1  UNL1        0.2779
     33 O           7.0277   -5.6245   29.6099 O.2     1  UNL1       -0.2654
     34 C           6.6011   -3.2495   30.5728 C.ar    1  UNL1        0.0477
     35 C           7.1101   -3.7002   31.9098 C.3     1  UNL1        0.0373
     36 C           6.1334   -1.8366   30.3857 C.ar    1  UNL1        0.0403
     37 C           6.1746   -0.8745   31.5356 C.3     1  UNL1        0.0499
     38 S           5.0741   -1.8975   26.5615 S.3     1  UNL1       -0.0724
     39 C           5.7767   -2.3272   25.3078 C.3     1  UNL1        0.0913
     40 C           5.0492   -2.3080   23.9962 C.ar    1  UNL1       -0.0108
     41 C           5.2423   -3.4261   23.0150 C.ar    1  UNL1       -0.0011
     42 C           4.5148   -3.4069   21.7033 C.ar    1  UNL1        0.0293
     43 C           3.5942   -2.2696   21.3729 C.ar    1  UNL1        0.1401
     44 F           2.8667   -2.2504   20.0613 F       1  UNL1       -0.2042
     45 C           3.4011   -1.1516   22.3541 C.ar    1  UNL1        0.0293
     46 C           4.1286   -1.1708   23.6657 C.ar    1  UNL1       -0.0011
@<TRIPOS>BOND
     1     7     8    1
     2     8     6    1
     3     6     9    1
     4     9    10    1
     5     6     5    1
     6     5     4    1
     7     4     1    1
     8     1    11    1
     9    11    12    1
    10    12    13   ar
    11    13    14   ar
    12    14    15   ar
    13    15    18    1
    14    18    19   ar
    15    19    20   ar
    16    20    21   ar
    17    21    24    1
    18    24    25    1
    19    24    26    1
    20    24    27    1
    21    21    22   ar
    22    22    23   ar
    23    15    16   ar
    24    16    17   ar
    25     1     2   am
    26     2     3    2
    27     2    28    1
    28    28    29    1
    29    29    30   ar
    30    30    38    1
    31    38    39    1
    32    39    40    1
    33    40    41   ar
    34    41    42   ar
    35    42    43   ar
    36    43    44    1
    37    43    45   ar
    38    45    46   ar
    39    30    31   ar
    40    31    32   ar
    41    32    33    2
    42    32    34   ar
    43    34    35    1
    44    34    36   ar
    45    36    37    1
    46    17    12   ar
    47    36    29   ar
    48    23    18   ar
    49    46    40   ar
@<TRIPOS>MOLECULE
*****
 46 49 0 0 0
SMALL
GASTEIGER

@<TRIPOS>ATOM
      1 N           2.4881    0.8161   27.4624 N.am    1  UNL1       -0.2724
      2 C           3.3414   -0.3536   27.0703 C.2     1  UNL1        0.2491
      3 O           3.1188   -1.6921   27.7096 O.2     1  UNL1       -0.2727
      4 C           2.7107    2.1546   26.8231 C.3     1  UNL1        0.1111
      5 C           1.5793    2.8504   26.1261 C.3     1  UNL1        0.0939
      6 N           0.4496    2.0508   25.5478 N.3     1  UNL1       -0.2712
      7 C           0.6426    1.5502   23.0057 C.3     1  UNL1        0.0188
      8 C           0.7097    1.0848   24.4300 C.3     1  UNL1        0.0722
      9 C          -0.9401    2.2173   26.0871 C.3     1  UNL1        0.0722
     10 C          -1.9090    3.1296   25.3950 C.3     1  UNL1        0.0188
     11 C           1.4122    0.6472   28.4938 C.3     1  UNL1        0.1202
     12 C           1.6549    1.0816   29.9089 C.ar    1  UNL1       -0.0023
     13 C           2.6469    0.3455   30.7597 C.ar    1  UNL1       -0.0026
     14 C           2.8896    0.7799   32.1748 C.ar    1  UNL1       -0.0003
     15 C           2.1402    1.9504   32.7390 C.ar    1  UNL1       -0.0000
     16 C           1.1481    2.6865   31.8882 C.ar    1  UNL1       -0.0003
     17 C           0.9055    2.2521   30.4731 C.ar    1  UNL1       -0.0026
     18 C           2.3829    2.3848   34.1541 C.ar    1  UNL1       -0.0000
     19 C           1.7270    3.6269   34.6803 C.ar    1  UNL1       -0.0001
     20 C           1.9698    4.0613   36.0954 C.ar    1  UNL1        0.0039
     21 C           2.8684    3.2535   36.9842 C.ar    1  UNL1        0.0714
     22 C           3.5243    2.0114   36.4580 C.ar    1  UNL1        0.0039
     23 C           3.2816    1.5770   35.0429 C.ar    1  UNL1       -0.0001
     24 C           3.1111    3.6879   38.3993 C.3     1  UNL1        0.4186
     25 F           3.3539    4.1222   39.8143 F       1  UNL1       -0.1659
     26 F           2.7988    5.1046   38.0180 F       1  UNL1       -0.1659
     27 F           3.4234    2.2712   38.7806 F       1  UNL1       -0.1659
     28 C           4.4174   -0.1847   26.0389 C.3     1  UNL1        0.1931
     29 N           5.0436   -1.3908   25.4039 N.ar    1  UNL1       -0.3030
     30 C           6.2009   -2.0737   26.0706 C.ar    1  UNL1        0.1747
     31 N           6.8271   -3.2798   25.4357 N.ar    1  UNL1       -0.1847
     32 C           6.2960   -3.8030   24.1340 C.ar    1  UNL1        0.2779
     33 O           6.9222   -5.0091   23.4990 O.2     1  UNL1       -0.2654
     34 C           5.1388   -3.1201   23.4673 C.ar    1  UNL1        0.0477
     35 C           4.6078   -3.6432   22.1657 C.3     1  UNL1        0.0373
     36 C           4.5126   -1.9140   24.1023 C.ar    1  UNL1        0.0403
     37 C           3.3554   -1.2311   23.4356 C.3     1  UNL1        0.0499
     38 S           6.7318   -1.5505   27.3723 S.3     1  UNL1       -0.0724
     39 C           7.0306   -2.4985   28.4958 C.3     1  UNL1        0.0913
     40 C           6.6610   -2.1338   29.9030 C.ar    1  UNL1       -0.0108
     41 C           6.6113   -0.6926   30.3160 C.ar    1  UNL1       -0.0011
     42 C           6.2418   -0.3279   31.7232 C.ar    1  UNL1        0.0293
     43 C           5.9219   -1.4045   32.7176 C.ar    1  UNL1        0.1401
     44 F           5.5524   -1.0399   34.1249 F       1  UNL1       -0.2042
     45 C           5.9716   -2.8457   32.3047 C.ar    1  UNL1        0.0293
     46 C           6.3412   -3.2103   30.8974 C.ar    1  UNL1       -0.0011
@<TRIPOS>BOND
     1     7     8    1
     2     8     6    1
     3     6     9    1
     4     9    10    1
     5     6     5    1
     6     5     4    1
     7     4     1    1
     8     1    11    1
     9    11    12    1
    10    12    13   ar
    11    13    14   ar
    12    14    15   ar
    13    15    18    1
    14    18    19   ar
    15    19    20   ar
    16    20    21   ar
    17    21    24    1
    18    24    25    1
    19    24    26    1
    20    24    27    1
    21    21    22   ar
    22    22    23   ar
    23    15    16   ar
    24    16    17   ar
    25     1     2   am
    26     2     3    2
    27     2    28    1
    28    28    29    1
    29    29    30   ar
    30    30    38    1
    31    38    39    1
    32    39    40    1
    33    40    41   ar
    34    41    42   ar
    35    42    43   ar
    36    43    44    1
    37    43    45   ar
    38    45    46   ar
    39    30    31   ar
    40    31    32   ar
    41    32    33    2
    42    32    34   ar
    43    34    35    1
    44    34    36   ar
    45    36    37    1
    46    17    12   ar
    47    36    29   ar
    48    23    18   ar
    49    46    40   ar
@<TRIPOS>MOLECULE
*****
 46 49 0 0 0
SMALL
GASTEIGER

@<TRIPOS>ATOM
      1 N           2.6439    0.4351   27.3920 N.am    1  UNL1       -0.2724
      2 C           3.5347   -0.6669   26.9002 C.2     1  UNL1        0.2491
      3 O           3.4575   -2.0287   27.5243 O.2     1  UNL1       -0.2727
      4 C           2.7212    1.7970   26.7679 C.3     1  UNL1        0.1111
      5 C           3.5632    2.8651   27.4003 C.3     1  UNL1        0.0939
      6 N           4.9949    2.5837   27.7480 N.3     1  UNL1       -0.2712
      7 C           7.4282    2.2384   26.9054 C.3     1  UNL1        0.0188
      8 C           6.0798    2.8780   26.7548 C.3     1  UNL1        0.0722
      9 C           5.3418    2.0081   29.0890 C.3     1  UNL1        0.0722
     10 C           5.1328    2.8221   30.3315 C.3     1  UNL1        0.0188
     11 C           1.6758    0.1754   28.5080 C.3     1  UNL1        0.1202
     12 C           2.0710    0.4637   29.9260 C.ar    1  UNL1       -0.0023
     13 C           1.5274    1.6746   30.6247 C.ar    1  UNL1       -0.0026
     14 C           1.9226    1.9629   32.0426 C.ar    1  UNL1       -0.0003
     15 C           2.8613    1.0402   32.7620 C.ar    1  UNL1       -0.0000
     16 C           3.4049   -0.1707   32.0634 C.ar    1  UNL1       -0.0003
     17 C           3.0097   -0.4590   30.6454 C.ar    1  UNL1       -0.0026
     18 C           3.2565    1.3285   34.1800 C.ar    1  UNL1       -0.0000
     19 C           2.5558    2.4091   34.9489 C.ar    1  UNL1       -0.0001
     20 C           2.9510    2.6975   36.3670 C.ar    1  UNL1        0.0039
     21 C           4.0468    1.9051   37.0161 C.ar    1  UNL1        0.0714
     22 C           4.7475    0.8244   36.2471 C.ar    1  UNL1        0.0039
     23 C           4.3523    0.5361   34.8291 C.ar    1  UNL1       -0.0001
     24 C           4.4420    2.1933   38.4340 C.3     1  UNL1        0.4186
     25 F           4.8372    2.4816   39.8520 F       1  UNL1       -0.1659
     26 F           3.8846    0.8672   38.8590 F       1  UNL1       -0.1659
     27 F           4.9994    3.5195   38.0091 F       1  UNL1       -0.1659
     28 C           4.5028   -0.4072   25.7842 C.3     1  UNL1        0.1931
     29 N           5.1064   -1.5562   25.0323 N.ar    1  UNL1       -0.3030
     30 C           6.3080   -2.2649   25.5836 C.ar    1  UNL1        0.1747
     31 N           6.9116   -3.4139   24.8316 N.ar    1  UNL1       -0.1847
     32 C           6.3136   -3.8542   23.5284 C.ar    1  UNL1        0.2779
     33 O           6.9171   -5.0032   22.7764 O.2     1  UNL1       -0.2654
     34 C           5.1120   -3.1456   22.9771 C.ar    1  UNL1        0.0477
     35 C           4.5140   -3.5859   21.6738 C.3     1  UNL1        0.0373
     36 C           4.5084   -1.9965   23.7290 C.ar    1  UNL1        0.0403
     37 C           3.3068   -1.2879   23.1778 C.3     1  UNL1        0.0499
     38 S           6.9060   -1.8245   26.8868 S.3     1  UNL1       -0.0724
     39 C           7.2249   -2.8376   27.9461 C.3     1  UNL1        0.0913
     40 C           7.0317   -2.4953   29.3937 C.ar    1  UNL1       -0.0108
     41 C           6.6777   -3.5706   30.3779 C.ar    1  UNL1       -0.0011
     42 C           6.4845   -3.2283   31.8254 C.ar    1  UNL1        0.0293
     43 C           6.6453   -1.8107   32.2889 C.ar    1  UNL1        0.1401
     44 F           6.4521   -1.4684   33.7365 F       1  UNL1       -0.2042
     45 C           6.9993   -0.7356   31.3047 C.ar    1  UNL1        0.0293
     46 C           7.1925   -1.0778   29.8571 C.ar    1  UNL1       -0.0011
@<TRIPOS>BOND
     1     7     8    1
     2     8     6    1
     3     6     9    1
     4     9    10    1
     5     6     5    1
     6     5     4    1
     7     4     1    1
     8     1    11    1
     9    11    12    1
    10    12    13   ar
    11    13    14   ar
    12    14    15   ar
    13    15    18    1
    14    18    19   ar
    15    19    20   ar
    16    20    21   ar
    17    21    24    1
    18    24    25    1
    19    24    26    1
    20    24    27    1
    21    21    22   ar
    22    22    23   ar
    23    15    16   ar
    24    16    17   ar
    25     1     2   am
    26     2     3    2
    27     2    28    1
    28    28    29    1
    29    29    30   ar
    30    30    38    1
    31    38    39    1
    32    39    40    1
    33    40    41   ar
    34    41    42   ar
    35    42    43   ar
    36    43    44    1
    37    43    45   ar
    38    45    46   ar
    39    30    31   ar
    40    31    32   ar
    41    32    33    2
    42    32    34   ar
    43    34    35    1
    44    34    36   ar
    45    36    37    1
    46    17    12   ar
    47    36    29   ar
    48    23    18   ar
    49    46    40   ar
