@<TRIPOS>MOLECULE
*****
 20 21 0 0 0
SMALL
GASTEIGER

@<TRIPOS>ATOM
      1 C          -9.2231  -17.5577   21.5049 C.2     1  UNL1        0.1535
      2 N          -8.0231  -16.6633   21.6058 N.2     1  UNL1       -0.2470
      3 C          -7.8461  -16.2857   23.0466 C.3     1  UNL1        0.1720
      4 C          -6.8328  -15.4254   23.7416 C.3     1  UNL1        0.1653
      5 O          -5.7422  -14.7644   22.9519 O.3     1  UNL1       -0.3798
      6 C          -6.9101  -15.2260   25.2263 C.3     1  UNL1        0.1688
      7 O          -5.8968  -14.3657   25.9212 O.3     1  UNL1       -0.3794
      8 C          -8.0007  -15.8870   26.0160 C.3     1  UNL1        0.1746
      9 O          -9.0141  -16.7474   25.3210 O.3     1  UNL1       -0.3402
     10 C          -8.9368  -16.9467   23.8363 C.3     1  UNL1        0.1938
     11 S          -9.7877  -17.7328   22.8835 S.3     1  UNL1       -0.0497
     12 H          -5.1777  -14.2489   23.5489 H       1  UNL1        0.2105
     13 H          -5.2673  -14.0177   25.2704 H       1  UNL1        0.2105
     14 C          -8.0780  -15.6877   27.5007 C.3     1  UNL1        0.1693
     15 O          -8.1724  -14.3021   28.0675 O.3     1  UNL1       -0.3794
     16 H          -7.3514  -13.8201   27.8815 H       1  UNL1        0.2105
     17 N          -9.7635  -18.1695   20.2465 N.pl3   1  UNL1       -0.3135
     18 H          -9.2275  -18.8299   19.7507 H       1  UNL1        0.1487
     19 C         -11.5436  -16.3364   19.7763 C.3     1  UNL1        0.0230
     20 C         -11.1205  -17.7751   19.7435 C.3     1  UNL1        0.0887
@<TRIPOS>BOND
     1    19    20    1
     2    20    17    1
     3    17     1    1
     4     1     2    2
     5     3     2    1
     6     3     4    1
     7     4     5    1
     8     4     6    1
     9     6     7    1
    10     6     8    1
    11     8    14    1
    12    14    15    1
    13     8     9    1
    14    10     9    1
    15    10    11    1
    16    11     1    1
    17    10     3    1
    18    17    18    1
    19     5    12    1
    20     7    13    1
    21    15    16    1
@<TRIPOS>MOLECULE
*****
 20 21 0 0 0
SMALL
GASTEIGER

@<TRIPOS>ATOM
      1 C          -5.6988  -19.0338   22.2420 C.2     1  UNL1        0.1535
      2 N          -6.1415  -17.6214   22.4856 N.2     1  UNL1       -0.2470
      3 C          -7.6241  -17.5561   22.2673 C.3     1  UNL1        0.1720
      4 C          -8.6040  -16.4247   22.3644 C.3     1  UNL1        0.1653
      5 O          -8.1304  -15.0527   22.7430 O.3     1  UNL1       -0.3798
      6 C         -10.0576  -16.6651   22.0828 C.3     1  UNL1        0.1688
      7 O         -11.0376  -15.5337   22.1798 O.3     1  UNL1       -0.3794
      8 C         -10.5313  -18.0371   21.7042 C.3     1  UNL1        0.1746
      9 O          -9.5512  -19.1686   21.6071 O.3     1  UNL1       -0.3402
     10 C          -8.0977  -18.9281   21.8887 C.3     1  UNL1        0.1938
     11 S          -6.9078  -19.8413   21.8730 S.3     1  UNL1       -0.0497
     12 H          -8.8849  -14.4433   22.7596 H       1  UNL1        0.2105
     13 H         -10.5704  -14.7222   22.4331 H       1  UNL1        0.2105
     14 C         -11.9848  -18.2776   21.4226 C.3     1  UNL1        0.1693
     15 O         -12.8044  -17.2158   20.7511 O.3     1  UNL1       -0.3794
     16 H         -12.8776  -16.4456   21.3361 H       1  UNL1        0.2105
     17 N          -4.2938  -19.5482   22.3485 N.pl3   1  UNL1       -0.3135
     18 H          -3.9889  -19.9786   23.1798 H       1  UNL1        0.1487
     19 C          -3.7106  -19.9977   19.8570 C.3     1  UNL1        0.0230
     20 C          -3.3533  -19.4068   21.1885 C.3     1  UNL1        0.0887
@<TRIPOS>BOND
     1    19    20    1
     2    20    17    1
     3    17     1    1
     4     1     2    2
     5     3     2    1
     6     3     4    1
     7     4     5    1
     8     4     6    1
     9     6     7    1
    10     6     8    1
    11     8    14    1
    12    14    15    1
    13     8     9    1
    14    10     9    1
    15    10    11    1
    16    11     1    1
    17    10     3    1
    18    17    18    1
    19     5    12    1
    20     7    13    1
    21    15    16    1
@<TRIPOS>MOLECULE
*****
 20 21 0 0 0
SMALL
GASTEIGER

@<TRIPOS>ATOM
      1 C         -10.0957  -17.5467   21.6165 C.2     1  UNL1        0.1535
      2 N          -9.7700  -16.3178   22.4126 N.2     1  UNL1       -0.2470
      3 C          -8.3169  -16.3753   22.7802 C.3     1  UNL1        0.1720
      4 C          -7.4409  -15.4396   23.5594 C.3     1  UNL1        0.1653
      5 O          -8.0133  -14.1752   24.1284 O.3     1  UNL1       -0.3798
      6 C          -5.9925  -15.7683   23.7697 C.3     1  UNL1        0.1688
      7 O          -5.1166  -14.8327   24.5490 O.3     1  UNL1       -0.3794
      8 C          -5.4201  -17.0327   23.2007 C.3     1  UNL1        0.1746
      9 O          -6.2962  -17.9684   22.4215 O.3     1  UNL1       -0.3402
     10 C          -7.7445  -17.6396   22.2112 C.3     1  UNL1        0.1938
     11 S          -8.8439  -18.3636   21.4920 S.3     1  UNL1       -0.0497
     12 H          -7.3185  -13.6891   24.5994 H       1  UNL1        0.2105
     13 H          -5.6391  -14.0702   24.8432 H       1  UNL1        0.2105
     14 C          -3.9718  -17.3614   23.4110 C.3     1  UNL1        0.1693
     15 O          -2.9392  -16.8476   22.4520 O.3     1  UNL1       -0.3794
     16 H          -3.0738  -17.2560   21.5825 H       1  UNL1        0.2105
     17 N         -11.4377  -17.8971   21.0452 N.pl3   1  UNL1       -0.3135
     18 H         -11.4972  -18.3947   20.1978 H       1  UNL1        0.1487
     19 C         -12.9032  -17.9042   23.1904 C.3     1  UNL1        0.0230
     20 C         -12.6889  -17.4893   21.7650 C.3     1  UNL1        0.0887
@<TRIPOS>BOND
     1    19    20    1
     2    20    17    1
     3    17     1    1
     4     1     2    2
     5     3     2    1
     6     3     4    1
     7     4     5    1
     8     4     6    1
     9     6     7    1
    10     6     8    1
    11     8    14    1
    12    14    15    1
    13     8     9    1
    14    10     9    1
    15    10    11    1
    16    11     1    1
    17    10     3    1
    18    17    18    1
    19     5    12    1
    20     7    13    1
    21    15    16    1
@<TRIPOS>MOLECULE
*****
 20 21 0 0 0
SMALL
GASTEIGER

@<TRIPOS>ATOM
      1 C          -6.7751  -18.5961   21.6411 C.2     1  UNL1        0.1535
      2 N          -7.5362  -17.3643   21.2493 N.2     1  UNL1       -0.2470
      3 C          -8.8860  -17.4267   21.9006 C.3     1  UNL1        0.1720
      4 C         -10.0579  -16.4909   21.8729 C.3     1  UNL1        0.1653
      5 O          -9.9847  -15.2205   21.0786 O.3     1  UNL1       -0.3798
      6 C         -11.3030  -16.8253   22.6397 C.3     1  UNL1        0.1688
      7 O         -12.4750  -15.8895   22.6120 O.3     1  UNL1       -0.3794
      8 C         -11.3762  -18.0957   23.4340 C.3     1  UNL1        0.1746
      9 O         -10.2042  -19.0315   23.4616 O.3     1  UNL1       -0.3402
     10 C          -8.9591  -18.6970   22.6949 C.3     1  UNL1        0.1938
     11 S          -7.6545  -19.4197   22.5345 S.3     1  UNL1       -0.0497
     12 H         -10.8198  -14.7351   21.1676 H       1  UNL1        0.2105
     13 H         -12.2635  -15.1229   22.0566 H       1  UNL1        0.2105
     14 C         -12.6213  -18.4302   24.2007 C.3     1  UNL1        0.1693
     15 O         -13.9450  -17.8809   23.7580 O.3     1  UNL1       -0.3794
     16 H         -13.9454  -16.9163   23.8605 H       1  UNL1        0.2105
     17 N          -5.3796  -18.9433   21.2143 N.pl3   1  UNL1       -0.3135
     18 H          -4.6090  -18.5443   21.6794 H       1  UNL1        0.1487
     19 C          -3.8354  -20.5892   19.9274 C.3     1  UNL1        0.0230
     20 C          -5.1582  -19.8983   20.0791 C.3     1  UNL1        0.0887
@<TRIPOS>BOND
     1    19    20    1
     2    20    17    1
     3    17     1    1
     4     1     2    2
     5     3     2    1
     6     3     4    1
     7     4     5    1
     8     4     6    1
     9     6     7    1
    10     6     8    1
    11     8    14    1
    12    14    15    1
    13     8     9    1
    14    10     9    1
    15    10    11    1
    16    11     1    1
    17    10     3    1
    18    17    18    1
    19     5    12    1
    20     7    13    1
    21    15    16    1
@<TRIPOS>MOLECULE
*****
 20 21 0 0 0
SMALL
GASTEIGER

@<TRIPOS>ATOM
      1 C          -9.6375  -16.6437   22.1243 C.2     1  UNL1        0.1535
      2 N          -9.4759  -17.7400   21.1134 N.2     1  UNL1       -0.2470
      3 C          -8.0882  -18.2935   21.2476 C.3     1  UNL1        0.1720
      4 C          -7.3686  -19.3868   20.5151 C.3     1  UNL1        0.1653
      5 O          -8.0646  -20.1411   19.4213 O.3     1  UNL1       -0.3798
      6 C          -5.9527  -19.7260   20.8765 C.3     1  UNL1        0.1688
      7 O          -5.2331  -20.8193   20.1440 O.3     1  UNL1       -0.3794
      8 C          -5.2567  -18.9717   21.9703 C.3     1  UNL1        0.1746
      9 O          -5.9764  -17.8783   22.7029 O.3     1  UNL1       -0.3402
     10 C          -7.3921  -17.5392   22.3415 C.3     1  UNL1        0.1938
     11 S          -8.3496  -16.5196   22.8833 S.3     1  UNL1       -0.0497
     12 H          -7.4630  -20.8079   19.0548 H       1  UNL1        0.2105
     13 H          -5.8213  -21.2012   19.4738 H       1  UNL1        0.2105
     14 C          -3.8409  -19.3108   22.3317 C.3     1  UNL1        0.1693
     15 O          -2.8847  -19.7677   21.2701 O.3     1  UNL1       -0.3794
     16 H          -3.1735  -20.6260   20.9225 H       1  UNL1        0.2105
     17 N         -10.8704  -15.8166   22.3386 N.pl3   1  UNL1       -0.3135
     18 H         -10.7916  -14.8906   22.6635 H       1  UNL1        0.1487
     19 C         -12.7932  -17.4455   22.9706 C.3     1  UNL1        0.0230
     20 C         -12.2233  -16.4004   22.0579 C.3     1  UNL1        0.0887
@<TRIPOS>BOND
     1    19    20    1
     2    20    17    1
     3    17     1    1
     4     1     2    2
     5     3     2    1
     6     3     4    1
     7     4     5    1
     8     4     6    1
     9     6     7    1
    10     6     8    1
    11     8    14    1
    12    14    15    1
    13     8     9    1
    14    10     9    1
    15    10    11    1
    16    11     1    1
    17    10     3    1
    18    17    18    1
    19     5    12    1
    20     7    13    1
    21    15    16    1
@<TRIPOS>MOLECULE
*****
 20 21 0 0 0
SMALL
GASTEIGER

@<TRIPOS>ATOM
      1 C          -7.6652  -19.2597   21.3824 C.2     1  UNL1        0.1535
      2 N          -6.7004  -18.9643   22.4923 N.2     1  UNL1       -0.2470
      3 C          -5.3448  -18.7560   21.8850 C.3     1  UNL1        0.1720
      4 C          -4.0112  -18.4361   22.4926 C.3     1  UNL1        0.1653
      5 O          -3.8843  -18.2694   23.9779 O.3     1  UNL1       -0.3798
      6 C          -2.8044  -18.2828   21.6148 C.3     1  UNL1        0.1688
      7 O          -1.4709  -17.9629   22.2224 O.3     1  UNL1       -0.3794
      8 C          -2.9314  -18.4496   20.1295 C.3     1  UNL1        0.1746
      9 O          -4.2650  -18.7695   19.5220 O.3     1  UNL1       -0.3402
     10 C          -5.4717  -18.9227   20.3997 C.3     1  UNL1        0.1938
     11 S          -6.9058  -19.2340   20.0891 S.3     1  UNL1       -0.0497
     12 H          -2.9627  -18.0669   24.2029 H       1  UNL1        0.2105
     13 H          -1.5635  -17.8892   23.1851 H       1  UNL1        0.2105
     14 C          -1.7247  -18.2963   19.2518 C.3     1  UNL1        0.1693
     15 O          -0.3831  -18.7642   19.7327 O.3     1  UNL1       -0.3794
     16 H          -0.1039  -18.2237   20.4882 H       1  UNL1        0.2105
     17 N          -9.1318  -19.5328   21.5384 N.pl3   1  UNL1       -0.3135
     18 H          -9.6590  -19.8455   20.7679 H       1  UNL1        0.1487
     19 C          -9.6555  -20.3673   23.9424 C.3     1  UNL1        0.0230
     20 C          -9.7953  -19.3297   22.8682 C.3     1  UNL1        0.0887
@<TRIPOS>BOND
     1    19    20    1
     2    20    17    1
     3    17     1    1
     4     1     2    2
     5     3     2    1
     6     3     4    1
     7     4     5    1
     8     4     6    1
     9     6     7    1
    10     6     8    1
    11     8    14    1
    12    14    15    1
    13     8     9    1
    14    10     9    1
    15    10    11    1
    16    11     1    1
    17    10     3    1
    18    17    18    1
    19     5    12    1
    20     7    13    1
    21    15    16    1
@<TRIPOS>MOLECULE
*****
 20 21 0 0 0
SMALL
GASTEIGER

@<TRIPOS>ATOM
      1 C         -15.8127   -5.8409   19.2938 C.2     1  UNL1        0.1535
      2 N         -14.8887   -4.6885   19.5553 N.2     1  UNL1       -0.2470
      3 C         -13.4819   -5.1664   19.3496 C.3     1  UNL1        0.1720
      4 C         -12.1583   -4.4704   19.4660 C.3     1  UNL1        0.1653
      5 O         -12.1038   -3.0227   19.8547 O.3     1  UNL1       -0.3798
      6 C         -10.8890   -5.2221   19.1937 C.3     1  UNL1        0.1688
      7 O          -9.5654   -4.5261   19.3101 O.3     1  UNL1       -0.3794
      8 C         -10.9435   -6.6699   18.8050 C.3     1  UNL1        0.1746
      9 O         -12.2672   -7.3659   18.6886 O.3     1  UNL1       -0.3402
     10 C         -13.5363   -6.6142   18.9609 C.3     1  UNL1        0.1938
     11 S         -14.9768   -7.0310   18.9264 S.3     1  UNL1       -0.0497
     12 H         -11.1794   -2.7302   19.8836 H       1  UNL1        0.2105
     13 H          -9.7077   -3.6018   19.5678 H       1  UNL1        0.2105
     14 C          -9.6744   -7.4216   18.5327 C.3     1  UNL1        0.1693
     15 O          -9.7298   -8.7903   17.9217 O.3     1  UNL1       -0.3794
     16 H         -10.1523   -9.4046   18.5422 H       1  UNL1        0.2105
     17 N         -17.3096   -5.8087   19.3838 N.pl3   1  UNL1       -0.3135
     18 H         -17.7707   -4.9716   19.6202 H       1  UNL1        0.1487
     19 C         -18.4673   -7.9701   20.2430 C.3     1  UNL1        0.0230
     20 C         -18.1041   -7.0520   19.1138 C.3     1  UNL1        0.0887
@<TRIPOS>BOND
     1    19    20    1
     2    20    17    1
     3    17     1    1
     4     1     2    2
     5     3     2    1
     6     3     4    1
     7     4     5    1
     8     4     6    1
     9     6     7    1
    10     6     8    1
    11     8    14    1
    12    14    15    1
    13     8     9    1
    14    10     9    1
    15    10    11    1
    16    11     1    1
    17    10     3    1
    18    17    18    1
    19     5    12    1
    20     7    13    1
    21    15    16    1
@<TRIPOS>MOLECULE
*****
 20 21 0 0 0
SMALL
GASTEIGER

@<TRIPOS>ATOM
      1 C          -7.9992  -15.7912   24.7819 C.2     1  UNL1        0.1535
      2 N          -8.9958  -16.8587   25.1242 N.2     1  UNL1       -0.2470
      3 C          -9.3103  -17.6188   23.8699 C.3     1  UNL1        0.1720
      4 C         -10.2235  -18.7779   23.6010 C.3     1  UNL1        0.1653
      5 O         -11.0259  -19.3756   24.7186 O.3     1  UNL1       -0.3798
      6 C         -10.3345  -19.3394   22.2144 C.3     1  UNL1        0.1688
      7 O         -11.2477  -20.4985   21.9455 O.3     1  UNL1       -0.3794
      8 C          -9.5322  -18.7417   21.0968 C.3     1  UNL1        0.1746
      9 O          -8.6189  -17.5825   21.3658 O.3     1  UNL1       -0.3402
     10 C          -8.5080  -17.0211   22.7523 C.3     1  UNL1        0.1938
     11 S          -7.6977  -15.8916   23.3159 S.3     1  UNL1       -0.0497
     12 H         -11.5593  -20.1101   24.3767 H       1  UNL1        0.2105
     13 H         -11.6879  -20.7611   22.7690 H       1  UNL1        0.2105
     14 C          -9.6431  -19.3031   19.7103 C.3     1  UNL1        0.1693
     15 O          -8.4552  -19.2803   18.7946 O.3     1  UNL1       -0.3794
     16 H          -8.2299  -18.3615   18.5801 H       1  UNL1        0.2105
     17 N          -7.4079  -14.7978   25.7377 N.pl3   1  UNL1       -0.3135
     18 H          -7.7503  -13.8752   25.7631 H       1  UNL1        0.1487
     19 C          -5.0505  -15.8308   26.0920 C.3     1  UNL1        0.0230
     20 C          -6.2948  -15.2102   26.6546 C.3     1  UNL1        0.0887
@<TRIPOS>BOND
     1    19    20    1
     2    20    17    1
     3    17     1    1
     4     1     2    2
     5     3     2    1
     6     3     4    1
     7     4     5    1
     8     4     6    1
     9     6     7    1
    10     6     8    1
    11     8    14    1
    12    14    15    1
    13     8     9    1
    14    10     9    1
    15    10    11    1
    16    11     1    1
    17    10     3    1
    18    17    18    1
    19     5    12    1
    20     7    13    1
    21    15    16    1
@<TRIPOS>MOLECULE
*****
 20 21 0 0 0
SMALL
GASTEIGER

@<TRIPOS>ATOM
      1 C          -3.6919  -17.5004   22.7150 C.2     1  UNL1        0.1535
      2 N          -4.3654  -16.3175   23.3454 N.2     1  UNL1       -0.2470
      3 C          -5.8395  -16.5918   23.3882 C.3     1  UNL1        0.1720
      4 C          -6.9961  -15.7848   23.8991 C.3     1  UNL1        0.1653
      5 O          -6.7585  -14.4325   24.5030 O.3     1  UNL1       -0.3798
      6 C          -8.3904  -16.3302   23.8060 C.3     1  UNL1        0.1688
      7 O          -9.5470  -15.5232   24.3168 O.3     1  UNL1       -0.3794
      8 C          -8.6280  -17.6825   23.2020 C.3     1  UNL1        0.1746
      9 O          -7.4713  -18.4894   22.6911 O.3     1  UNL1       -0.3402
     10 C          -6.0771  -17.9441   22.7842 C.3     1  UNL1        0.1938
     11 S          -4.7498  -18.5056   22.3682 S.3     1  UNL1       -0.0497
     12 H          -7.6052  -14.0489   24.7803 H       1  UNL1        0.2105
     13 H          -9.2219  -14.6813   24.6723 H       1  UNL1        0.2105
     14 C         -10.0222  -18.2278   23.1089 C.3     1  UNL1        0.1693
     15 O         -11.1632  -17.3156   22.7683 O.3     1  UNL1       -0.3794
     16 H         -11.2878  -16.6727   23.4839 H       1  UNL1        0.2105
     17 N          -2.2191  -17.6514   22.4738 N.pl3   1  UNL1       -0.3135
     18 H          -1.6598  -18.1301   23.1275 H       1  UNL1        0.1487
     19 C          -1.0202  -17.9818   20.1928 C.3     1  UNL1        0.0230
     20 C          -1.5986  -17.0731   21.2367 C.3     1  UNL1        0.0887
@<TRIPOS>BOND
     1    19    20    1
     2    20    17    1
     3    17     1    1
     4     1     2    2
     5     3     2    1
     6     3     4    1
     7     4     5    1
     8     4     6    1
     9     6     7    1
    10     6     8    1
    11     8    14    1
    12    14    15    1
    13     8     9    1
    14    10     9    1
    15    10    11    1
    16    11     1    1
    17    10     3    1
    18    17    18    1
    19     5    12    1
    20     7    13    1
    21    15    16    1
