@<TRIPOS>MOLECULE
*****
 21 23 0 0 0
SMALL
GASTEIGER

@<TRIPOS>ATOM
      1 C          -8.3986  -17.2530   22.0478 C.3     1  UNL1        0.1894
      2 C          -9.8820  -17.4153   22.2003 C.ar    1  UNL1        0.0172
      3 C         -10.8052  -16.9161   21.1285 C.ar    1  UNL1       -0.0008
      4 C         -12.2886  -17.0784   21.2810 C.ar    1  UNL1       -0.0002
      5 C         -12.8488  -17.7399   22.5051 C.ar    1  UNL1       -0.0000
      6 C         -11.9256  -18.2390   23.5769 C.ar    1  UNL1       -0.0002
      7 C         -10.4422  -18.0767   23.4245 C.ar    1  UNL1       -0.0008
      8 C          -7.5680  -18.3930   21.5374 C.3     1  UNL1        0.0615
      9 C          -6.2702  -18.8684   22.1204 C.3     1  UNL1        0.0224
     10 C          -5.7894  -20.0270   21.2978 C.3     1  UNL1        0.0687
     11 N          -6.7900  -20.2675   20.2064 N.3     1  UNL1       -0.2973
     12 C          -7.8892  -19.2576   20.3545 C.3     1  UNL1        0.0725
     13 H          -7.1721  -21.2096   20.2886 H       1  UNL1        0.1232
     14 O          -7.7459  -15.9508   22.4057 O.3     1  UNL1       -0.4747
     15 CL         -8.4905  -15.3644   27.5147 Cl      1  UNL1       -0.0821
     16 C          -7.5636  -15.4504   26.3385 C.ar    1  UNL1        0.0607
     17 C          -6.0823  -15.3294   26.5404 C.ar    1  UNL1        0.0116
     18 C          -5.1554  -15.4155   25.3642 C.ar    1  UNL1        0.0040
     19 C          -5.7099  -15.6226   23.9860 C.ar    1  UNL1        0.0370
     20 C          -7.1913  -15.7436   23.7840 C.ar    1  UNL1        0.1397
     21 C          -8.1182  -15.6576   24.9602 C.ar    1  UNL1        0.0483
@<TRIPOS>BOND
     1    15    16    1
     2    16    17   ar
     3    17    18   ar
     4    18    19   ar
     5    19    20   ar
     6    20    14    1
     7     1    14    1
     8     1     2    1
     9     2     3   ar
    10     3     4   ar
    11     4     5   ar
    12     5     6   ar
    13     6     7   ar
    14     1     8    1
    15     8     9    1
    16     9    10    1
    17    10    11    1
    18    11    12    1
    19    20    21   ar
    20    21    16   ar
    21     7     2   ar
    22    12     8    1
    23    11    13    1
@<TRIPOS>MOLECULE
*****
 21 23 0 0 0
SMALL
GASTEIGER

@<TRIPOS>ATOM
      1 C          -9.9308  -17.3509   22.3521 C.3     1  UNL1        0.1894
      2 C          -9.4064  -18.2501   21.2720 C.ar    1  UNL1        0.0172
      3 C         -10.3404  -18.8010   20.2356 C.ar    1  UNL1       -0.0008
      4 C          -9.8161  -19.7002   19.1555 C.ar    1  UNL1       -0.0002
      5 C          -8.3577  -20.0484   19.1118 C.ar    1  UNL1       -0.0000
      6 C          -7.4237  -19.4975   20.1483 C.ar    1  UNL1       -0.0002
      7 C          -7.9480  -18.5983   21.2283 C.ar    1  UNL1       -0.0008
      8 C         -11.0963  -17.7861   23.1902 C.3     1  UNL1        0.0615
      9 C         -12.5386  -17.4694   22.9268 C.3     1  UNL1        0.0224
     10 C         -13.3578  -18.1020   24.0126 C.3     1  UNL1        0.0687
     11 N         -12.4216  -18.8096   24.9470 N.3     1  UNL1       -0.2973
     12 C         -11.0240  -18.6144   24.4387 C.3     1  UNL1        0.0725
     13 H         -12.6447  -19.8046   24.9728 H       1  UNL1        0.1232
     14 O          -9.2897  -16.0166   22.5941 O.3     1  UNL1       -0.4747
     15 CL         -8.3666  -15.2888   27.6555 Cl      1  UNL1       -0.0821
     16 C          -7.8594  -15.4803   26.2569 C.ar    1  UNL1        0.0607
     17 C          -6.3834  -15.4995   25.9905 C.ar    1  UNL1        0.0116
     18 C          -5.8762  -15.6911   24.5919 C.ar    1  UNL1        0.0040
     19 C          -6.8449  -15.8635   23.4598 C.ar    1  UNL1        0.0370
     20 C          -8.3209  -15.8442   23.7262 C.ar    1  UNL1        0.1397
     21 C          -8.8281  -15.6527   25.1248 C.ar    1  UNL1        0.0483
@<TRIPOS>BOND
     1    15    16    1
     2    16    17   ar
     3    17    18   ar
     4    18    19   ar
     5    19    20   ar
     6    20    14    1
     7     1    14    1
     8     1     2    1
     9     2     3   ar
    10     3     4   ar
    11     4     5   ar
    12     5     6   ar
    13     6     7   ar
    14     1     8    1
    15     8     9    1
    16     9    10    1
    17    10    11    1
    18    11    12    1
    19    20    21   ar
    20    21    16   ar
    21     7     2   ar
    22    12     8    1
    23    11    13    1
@<TRIPOS>MOLECULE
*****
 21 23 0 0 0
SMALL
GASTEIGER

@<TRIPOS>ATOM
      1 C          -7.7082  -18.0981   22.7413 C.3     1  UNL1        0.1894
      2 C          -6.3920  -18.4580   22.1183 C.ar    1  UNL1        0.0172
      3 C          -6.3523  -19.0661   20.7477 C.ar    1  UNL1       -0.0008
      4 C          -5.0361  -19.4259   20.1247 C.ar    1  UNL1       -0.0002
      5 C          -3.7596  -19.1777   20.8723 C.ar    1  UNL1       -0.0000
      6 C          -3.7993  -18.5696   22.2430 C.ar    1  UNL1       -0.0002
      7 C          -5.1155  -18.2097   22.8660 C.ar    1  UNL1       -0.0008
      8 C          -7.8610  -16.7976   23.4730 C.3     1  UNL1        0.0615
      9 C          -8.4231  -16.6230   24.8527 C.3     1  UNL1        0.0224
     10 C          -8.3881  -15.1608   25.1859 C.3     1  UNL1        0.0687
     11 N          -7.8044  -14.4318   24.0120 N.3     1  UNL1       -0.2973
     12 C          -7.4786  -15.4434   22.9534 C.3     1  UNL1        0.0725
     13 H          -6.9557  -13.9422   24.2958 H       1  UNL1        0.1232
     14 O          -8.8715  -19.0387   22.6327 O.3     1  UNL1       -0.4747
     15 CL        -13.7955  -17.9755   23.9073 Cl      1  UNL1       -0.0821
     16 C         -12.6885  -17.9841   22.8951 C.ar    1  UNL1        0.0607
     17 C         -12.9364  -17.4696   21.5081 C.ar    1  UNL1        0.0116
     18 C         -11.8294  -17.4782   20.4960 C.ar    1  UNL1        0.0040
     19 C         -10.4745  -18.0012   20.8708 C.ar    1  UNL1        0.0370
     20 C         -10.2265  -18.5157   22.2578 C.ar    1  UNL1        0.1397
     21 C         -11.3335  -18.5071   23.2700 C.ar    1  UNL1        0.0483
@<TRIPOS>BOND
     1    15    16    1
     2    16    17   ar
     3    17    18   ar
     4    18    19   ar
     5    19    20   ar
     6    20    14    1
     7     1    14    1
     8     1     2    1
     9     2     3   ar
    10     3     4   ar
    11     4     5   ar
    12     5     6   ar
    13     6     7   ar
    14     1     8    1
    15     8     9    1
    16     9    10    1
    17    10    11    1
    18    11    12    1
    19    20    21   ar
    20    21    16   ar
    21     7     2   ar
    22    12     8    1
    23    11    13    1
@<TRIPOS>MOLECULE
*****
 21 23 0 0 0
SMALL
GASTEIGER

@<TRIPOS>ATOM
      1 C          -7.7284  -16.6559   23.1789 C.3     1  UNL1        0.1894
      2 C          -7.4044  -16.1606   24.5572 C.ar    1  UNL1        0.0172
      3 C          -8.4447  -16.2126   25.6366 C.ar    1  UNL1       -0.0008
      4 C          -8.1207  -15.7173   27.0149 C.ar    1  UNL1       -0.0002
      5 C          -6.7565  -15.1702   27.3138 C.ar    1  UNL1       -0.0000
      6 C          -5.7161  -15.1182   26.2344 C.ar    1  UNL1       -0.0002
      7 C          -6.0401  -15.6134   24.8561 C.ar    1  UNL1       -0.0008
      8 C          -7.1204  -17.9326   22.6785 C.3     1  UNL1        0.0615
      9 C          -7.8645  -19.1908   22.3419 C.3     1  UNL1        0.0224
     10 C          -6.8655  -20.2111   21.8822 C.3     1  UNL1        0.0687
     11 N          -5.5042  -19.5834   21.9347 N.3     1  UNL1       -0.2973
     12 C          -5.6617  -18.1752   22.4268 C.3     1  UNL1        0.0725
     13 H          -5.0884  -19.5801   21.0033 H       1  UNL1        0.1232
     14 O          -8.6604  -15.8744   22.3010 O.3     1  UNL1       -0.4747
     15 CL        -12.9906  -18.2072   23.9765 Cl      1  UNL1       -0.0821
     16 C         -12.2118  -17.5498   22.8759 C.ar    1  UNL1        0.0607
     17 C         -12.8193  -17.4014   21.5126 C.ar    1  UNL1        0.0116
     18 C         -12.0405  -16.7440   20.4119 C.ar    1  UNL1        0.0040
     19 C         -10.6542  -16.2350   20.6747 C.ar    1  UNL1        0.0370
     20 C         -10.0467  -16.3834   22.0381 C.ar    1  UNL1        0.1397
     21 C         -10.8255  -17.0408   23.1387 C.ar    1  UNL1        0.0483
@<TRIPOS>BOND
     1    15    16    1
     2    16    17   ar
     3    17    18   ar
     4    18    19   ar
     5    19    20   ar
     6    20    14    1
     7     1    14    1
     8     1     2    1
     9     2     3   ar
    10     3     4   ar
    11     4     5   ar
    12     5     6   ar
    13     6     7   ar
    14     1     8    1
    15     8     9    1
    16     9    10    1
    17    10    11    1
    18    11    12    1
    19    20    21   ar
    20    21    16   ar
    21     7     2   ar
    22    12     8    1
    23    11    13    1
@<TRIPOS>MOLECULE
*****
 21 23 0 0 0
SMALL
GASTEIGER

@<TRIPOS>ATOM
      1 C          -8.4190  -17.0947   22.0265 C.3     1  UNL1        0.1894
      2 C          -7.6208  -18.2720   21.5502 C.ar    1  UNL1        0.0172
      3 C          -6.3379  -18.6358   22.2371 C.ar    1  UNL1       -0.0008
      4 C          -5.5398  -19.8131   21.7608 C.ar    1  UNL1       -0.0002
      5 C          -6.0245  -20.6267   20.5976 C.ar    1  UNL1       -0.0000
      6 C          -7.3075  -20.2630   19.9106 C.ar    1  UNL1       -0.0002
      7 C          -8.1056  -19.0856   20.3869 C.ar    1  UNL1       -0.0008
      8 C          -9.9141  -17.1852   22.1066 C.3     1  UNL1        0.0615
      9 C         -10.7022  -17.7795   23.2361 C.3     1  UNL1        0.0224
     10 C         -12.1588  -17.6589   22.8988 C.3     1  UNL1        0.0687
     11 N         -12.2710  -16.9899   21.5608 N.3     1  UNL1       -0.2973
     12 C         -10.8837  -16.6972   21.0713 C.3     1  UNL1        0.0725
     13 H         -12.7967  -16.1205   21.6515 H       1  UNL1        0.1232
     14 O          -7.7220  -15.8270   22.4227 O.3     1  UNL1       -0.4747
     15 CL         -8.4942  -15.6261   27.5573 Cl      1  UNL1       -0.0821
     16 C          -7.5662  -15.5716   26.3801 C.ar    1  UNL1        0.0607
     17 C          -6.0962  -15.3620   26.5929 C.ar    1  UNL1        0.0116
     18 C          -5.1682  -15.3075   25.4158 C.ar    1  UNL1        0.0040
     19 C          -5.7101  -15.4625   24.0257 C.ar    1  UNL1        0.0370
     20 C          -7.1800  -15.6720   23.8129 C.ar    1  UNL1        0.1397
     21 C          -8.1081  -15.7265   24.9900 C.ar    1  UNL1        0.0483
@<TRIPOS>BOND
     1    15    16    1
     2    16    17   ar
     3    17    18   ar
     4    18    19   ar
     5    19    20   ar
     6    20    14    1
     7     1    14    1
     8     1     2    1
     9     2     3   ar
    10     3     4   ar
    11     4     5   ar
    12     5     6   ar
    13     6     7   ar
    14     1     8    1
    15     8     9    1
    16     9    10    1
    17    10    11    1
    18    11    12    1
    19    20    21   ar
    20    21    16   ar
    21     7     2   ar
    22    12     8    1
    23    11    13    1
@<TRIPOS>MOLECULE
*****
 21 23 0 0 0
SMALL
GASTEIGER

@<TRIPOS>ATOM
      1 C          -9.0208  -16.6707   23.0033 C.3     1  UNL1        0.1894
      2 C         -10.4395  -17.1032   23.2282 C.ar    1  UNL1        0.0172
      3 C         -11.5654  -16.3389   22.5974 C.ar    1  UNL1       -0.0008
      4 C         -12.9840  -16.7713   22.8222 C.ar    1  UNL1       -0.0002
      5 C         -13.2767  -17.9681   23.6778 C.ar    1  UNL1       -0.0000
      6 C         -12.1506  -18.7325   24.3086 C.ar    1  UNL1       -0.0002
      7 C         -10.7320  -18.3000   24.0838 C.ar    1  UNL1       -0.0008
      8 C          -8.2457  -16.0325   24.1178 C.3     1  UNL1        0.0615
      9 C          -8.4835  -16.2339   25.5851 C.3     1  UNL1        0.0224
     10 C          -7.4815  -15.4068   26.3348 C.3     1  UNL1        0.0687
     11 N          -6.6245  -14.6943   25.3308 N.3     1  UNL1       -0.2973
     12 C          -7.0969  -15.0810   23.9606 C.3     1  UNL1        0.0725
     13 H          -5.6495  -14.9687   25.4511 H       1  UNL1        0.1232
     14 O          -8.3773  -16.8765   21.6641 O.3     1  UNL1       -0.4747
     15 CL         -4.0456  -19.5669   22.6632 Cl      1  UNL1       -0.0821
     16 C          -5.3434  -19.4214   21.9251 C.ar    1  UNL1        0.0607
     17 C          -5.7729  -20.4757   20.9484 C.ar    1  UNL1        0.0116
     18 C          -7.0706  -20.3303   20.2103 C.ar    1  UNL1        0.0040
     19 C          -7.9388  -19.1305   20.4488 C.ar    1  UNL1        0.0370
     20 C          -7.5092  -18.0763   21.4255 C.ar    1  UNL1        0.1397
     21 C          -6.2115  -18.2217   22.1636 C.ar    1  UNL1        0.0483
@<TRIPOS>BOND
     1    15    16    1
     2    16    17   ar
     3    17    18   ar
     4    18    19   ar
     5    19    20   ar
     6    20    14    1
     7     1    14    1
     8     1     2    1
     9     2     3   ar
    10     3     4   ar
    11     4     5   ar
    12     5     6   ar
    13     6     7   ar
    14     1     8    1
    15     8     9    1
    16     9    10    1
    17    10    11    1
    18    11    12    1
    19    20    21   ar
    20    21    16   ar
    21     7     2   ar
    22    12     8    1
    23    11    13    1
@<TRIPOS>MOLECULE
*****
 21 23 0 0 0
SMALL
GASTEIGER

@<TRIPOS>ATOM
      1 C          -8.1525  -17.6957   22.6342 C.3     1  UNL1        0.1894
      2 C          -9.2871  -17.5834   21.6595 C.ar    1  UNL1        0.0172
      3 C          -9.5943  -18.7214   20.7318 C.ar    1  UNL1       -0.0008
      4 C         -10.7289  -18.6091   19.7571 C.ar    1  UNL1       -0.0002
      5 C         -11.5564  -17.3589   19.7101 C.ar    1  UNL1       -0.0000
      6 C         -11.2492  -16.2209   20.6379 C.ar    1  UNL1       -0.0002
      7 C         -10.1146  -16.3331   21.6126 C.ar    1  UNL1       -0.0008
      8 C          -7.8963  -16.5921   23.6174 C.3     1  UNL1        0.0615
      9 C          -8.5214  -16.4577   24.9743 C.3     1  UNL1        0.0224
     10 C          -7.9816  -15.2117   25.6118 C.3     1  UNL1        0.0687
     11 N          -7.0230  -14.5763   24.6488 N.3     1  UNL1       -0.2973
     12 C          -6.9703  -15.4294   23.4162 C.3     1  UNL1        0.0725
     13 H          -6.0958  -14.5193   25.0702 H       1  UNL1        0.1232
     14 O          -7.2740  -18.9115   22.6257 O.3     1  UNL1       -0.4747
     15 CL         -2.1627  -17.9840   22.7456 Cl      1  UNL1       -0.0821
     16 C          -3.3887  -18.4075   21.9924 C.ar    1  UNL1        0.0607
     17 C          -3.2853  -18.7908   20.5459 C.ar    1  UNL1        0.0116
     18 C          -4.5113  -19.2144   19.7927 C.ar    1  UNL1        0.0040
     19 C          -5.8409  -19.2546   20.4859 C.ar    1  UNL1        0.0370
     20 C          -5.9444  -18.8713   21.9324 C.ar    1  UNL1        0.1397
     21 C          -4.7183  -18.4478   22.6856 C.ar    1  UNL1        0.0483
@<TRIPOS>BOND
     1    15    16    1
     2    16    17   ar
     3    17    18   ar
     4    18    19   ar
     5    19    20   ar
     6    20    14    1
     7     1    14    1
     8     1     2    1
     9     2     3   ar
    10     3     4   ar
    11     4     5   ar
    12     5     6   ar
    13     6     7   ar
    14     1     8    1
    15     8     9    1
    16     9    10    1
    17    10    11    1
    18    11    12    1
    19    20    21   ar
    20    21    16   ar
    21     7     2   ar
    22    12     8    1
    23    11    13    1
@<TRIPOS>MOLECULE
*****
 21 23 0 0 0
SMALL
GASTEIGER

@<TRIPOS>ATOM
      1 C          -7.3871  -18.2250   21.6374 C.3     1  UNL1        0.1894
      2 C          -8.7038  -18.9422   21.6827 C.ar    1  UNL1        0.0172
      3 C          -9.1777  -19.5599   22.9648 C.ar    1  UNL1       -0.0008
      4 C         -10.4944  -20.2770   23.0100 C.ar    1  UNL1       -0.0002
      5 C         -11.3371  -20.3765   21.7732 C.ar    1  UNL1       -0.0000
      6 C         -10.8632  -19.7588   20.4910 C.ar    1  UNL1       -0.0002
      7 C          -9.5466  -19.0416   20.4457 C.ar    1  UNL1       -0.0008
      8 C          -6.1316  -18.9815   21.3189 C.3     1  UNL1        0.0615
      9 C          -5.9525  -19.9594   20.1956 C.3     1  UNL1        0.0224
     10 C          -4.5449  -20.4752   20.2502 C.3     1  UNL1        0.0687
     11 N          -3.8543  -19.8161   21.4072 N.3     1  UNL1       -0.2973
     12 C          -4.8349  -18.8929   22.0676 C.3     1  UNL1        0.0725
     13 H          -3.0499  -19.2851   21.0733 H       1  UNL1        0.1232
     14 O          -7.3260  -16.7514   21.9106 O.3     1  UNL1       -0.4747
     15 CL         -5.0624  -14.9855   26.2417 Cl      1  UNL1       -0.0821
     16 C          -6.3010  -15.3616   25.4839 C.ar    1  UNL1        0.0607
     17 C          -7.6466  -15.2309   26.1338 C.ar    1  UNL1        0.0116
     18 C          -8.8852  -15.6070   25.3760 C.ar    1  UNL1        0.0040
     19 C          -8.7784  -16.1138   23.9683 C.ar    1  UNL1        0.0370
     20 C          -7.4329  -16.2445   23.3184 C.ar    1  UNL1        0.1397
     21 C          -6.1942  -15.8684   24.0762 C.ar    1  UNL1        0.0483
@<TRIPOS>BOND
     1    15    16    1
     2    16    17   ar
     3    17    18   ar
     4    18    19   ar
     5    19    20   ar
     6    20    14    1
     7     1    14    1
     8     1     2    1
     9     2     3   ar
    10     3     4   ar
    11     4     5   ar
    12     5     6   ar
    13     6     7   ar
    14     1     8    1
    15     8     9    1
    16     9    10    1
    17    10    11    1
    18    11    12    1
    19    20    21   ar
    20    21    16   ar
    21     7     2   ar
    22    12     8    1
    23    11    13    1
@<TRIPOS>MOLECULE
*****
 21 23 0 0 0
SMALL
GASTEIGER

@<TRIPOS>ATOM
      1 C          -8.3510  -16.5924   23.7306 C.3     1  UNL1        0.1894
      2 C          -9.7455  -17.1428   23.6819 C.ar    1  UNL1        0.0172
      3 C         -10.0734  -18.4195   24.3978 C.ar    1  UNL1       -0.0008
      4 C         -11.4679  -18.9699   24.3491 C.ar    1  UNL1       -0.0002
      5 C         -12.5346  -18.2437   23.5845 C.ar    1  UNL1       -0.0000
      6 C         -12.2068  -16.9669   22.8685 C.ar    1  UNL1       -0.0002
      7 C         -10.8123  -16.4165   22.9172 C.ar    1  UNL1       -0.0008
      8 C          -7.8192  -16.0088   25.0060 C.3     1  UNL1        0.0615
      9 C          -8.4209  -16.1752   26.3699 C.3     1  UNL1        0.0224
     10 C          -7.5659  -15.4256   27.3483 C.3     1  UNL1        0.0687
     11 N          -6.4358  -14.7960   26.5890 N.3     1  UNL1       -0.2973
     12 C          -6.5924  -15.1564   25.1414 C.3     1  UNL1        0.0725
     13 H          -5.5448  -15.1483   26.9390 H       1  UNL1        0.1232
     14 O          -7.4884  -16.6255   22.5039 O.3     1  UNL1       -0.4747
     15 CL         -6.0019  -21.1425   20.4093 Cl      1  UNL1       -0.0821
     16 C          -5.7168  -19.9635   21.2918 C.ar    1  UNL1        0.0607
     17 C          -4.4034  -19.8641   22.0095 C.ar    1  UNL1        0.0116
     18 C          -4.1184  -18.6851   22.8920 C.ar    1  UNL1        0.0040
     19 C          -5.1466  -17.6056   23.0568 C.ar    1  UNL1        0.0370
     20 C          -6.4600  -17.7050   22.3391 C.ar    1  UNL1        0.1397
     21 C          -6.7451  -18.8840   21.4566 C.ar    1  UNL1        0.0483
@<TRIPOS>BOND
     1    15    16    1
     2    16    17   ar
     3    17    18   ar
     4    18    19   ar
     5    19    20   ar
     6    20    14    1
     7     1    14    1
     8     1     2    1
     9     2     3   ar
    10     3     4   ar
    11     4     5   ar
    12     5     6   ar
    13     6     7   ar
    14     1     8    1
    15     8     9    1
    16     9    10    1
    17    10    11    1
    18    11    12    1
    19    20    21   ar
    20    21    16   ar
    21     7     2   ar
    22    12     8    1
    23    11    13    1
