@<TRIPOS>MOLECULE
*****
 35 38 0 0 0
SMALL
GASTEIGER

@<TRIPOS>ATOM
      1 N           7.1509   -5.6500   25.8601 N.am    1  UNL1       -0.2805
      2 C           8.0574   -4.8059   25.0141 C.2     1  UNL1        0.2538
      3 O           9.1527   -4.0065   25.6555 O.2     1  UNL1       -0.2697
      4 H           6.4321   -6.1747   25.4391 H       1  UNL1        0.1552
      5 C           7.8688   -4.7613   23.5266 C.ar    1  UNL1        0.1056
      6 C           8.6095   -5.5891   22.5187 C.ar    1  UNL1        0.1279
      7 N           8.1048   -5.2204   21.1551 N.ar    1  UNL1       -0.1621
      8 N           7.0520   -4.1647   21.3203 N.ar    1  UNL1       -0.2141
      9 C           6.9062   -3.8809   22.7861 C.ar    1  UNL1        0.1328
     10 N           5.9633   -2.8907   23.4029 N.pl3   1  UNL1       -0.3424
     11 H           5.3670   -2.3562   22.8302 H       1  UNL1        0.1437
     12 H           5.9408   -2.7753   24.3803 H       1  UNL1        0.1437
     13 C           6.2806   -3.5080   20.2141 C.ar    1  UNL1        0.1115
     14 C           6.9924   -2.6516   19.2092 C.ar    1  UNL1        0.0215
     15 C           6.2210   -1.9949   18.1030 C.ar    1  UNL1        0.0017
     16 C           4.7378   -2.1947   18.0017 C.ar    1  UNL1        0.0024
     17 C           4.0260   -3.0512   19.0066 C.ar    1  UNL1        0.0312
     18 C           4.7974   -3.7078   20.1128 C.ar    1  UNL1        0.1577
     19 F           4.0857   -4.5643   21.1178 F       1  UNL1       -0.2026
     20 C           8.6846   -7.9048   27.1107 C.3     1  UNL1        0.0323
     21 C           8.1064   -6.8220   27.9728 C.ar    1  UNL1       -0.0084
     22 C           8.2950   -6.8666   29.4602 C.ar    1  UNL1       -0.0029
     23 C           7.7169   -5.7838   30.3223 C.ar    1  UNL1        0.0043
     24 C           6.9500   -4.6564   29.6971 C.ar    1  UNL1        0.0549
     25 C           6.7614   -4.6118   28.2097 C.ar    1  UNL1        0.0189
     26 C           7.3396   -5.6946   27.3476 C.ar    1  UNL1        0.0467
     27 C           6.3719   -3.5737   30.5592 C.2     1  UNL1        0.2507
     28 O           6.1514   -2.2020   29.9936 O.2     1  UNL1       -0.2698
     29 N           6.0141   -3.8625   31.9870 N.am    1  UNL1       -0.2632
     30 H           6.1588   -4.7628   32.3582 H       1  UNL1        0.1567
     31 C           5.4359   -2.7797   32.8491 C.ar    1  UNL1        0.1767
     32 C           6.1479   -1.5403   33.3039 C.ar    1  UNL1        0.0812
     33 C           5.1962   -0.7408   34.1437 C.ar    1  UNL1        0.2152
     34 O           3.8961   -1.4862   34.2080 O.2     1  UNL1       -0.3489
     35 N           4.0442   -2.7464   33.4079 N.ar    1  UNL1       -0.0616
@<TRIPOS>BOND
     1    20    21    1
     2    21    22   ar
     3    22    23   ar
     4    23    24   ar
     5    24    27    1
     6    27    28    2
     7    27    29   am
     8    29    31    1
     9    31    32   ar
    10    32    33   ar
    11    33    34   ar
    12    34    35   ar
    13    24    25   ar
    14    25    26   ar
    15    26     1    1
    16     1     2   am
    17     2     3    2
    18     2     5    1
    19     5     6   ar
    20     6     7   ar
    21     7     8   ar
    22     8    13    1
    23    13    14   ar
    24    14    15   ar
    25    15    16   ar
    26    16    17   ar
    27    17    18   ar
    28    18    19    1
    29     8     9   ar
    30     9    10    1
    31    26    21   ar
    32     9     5   ar
    33    35    31   ar
    34    18    13   ar
    35    29    30    1
    36     1     4    1
    37    10    11    1
    38    10    12    1
@<TRIPOS>MOLECULE
*****
 35 38 0 0 0
SMALL
GASTEIGER

@<TRIPOS>ATOM
      1 N           4.9179   -3.1127   20.5076 N.am    1  UNL1       -0.2805
      2 C           6.1767   -2.7594   21.2428 C.2     1  UNL1        0.2538
      3 O           6.6680   -1.3422   21.2508 O.2     1  UNL1       -0.2697
      4 H           4.5955   -4.0429   20.5023 H       1  UNL1        0.1552
      5 C           6.9442   -3.8234   21.9702 C.ar    1  UNL1        0.1056
      6 C           8.0166   -4.6933   21.3845 C.ar    1  UNL1        0.1279
      7 N           8.5092   -5.6117   22.4633 N.ar    1  UNL1       -0.1621
      8 N           7.7412   -5.3094   23.7159 N.ar    1  UNL1       -0.2141
      9 C           6.7739   -4.2040   23.4111 C.ar    1  UNL1        0.1328
     10 N           5.8064   -3.5877   24.3776 N.pl3   1  UNL1       -0.3424
     11 H           5.7689   -3.9075   25.3079 H       1  UNL1        0.1437
     12 H           5.2089   -2.8634   24.0815 H       1  UNL1        0.1437
     13 C           7.9107   -5.9924   25.0406 C.ar    1  UNL1        0.1115
     14 C           7.7121   -7.4751   25.1507 C.ar    1  UNL1        0.0215
     15 C           7.8816   -8.1581   26.4754 C.ar    1  UNL1        0.0017
     16 C           8.2497   -7.3583   27.6899 C.ar    1  UNL1        0.0024
     17 C           8.4483   -5.8756   27.5797 C.ar    1  UNL1        0.0312
     18 C           8.2788   -5.1927   26.2551 C.ar    1  UNL1        0.1577
     19 F           8.4773   -3.7099   26.1448 F       1  UNL1       -0.2026
     20 C           5.7738   -2.2571   17.7624 C.3     1  UNL1        0.0323
     21 C           4.5784   -1.6210   18.4076 C.ar    1  UNL1       -0.0084
     22 C           3.8109   -0.5571   17.6803 C.ar    1  UNL1       -0.0029
     23 C           2.6155    0.0791   18.3255 C.ar    1  UNL1        0.0043
     24 C           2.1875   -0.3487   19.6981 C.ar    1  UNL1        0.0549
     25 C           2.9550   -1.4126   20.4254 C.ar    1  UNL1        0.0189
     26 C           4.1504   -2.0487   19.7802 C.ar    1  UNL1        0.0467
     27 C           0.9921    0.2874   20.3433 C.2     1  UNL1        0.2507
     28 O          -0.1758   -0.5581   20.7567 O.2     1  UNL1       -0.2698
     29 N           0.9646    1.7691   20.5751 N.am    1  UNL1       -0.2632
     30 H           1.7312    2.3241   20.3037 H       1  UNL1        0.1567
     31 C          -0.2308    2.4053   21.2203 C.ar    1  UNL1        0.1767
     32 C          -0.2604    3.0605   22.5693 C.ar    1  UNL1        0.0812
     33 C          -1.6544    3.5581   22.8125 C.ar    1  UNL1        0.2152
     34 O          -2.4864    3.2104   21.6138 O.2     1  UNL1       -0.3489
     35 N          -1.6066    2.4979   20.6297 N.ar    1  UNL1       -0.0616
@<TRIPOS>BOND
     1    20    21    1
     2    21    22   ar
     3    22    23   ar
     4    23    24   ar
     5    24    27    1
     6    27    28    2
     7    27    29   am
     8    29    31    1
     9    31    32   ar
    10    32    33   ar
    11    33    34   ar
    12    34    35   ar
    13    24    25   ar
    14    25    26   ar
    15    26     1    1
    16     1     2   am
    17     2     3    2
    18     2     5    1
    19     5     6   ar
    20     6     7   ar
    21     7     8   ar
    22     8    13    1
    23    13    14   ar
    24    14    15   ar
    25    15    16   ar
    26    16    17   ar
    27    17    18   ar
    28    18    19    1
    29     8     9   ar
    30     9    10    1
    31    26    21   ar
    32     9     5   ar
    33    35    31   ar
    34    18    13   ar
    35    29    30    1
    36     1     4    1
    37    10    11    1
    38    10    12    1
@<TRIPOS>MOLECULE
*****
 35 38 0 0 0
SMALL
GASTEIGER

@<TRIPOS>ATOM
      1 N           7.0799   -5.6498   26.9506 N.am    1  UNL1       -0.2805
      2 C           7.9465   -4.9329   27.9432 C.2     1  UNL1        0.2538
      3 O           9.2869   -4.4050   27.5251 O.2     1  UNL1       -0.2697
      4 H           6.2002   -5.9962   27.2250 H       1  UNL1        0.1552
      5 C           7.4727   -4.7440   29.3538 C.ar    1  UNL1        0.1056
      6 C           7.3045   -5.8253   30.3797 C.ar    1  UNL1        0.1279
      7 N           6.8119   -5.1902   31.6461 N.ar    1  UNL1       -0.1621
      8 N           6.6756   -3.7162   31.4030 N.ar    1  UNL1       -0.2141
      9 C           7.0840   -3.4405   29.9861 C.ar    1  UNL1        0.1328
     10 N           7.1008   -2.0972   29.3189 N.pl3   1  UNL1       -0.3424
     11 H           6.8263   -1.2953   29.8198 H       1  UNL1        0.1437
     12 H           7.3864   -2.0173   28.3802 H       1  UNL1        0.1437
     13 C           6.2122   -2.6971   32.4012 C.ar    1  UNL1        0.1115
     14 C           4.7968   -2.7226   32.8972 C.ar    1  UNL1        0.0215
     15 C           4.3334   -1.7034   33.8954 C.ar    1  UNL1        0.0017
     16 C           5.2855   -0.6587   34.3977 C.ar    1  UNL1        0.0024
     17 C           6.7008   -0.6332   33.9018 C.ar    1  UNL1        0.0312
     18 C           7.1642   -1.6523   32.9035 C.ar    1  UNL1        0.1577
     19 F           8.5796   -1.6269   32.4074 F       1  UNL1       -0.2026
     20 C           8.5265   -8.1618   26.1778 C.3     1  UNL1        0.0323
     21 C           8.2769   -7.0947   25.1535 C.ar    1  UNL1       -0.0084
     22 C           8.7507   -7.2836   23.7429 C.ar    1  UNL1       -0.0029
     23 C           8.5011   -6.2165   22.7187 C.ar    1  UNL1        0.0043
     24 C           7.7779   -4.9605   23.1051 C.ar    1  UNL1        0.0549
     25 C           7.3042   -4.7716   24.5157 C.ar    1  UNL1        0.0189
     26 C           7.5537   -5.8387   25.5399 C.ar    1  UNL1        0.0467
     27 C           7.5283   -3.8934   22.0809 C.2     1  UNL1        0.2507
     28 O           8.6375   -2.9683   21.6760 O.2     1  UNL1       -0.2698
     29 N           6.1696   -3.7513   21.4616 N.am    1  UNL1       -0.2632
     30 H           5.4416   -4.3584   21.7273 H       1  UNL1        0.1567
     31 C           5.9201   -2.6842   20.4373 C.ar    1  UNL1        0.1767
     32 C           6.2897   -2.7521   18.9852 C.ar    1  UNL1        0.0812
     33 C           5.8552   -1.4717   18.3358 C.ar    1  UNL1        0.2152
     34 O           5.2170   -0.6124   19.3866 O.2     1  UNL1       -0.3489
     35 N           5.2571   -1.3617   20.6855 N.ar    1  UNL1       -0.0616
@<TRIPOS>BOND
     1    20    21    1
     2    21    22   ar
     3    22    23   ar
     4    23    24   ar
     5    24    27    1
     6    27    28    2
     7    27    29   am
     8    29    31    1
     9    31    32   ar
    10    32    33   ar
    11    33    34   ar
    12    34    35   ar
    13    24    25   ar
    14    25    26   ar
    15    26     1    1
    16     1     2   am
    17     2     3    2
    18     2     5    1
    19     5     6   ar
    20     6     7   ar
    21     7     8   ar
    22     8    13    1
    23    13    14   ar
    24    14    15   ar
    25    15    16   ar
    26    16    17   ar
    27    17    18   ar
    28    18    19    1
    29     8     9   ar
    30     9    10    1
    31    26    21   ar
    32     9     5   ar
    33    35    31   ar
    34    18    13   ar
    35    29    30    1
    36     1     4    1
    37    10    11    1
    38    10    12    1
@<TRIPOS>MOLECULE
*****
 35 38 0 0 0
SMALL
GASTEIGER

@<TRIPOS>ATOM
      1 N           0.2251    0.8741   21.0800 N.am    1  UNL1       -0.2805
      2 C           0.5074    2.1250   21.8581 C.2     1  UNL1        0.2538
      3 O           1.8697    2.7505   21.8043 O.2     1  UNL1       -0.2697
      4 H          -0.6690    0.4635   21.1154 H       1  UNL1        0.1552
      5 C          -0.5728    2.7505   22.6901 C.ar    1  UNL1        0.1056
      6 C          -0.5602    2.9016   24.1824 C.ar    1  UNL1        0.1279
      7 N          -1.8347    3.5792   24.5904 N.ar    1  UNL1       -0.1621
      8 N          -2.6350    3.8469   23.3502 N.ar    1  UNL1       -0.2141
      9 C          -1.8550    3.3347   22.1757 C.ar    1  UNL1        0.1328
     10 N          -2.2823    3.3960   20.7392 N.pl3   1  UNL1       -0.3424
     11 H          -3.1470    3.8013   20.4996 H       1  UNL1        0.1437
     12 H          -1.6981    3.0309   20.0358 H       1  UNL1        0.1437
     13 C          -3.9792    4.5103   23.2943 C.ar    1  UNL1        0.1115
     14 C          -4.1018    5.9804   23.5659 C.ar    1  UNL1        0.0215
     15 C          -5.4460    6.6438   23.5100 C.ar    1  UNL1        0.0017
     16 C          -6.6675    5.8371   23.1825 C.ar    1  UNL1        0.0024
     17 C          -6.5448    4.3670   22.9110 C.ar    1  UNL1        0.0312
     18 C          -5.2006    3.7036   22.9669 C.ar    1  UNL1        0.1577
     19 F          -5.0778    2.2335   22.6953 F       1  UNL1       -0.2026
     20 C           0.6831    1.8096   18.2666 C.3     1  UNL1        0.0323
     21 C           1.5342    0.7163   18.8414 C.ar    1  UNL1       -0.0084
     22 C           2.6143    0.0908   18.0095 C.ar    1  UNL1       -0.0029
     23 C           3.4654   -1.0025   18.5842 C.ar    1  UNL1        0.0043
     24 C           3.2364   -1.4703   19.9908 C.ar    1  UNL1        0.0549
     25 C           2.1563   -0.8448   20.8227 C.ar    1  UNL1        0.0189
     26 C           1.3052    0.2485   20.2480 C.ar    1  UNL1        0.0467
     27 C           4.0875   -2.5636   20.5656 C.2     1  UNL1        0.2507
     28 O           3.7705   -3.9982   20.2634 O.2     1  UNL1       -0.2698
     29 N           5.2556   -2.2223   21.4425 N.am    1  UNL1       -0.2632
     30 H           5.4637   -1.2807   21.6408 H       1  UNL1        0.1567
     31 C           6.1067   -3.3157   22.0172 C.ar    1  UNL1        0.1767
     32 C           6.2986   -3.6093   23.4756 C.ar    1  UNL1        0.0812
     33 C           7.2258   -4.7824   23.5942 C.ar    1  UNL1        0.2152
     34 O           7.6070   -5.2138   22.2091 O.2     1  UNL1       -0.3489
     35 N           6.9154   -4.3073   21.2344 N.ar    1  UNL1       -0.0616
@<TRIPOS>BOND
     1    20    21    1
     2    21    22   ar
     3    22    23   ar
     4    23    24   ar
     5    24    27    1
     6    27    28    2
     7    27    29   am
     8    29    31    1
     9    31    32   ar
    10    32    33   ar
    11    33    34   ar
    12    34    35   ar
    13    24    25   ar
    14    25    26   ar
    15    26     1    1
    16     1     2   am
    17     2     3    2
    18     2     5    1
    19     5     6   ar
    20     6     7   ar
    21     7     8   ar
    22     8    13    1
    23    13    14   ar
    24    14    15   ar
    25    15    16   ar
    26    16    17   ar
    27    17    18   ar
    28    18    19    1
    29     8     9   ar
    30     9    10    1
    31    26    21   ar
    32     9     5   ar
    33    35    31   ar
    34    18    13   ar
    35    29    30    1
    36     1     4    1
    37    10    11    1
    38    10    12    1
@<TRIPOS>MOLECULE
*****
 35 38 0 0 0
SMALL
GASTEIGER

@<TRIPOS>ATOM
      1 N           2.6615    1.6520   30.3866 N.am    1  UNL1       -0.2805
      2 C           1.3934    1.2585   29.6888 C.2     1  UNL1        0.2538
      3 O           0.8435   -0.1269   29.8571 O.2     1  UNL1       -0.2697
      4 H           3.0224    2.5613   30.2762 H       1  UNL1        0.1552
      5 C           0.6751    2.2505   28.8227 C.ar    1  UNL1        0.1056
      6 C           0.5694    3.7257   29.0728 C.ar    1  UNL1        0.1279
      7 N          -0.2346    4.3283   27.9591 N.ar    1  UNL1       -0.1621
      8 N          -0.6259    3.2255   27.0206 N.ar    1  UNL1       -0.2141
      9 C          -0.0637    1.9412   27.5543 C.ar    1  UNL1        0.1328
     10 N          -0.2138    0.5859   26.9294 N.pl3   1  UNL1       -0.3424
     11 H          -0.7201    0.4837   26.0913 H       1  UNL1        0.1437
     12 H           0.1939   -0.2014   27.3574 H       1  UNL1        0.1437
     13 C          -1.4370    3.3797   25.7683 C.ar    1  UNL1        0.1115
     14 C          -0.7615    3.3537   24.4293 C.ar    1  UNL1        0.0215
     15 C          -1.5726    3.5079   23.1770 C.ar    1  UNL1        0.0017
     16 C          -3.0592    3.6882   23.2637 C.ar    1  UNL1        0.0024
     17 C          -3.7347    3.7143   24.6027 C.ar    1  UNL1        0.0312
     18 C          -2.9236    3.5600   25.8550 C.ar    1  UNL1        0.1577
     19 F          -3.5991    3.5860   27.1941 F       1  UNL1       -0.2026
     20 C           2.2873    1.7110   33.3626 C.3     1  UNL1        0.0323
     21 C           3.1927    0.6895   32.7407 C.ar    1  UNL1       -0.0084
     22 C           3.9110   -0.3024   33.6067 C.ar    1  UNL1       -0.0029
     23 C           4.8165   -1.3238   32.9848 C.ar    1  UNL1        0.0043
     24 C           5.0036   -1.3534   31.4968 C.ar    1  UNL1        0.0549
     25 C           4.2853   -0.3614   30.6308 C.ar    1  UNL1        0.0189
     26 C           3.3799    0.6600   31.2527 C.ar    1  UNL1        0.0467
     27 C           5.9091   -2.3748   30.8749 C.2     1  UNL1        0.2507
     28 O           6.5625   -2.0930   29.5545 O.2     1  UNL1       -0.2698
     29 N           6.1610   -3.6781   31.5734 N.am    1  UNL1       -0.2632
     30 H           5.7322   -3.8631   32.4401 H       1  UNL1        0.1567
     31 C           7.0665   -4.6996   30.9515 C.ar    1  UNL1        0.1767
     32 C           8.4997   -4.9474   31.3184 C.ar    1  UNL1        0.0812
     33 C           9.0167   -6.0535   30.4472 C.ar    1  UNL1        0.2152
     34 O           7.9031   -6.4894   29.5417 O.2     1  UNL1       -0.3489
     35 N           6.6977   -5.6526   29.8533 N.ar    1  UNL1       -0.0616
@<TRIPOS>BOND
     1    20    21    1
     2    21    22   ar
     3    22    23   ar
     4    23    24   ar
     5    24    27    1
     6    27    28    2
     7    27    29   am
     8    29    31    1
     9    31    32   ar
    10    32    33   ar
    11    33    34   ar
    12    34    35   ar
    13    24    25   ar
    14    25    26   ar
    15    26     1    1
    16     1     2   am
    17     2     3    2
    18     2     5    1
    19     5     6   ar
    20     6     7   ar
    21     7     8   ar
    22     8    13    1
    23    13    14   ar
    24    14    15   ar
    25    15    16   ar
    26    16    17   ar
    27    17    18   ar
    28    18    19    1
    29     8     9   ar
    30     9    10    1
    31    26    21   ar
    32     9     5   ar
    33    35    31   ar
    34    18    13   ar
    35    29    30    1
    36     1     4    1
    37    10    11    1
    38    10    12    1
@<TRIPOS>MOLECULE
*****
 35 38 0 0 0
SMALL
GASTEIGER

@<TRIPOS>ATOM
      1 N           0.3195    1.0559   25.5184 N.am    1  UNL1       -0.2805
      2 C           1.2166    1.6674   26.5534 C.2     1  UNL1        0.2538
      3 O           2.4868    2.3481   26.1373 O.2     1  UNL1       -0.2697
      4 H          -0.5142    0.6091   25.7916 H       1  UNL1        0.1552
      5 C           0.8435    1.5982   28.0047 C.ar    1  UNL1        0.1056
      6 C          -0.1493    0.6543   28.6158 C.ar    1  UNL1        0.1279
      7 N          -0.2086    0.9335   30.0884 N.ar    1  UNL1       -0.1621
      8 N           0.7475    2.0499   30.3874 N.ar    1  UNL1       -0.2141
      9 C           1.3978    2.4608   29.0996 C.ar    1  UNL1        0.1328
     10 N           2.4224    3.5439   28.9355 N.pl3   1  UNL1       -0.3424
     11 H           2.7249    4.0581   29.7187 H       1  UNL1        0.1437
     12 H           2.7924    3.7407   28.0446 H       1  UNL1        0.1437
     13 C           1.0077    2.6502   31.7372 C.ar    1  UNL1        0.1115
     14 C           0.3686    3.9538   32.1141 C.ar    1  UNL1        0.0215
     15 C           0.6287    4.5540   33.4639 C.ar    1  UNL1        0.0017
     16 C           1.5280    3.8506   34.4368 C.ar    1  UNL1        0.0024
     17 C           2.1671    2.5470   34.0600 C.ar    1  UNL1        0.0312
     18 C           1.9070    1.9468   32.7101 C.ar    1  UNL1        0.1577
     19 F           2.5460    0.6431   32.3331 F       1  UNL1       -0.2026
     20 C          -0.7488    3.2699   23.7989 C.3     1  UNL1        0.0323
     21 C           0.1584    2.2321   23.2074 C.ar    1  UNL1       -0.0084
     22 C           0.5315    2.3013   21.7563 C.ar    1  UNL1       -0.0029
     23 C           1.4388    1.2635   21.1648 C.ar    1  UNL1        0.0043
     24 C           1.9730    0.1565   22.0245 C.ar    1  UNL1        0.0549
     25 C           1.5999    0.0873   23.4757 C.ar    1  UNL1        0.0189
     26 C           0.6926    1.1251   24.0672 C.ar    1  UNL1        0.0467
     27 C           2.8802   -0.8813   21.4331 C.2     1  UNL1        0.2507
     28 O           3.8958   -1.5694   22.2962 O.2     1  UNL1       -0.2698
     29 N           2.7719   -1.2311   19.9785 N.am    1  UNL1       -0.2632
     30 H           2.1053   -0.7795   19.4120 H       1  UNL1        0.1567
     31 C           3.6792   -2.2689   19.3870 C.ar    1  UNL1        0.1767
     32 C           3.4804   -3.7542   19.4524 C.ar    1  UNL1        0.0812
     33 C           4.6229   -4.4069   18.7321 C.ar    1  UNL1        0.2152
     34 O           5.5278   -3.3249   18.2216 O.2     1  UNL1       -0.3489
     35 N           4.9446   -2.0035   18.6264 N.ar    1  UNL1       -0.0616
@<TRIPOS>BOND
     1    20    21    1
     2    21    22   ar
     3    22    23   ar
     4    23    24   ar
     5    24    27    1
     6    27    28    2
     7    27    29   am
     8    29    31    1
     9    31    32   ar
    10    32    33   ar
    11    33    34   ar
    12    34    35   ar
    13    24    25   ar
    14    25    26   ar
    15    26     1    1
    16     1     2   am
    17     2     3    2
    18     2     5    1
    19     5     6   ar
    20     6     7   ar
    21     7     8   ar
    22     8    13    1
    23    13    14   ar
    24    14    15   ar
    25    15    16   ar
    26    16    17   ar
    27    17    18   ar
    28    18    19    1
    29     8     9   ar
    30     9    10    1
    31    26    21   ar
    32     9     5   ar
    33    35    31   ar
    34    18    13   ar
    35    29    30    1
    36     1     4    1
    37    10    11    1
    38    10    12    1
@<TRIPOS>MOLECULE
*****
 35 38 0 0 0
SMALL
GASTEIGER

@<TRIPOS>ATOM
      1 N           4.6347   -3.0973   22.6853 N.am    1  UNL1       -0.2805
      2 C           6.1181   -2.8874   22.7585 C.2     1  UNL1        0.2538
      3 O           6.7108   -1.5730   22.3450 O.2     1  UNL1       -0.2697
      4 H           4.2456   -3.9600   22.9567 H       1  UNL1        0.1552
      5 C           7.0088   -3.9918   23.2452 C.ar    1  UNL1        0.1056
      6 C           8.0202   -4.7355   22.4242 C.ar    1  UNL1        0.1279
      7 N           8.6809   -5.7498   23.3100 N.ar    1  UNL1       -0.1621
      8 N           8.0779   -5.6330   24.6785 N.ar    1  UNL1       -0.2141
      9 C           7.0444   -4.5465   24.6385 C.ar    1  UNL1        0.1328
     10 N           6.1957   -4.0941   25.7896 N.pl3   1  UNL1       -0.3424
     11 H           6.2928   -4.5222   26.6708 H       1  UNL1        0.1437
     12 H           5.5416   -3.3692   25.6639 H       1  UNL1        0.1437
     13 C           8.4441   -6.4579   25.8766 C.ar    1  UNL1        0.1115
     14 C           8.0846   -7.9134   25.9233 C.ar    1  UNL1        0.0215
     15 C           8.4508   -8.7382   27.1214 C.ar    1  UNL1        0.0017
     16 C           9.1764   -8.1076   28.2729 C.ar    1  UNL1        0.0024
     17 C           9.5358   -6.6520   28.2262 C.ar    1  UNL1        0.0312
     18 C           9.1697   -5.8272   27.0281 C.ar    1  UNL1        0.1577
     19 F           9.5291   -4.3716   26.9812 F       1  UNL1       -0.2026
     20 C           4.0350   -2.8337   19.7577 C.3     1  UNL1        0.0323
     21 C           3.4441   -1.8611   20.7349 C.ar    1  UNL1       -0.0084
     22 C           2.5534   -0.7567   20.2482 C.ar    1  UNL1       -0.0029
     23 C           1.9625    0.2160   21.2254 C.ar    1  UNL1        0.0043
     24 C           2.2623    0.0842   22.6892 C.ar    1  UNL1        0.0549
     25 C           3.1530   -1.0202   23.1758 C.ar    1  UNL1        0.0189
     26 C           3.7439   -1.9929   22.1986 C.ar    1  UNL1        0.0467
     27 C           1.6715    1.0569   23.6663 C.2     1  UNL1        0.2507
     28 O           1.8928    2.5294   23.4857 O.2     1  UNL1       -0.2698
     29 N           0.8593    0.5570   24.8240 N.am    1  UNL1       -0.2632
     30 H           0.7140   -0.4095   24.9426 H       1  UNL1        0.1567
     31 C           0.2684    1.5296   25.8012 C.ar    1  UNL1        0.1767
     32 C          -0.9637    2.3576   25.5855 C.ar    1  UNL1        0.0812
     33 C          -1.1877    3.1848   26.8166 C.ar    1  UNL1        0.2152
     34 O          -0.0941    2.8681   27.7932 O.2     1  UNL1       -0.3489
     35 N           0.8059    1.8451   27.1656 N.ar    1  UNL1       -0.0616
@<TRIPOS>BOND
     1    20    21    1
     2    21    22   ar
     3    22    23   ar
     4    23    24   ar
     5    24    27    1
     6    27    28    2
     7    27    29   am
     8    29    31    1
     9    31    32   ar
    10    32    33   ar
    11    33    34   ar
    12    34    35   ar
    13    24    25   ar
    14    25    26   ar
    15    26     1    1
    16     1     2   am
    17     2     3    2
    18     2     5    1
    19     5     6   ar
    20     6     7   ar
    21     7     8   ar
    22     8    13    1
    23    13    14   ar
    24    14    15   ar
    25    15    16   ar
    26    16    17   ar
    27    17    18   ar
    28    18    19    1
    29     8     9   ar
    30     9    10    1
    31    26    21   ar
    32     9     5   ar
    33    35    31   ar
    34    18    13   ar
    35    29    30    1
    36     1     4    1
    37    10    11    1
    38    10    12    1
@<TRIPOS>MOLECULE
*****
 35 38 0 0 0
SMALL
GASTEIGER

@<TRIPOS>ATOM
      1 N           6.1660   -4.4689   27.2569 N.am    1  UNL1       -0.2805
      2 C           7.1207   -3.9642   26.2158 C.2     1  UNL1        0.2538
      3 O           8.4778   -3.4692   26.6197 O.2     1  UNL1       -0.2697
      4 H           5.2753   -4.7938   26.9918 H       1  UNL1        0.1552
      5 C           6.7182   -3.9545   24.7708 C.ar    1  UNL1        0.1056
      6 C           7.3588   -4.7494   23.6718 C.ar    1  UNL1        0.1279
      7 N           6.6410   -4.4343   22.3929 N.ar    1  UNL1       -0.1621
      8 N           5.5567   -3.4448   22.7016 N.ar    1  UNL1       -0.2141
      9 C           5.6045   -3.1482   24.1713 C.ar    1  UNL1        0.1328
     10 N           4.6977   -2.2101   24.9113 N.pl3   1  UNL1       -0.3424
     11 H           3.9921   -1.7232   24.4273 H       1  UNL1        0.1437
     12 H           4.8081   -2.0813   25.8811 H       1  UNL1        0.1437
     13 C           4.5938   -2.8553   21.7140 C.ar    1  UNL1        0.1115
     14 C           3.7543   -1.6733   22.0990 C.ar    1  UNL1        0.0215
     15 C           2.7914   -1.0838   21.1114 C.ar    1  UNL1        0.0017
     16 C           2.6681   -1.6763   19.7389 C.ar    1  UNL1        0.0024
     17 C           3.5076   -2.8582   19.3539 C.ar    1  UNL1        0.0312
     18 C           4.4705   -3.4477   20.3415 C.ar    1  UNL1        0.1577
     19 F           5.3101   -4.6297   19.9566 F       1  UNL1       -0.2026
     20 C           7.6886   -6.7998   28.3744 C.3     1  UNL1        0.0323
     21 C           7.3297   -5.6440   29.2606 C.ar    1  UNL1       -0.0084
     22 C           7.7322   -5.6537   30.7056 C.ar    1  UNL1       -0.0029
     23 C           7.3733   -4.4979   31.5918 C.ar    1  UNL1        0.0043
     24 C           6.6121   -3.3325   31.0331 C.ar    1  UNL1        0.0549
     25 C           6.2097   -3.3228   29.5882 C.ar    1  UNL1        0.0189
     26 C           6.5685   -4.4786   28.7019 C.ar    1  UNL1        0.0467
     27 C           6.2532   -2.1767   31.9193 C.2     1  UNL1        0.2507
     28 O           7.1317   -0.9615   31.9597 O.2     1  UNL1       -0.2698
     29 N           5.0160   -2.2361   32.7652 N.am    1  UNL1       -0.2632
     30 H           4.4394   -3.0336   32.7387 H       1  UNL1        0.1567
     31 C           4.6571   -1.0803   33.6515 C.ar    1  UNL1        0.1767
     32 C           3.8640    0.1272   33.2479 C.ar    1  UNL1        0.0812
     33 C           3.7451    1.0247   34.4439 C.ar    1  UNL1        0.2152
     34 O           4.4648    0.3719   35.5866 O.2     1  UNL1       -0.3489
     35 N           5.0284   -0.9291   35.0970 N.ar    1  UNL1       -0.0616
@<TRIPOS>BOND
     1    20    21    1
     2    21    22   ar
     3    22    23   ar
     4    23    24   ar
     5    24    27    1
     6    27    28    2
     7    27    29   am
     8    29    31    1
     9    31    32   ar
    10    32    33   ar
    11    33    34   ar
    12    34    35   ar
    13    24    25   ar
    14    25    26   ar
    15    26     1    1
    16     1     2   am
    17     2     3    2
    18     2     5    1
    19     5     6   ar
    20     6     7   ar
    21     7     8   ar
    22     8    13    1
    23    13    14   ar
    24    14    15   ar
    25    15    16   ar
    26    16    17   ar
    27    17    18   ar
    28    18    19    1
    29     8     9   ar
    30     9    10    1
    31    26    21   ar
    32     9     5   ar
    33    35    31   ar
    34    18    13   ar
    35    29    30    1
    36     1     4    1
    37    10    11    1
    38    10    12    1
@<TRIPOS>MOLECULE
*****
 35 38 0 0 0
SMALL
GASTEIGER

@<TRIPOS>ATOM
      1 N          -2.8248    2.5819   20.5972 N.am    1  UNL1       -0.2805
      2 C          -1.4596    3.1937   20.4888 C.2     1  UNL1        0.2538
      3 O          -1.3004    4.6846   20.5297 O.2     1  UNL1       -0.2697
      4 H          -2.9293    1.6034   20.5703 H       1  UNL1        0.1552
      5 C          -0.2534    2.3144   20.3395 C.ar    1  UNL1        0.1056
      6 C           0.1370    1.1907   21.2532 C.ar    1  UNL1        0.1279
      7 N           1.4057    0.5864   20.7287 N.ar    1  UNL1       -0.1621
      8 N           1.7995    1.3366   19.4909 N.ar    1  UNL1       -0.2141
      9 C           0.7740    2.4047   19.2504 C.ar    1  UNL1        0.1328
     10 N           0.7757    3.3900   18.1193 N.pl3   1  UNL1       -0.3424
     11 H           1.4975    3.3698   17.4500 H       1  UNL1        0.1437
     12 H           0.0551    4.0568   18.0463 H       1  UNL1        0.1437
     13 C           3.0067    1.0664   18.6426 C.ar    1  UNL1        0.1115
     14 C           3.0900   -0.1965   17.8374 C.ar    1  UNL1        0.0215
     15 C           4.2972   -0.4668   16.9891 C.ar    1  UNL1        0.0017
     16 C           5.4210    0.5258   16.9459 C.ar    1  UNL1        0.0024
     17 C           5.3376    1.7887   17.7510 C.ar    1  UNL1        0.0312
     18 C           4.1305    2.0590   18.5994 C.ar    1  UNL1        0.1577
     19 F           4.0470    3.3218   19.4045 F       1  UNL1       -0.2026
     20 C          -4.0982    3.8061   18.1723 C.3     1  UNL1        0.0323
     21 C          -4.6676    4.0732   19.5340 C.ar    1  UNL1       -0.0084
     22 C          -5.8737    4.9524   19.6833 C.ar    1  UNL1       -0.0029
     23 C          -6.4432    5.2195   21.0451 C.ar    1  UNL1        0.0043
     24 C          -5.8065    4.6075   22.2575 C.ar    1  UNL1        0.0549
     25 C          -4.6004    3.7283   22.1082 C.ar    1  UNL1        0.0189
     26 C          -4.0310    3.4612   20.7465 C.ar    1  UNL1        0.0467
     27 C          -6.3760    4.8747   23.6193 C.2     1  UNL1        0.2507
     28 O          -7.7486    4.3808   23.9683 O.2     1  UNL1       -0.2698
     29 N          -5.5727    5.6357   24.6320 N.am    1  UNL1       -0.2632
     30 H          -4.6718    5.9598   24.4029 H       1  UNL1        0.1567
     31 C          -6.1422    5.9028   25.9938 C.ar    1  UNL1        0.1767
     32 C          -7.3424    6.7499   26.2969 C.ar    1  UNL1        0.0812
     33 C          -7.5534    6.7404   27.7820 C.ar    1  UNL1        0.2152
     34 O          -6.4836    5.8874   28.3967 O.2     1  UNL1       -0.3489
     35 N          -5.6113    5.3697   27.2915 N.ar    1  UNL1       -0.0616
@<TRIPOS>BOND
     1    20    21    1
     2    21    22   ar
     3    22    23   ar
     4    23    24   ar
     5    24    27    1
     6    27    28    2
     7    27    29   am
     8    29    31    1
     9    31    32   ar
    10    32    33   ar
    11    33    34   ar
    12    34    35   ar
    13    24    25   ar
    14    25    26   ar
    15    26     1    1
    16     1     2   am
    17     2     3    2
    18     2     5    1
    19     5     6   ar
    20     6     7   ar
    21     7     8   ar
    22     8    13    1
    23    13    14   ar
    24    14    15   ar
    25    15    16   ar
    26    16    17   ar
    27    17    18   ar
    28    18    19    1
    29     8     9   ar
    30     9    10    1
    31    26    21   ar
    32     9     5   ar
    33    35    31   ar
    34    18    13   ar
    35    29    30    1
    36     1     4    1
    37    10    11    1
    38    10    12    1
