@<TRIPOS>MOLECULE
*****
 23 26 0 0 0
SMALL
GASTEIGER

@<TRIPOS>ATOM
      1 C          -8.8806  -18.1554   21.1433 C.2     1  UNL1        0.3428
      2 O          -8.4924  -19.4746   20.5442 O.2     1  UNL1       -0.2448
      3 C         -14.4303  -18.4972   25.5836 C.3     1  UNL1        0.0268
      4 C         -13.3490  -18.3574   24.5534 C.2     1  UNL1       -0.0375
      5 C         -11.9732  -18.8852   24.8338 C.2     1  UNL1       -0.0014
      6 C         -10.8919  -18.7453   23.8035 C.2     1  UNL1        0.0353
      7 BR         -9.5161  -19.2731   24.0839 Br      1  UNL1       -0.0490
      8 C         -11.1865  -18.0778   22.4930 C.2     1  UNL1        0.0278
      9 C         -10.3294  -17.7975   21.2943 C.2     1  UNL1        0.0963
     10 C         -11.1755  -17.0965   20.2731 C.2     1  UNL1        0.1049
     11 N         -12.5555  -16.9436   20.8407 N.2     1  UNL1       -0.2476
     12 C         -12.5623  -17.5500   22.2126 C.2     1  UNL1        0.0638
     13 C         -13.6436  -17.6898   23.2428 C.3     1  UNL1        0.0678
     14 O          -7.8199  -17.1940   21.5915 O.3     1  UNL1       -0.4454
     15 C          -8.2018  -15.9504   22.3381 C.3     1  UNL1        0.2087
     16 C          -7.7704  -15.7689   23.7632 C.3     1  UNL1        0.0445
     17 C          -6.3176  -15.5890   24.0900 C.3     1  UNL1        0.0210
     18 C          -5.8862  -15.4075   25.5151 C.3     1  UNL1        0.0722
     19 N          -6.9078  -15.4059   26.6135 N.3     1  UNL1       -0.2727
     20 C          -8.3607  -15.5857   26.2867 C.3     1  UNL1        0.0722
     21 C          -8.7920  -15.7672   24.8616 C.3     1  UNL1        0.0210
     22 C          -7.1921  -15.5088   25.8477 C.3     1  UNL1        0.0722
     23 C          -7.5822  -15.6729   24.5591 C.3     1  UNL1        0.0210
@<TRIPOS>BOND
     1     3     4    1
     2     4     5    2
     3     5     6    1
     4     6     7    1
     5     6     8    2
     6     8     9    1
     7     9     1    1
     8     1     2    2
     9     1    14    1
    10    14    15    1
    11    15    16    1
    12    16    17    1
    13    17    18    1
    14    18    19    1
    15    19    20    1
    16    20    21    1
    17    19    22    1
    18    22    23    1
    19     9    10    2
    20    10    11    1
    21    11    12    2
    22    12    13    1
    23    13     4    1
    24    12     8    1
    25    21    16    1
    26    23    16    1
@<TRIPOS>MOLECULE
*****
 23 26 0 0 0
SMALL
GASTEIGER

@<TRIPOS>ATOM
      1 C          -8.8381  -18.7270   20.5807 C.2     1  UNL1        0.3428
      2 O          -8.6846  -20.0448   19.8809 O.2     1  UNL1       -0.2448
      3 C         -14.1047  -18.4119   25.3551 C.3     1  UNL1        0.0268
      4 C         -13.0775  -18.3950   24.2622 C.2     1  UNL1       -0.0375
      5 C         -11.7810  -19.1280   24.4401 C.2     1  UNL1       -0.0014
      6 C         -10.7537  -19.1111   23.3471 C.2     1  UNL1        0.0353
      7 BR         -9.4572  -19.8440   23.5250 Br      1  UNL1       -0.0490
      8 C         -11.0232  -18.3613   22.0762 C.2     1  UNL1        0.0278
      9 C         -10.2064  -18.1667   20.8332 C.2     1  UNL1        0.0963
     10 C         -10.9982  -17.3136   19.8870 C.2     1  UNL1        0.1049
     11 N         -12.3043  -16.9808   20.5453 N.2     1  UNL1       -0.2476
     12 C         -12.3198  -17.6283   21.8983 C.2     1  UNL1        0.0638
     13 C         -13.3469  -17.6452   22.9912 C.3     1  UNL1        0.0678
     14 O          -7.6232  -17.9695   21.0280 O.3     1  UNL1       -0.4454
     15 C          -6.7013  -18.5660   22.0500 C.3     1  UNL1        0.2087
     16 C          -5.3691  -19.1127   21.6300 C.3     1  UNL1        0.0445
     17 C          -4.1310  -18.7358   22.3882 C.3     1  UNL1        0.0210
     18 C          -2.7988  -19.2825   21.9682 C.3     1  UNL1        0.0722
     19 N          -2.7048  -20.2060   20.7899 N.3     1  UNL1       -0.2727
     20 C          -3.9430  -20.5829   20.0317 C.3     1  UNL1        0.0722
     21 C          -5.2751  -20.0362   20.4517 C.3     1  UNL1        0.0210
     22 C          -3.4568  -19.9317   20.9825 C.3     1  UNL1        0.0722
     23 C          -4.6615  -19.4375   21.3622 C.3     1  UNL1        0.0210
@<TRIPOS>BOND
     1     3     4    1
     2     4     5    2
     3     5     6    1
     4     6     7    1
     5     6     8    2
     6     8     9    1
     7     9     1    1
     8     1     2    2
     9     1    14    1
    10    14    15    1
    11    15    16    1
    12    16    17    1
    13    17    18    1
    14    18    19    1
    15    19    20    1
    16    20    21    1
    17    19    22    1
    18    22    23    1
    19     9    10    2
    20    10    11    1
    21    11    12    2
    22    12    13    1
    23    13     4    1
    24    12     8    1
    25    21    16    1
    26    23    16    1
@<TRIPOS>MOLECULE
*****
 23 26 0 0 0
SMALL
GASTEIGER

@<TRIPOS>ATOM
      1 C          -8.2882  -17.9183   21.4907 C.2     1  UNL1        0.3428
      2 O          -8.3039  -18.5702   20.1399 O.2     1  UNL1       -0.2448
      3 C         -14.6460  -18.1791   24.6753 C.3     1  UNL1        0.0268
      4 C         -13.2591  -18.2183   24.1054 C.2     1  UNL1       -0.0375
      5 C         -12.9229  -17.4008   22.8935 C.2     1  UNL1       -0.0014
      6 C         -11.5359  -17.4400   22.3236 C.2     1  UNL1        0.0353
      7 BR        -11.1997  -16.6224   21.1117 Br      1  UNL1       -0.0490
      8 C         -10.4852  -18.2967   22.9654 C.2     1  UNL1        0.0278
      9 C          -9.0428  -18.5360   22.6305 C.2     1  UNL1        0.0963
     10 C          -8.4876  -19.5014   23.6352 C.2     1  UNL1        0.1049
     11 N          -9.5868  -19.8588   24.5912 N.2     1  UNL1       -0.2476
     12 C         -10.8214  -19.1142   24.1773 C.2     1  UNL1        0.0638
     13 C         -12.2083  -19.0751   24.7472 C.3     1  UNL1        0.0678
     14 O          -7.5178  -16.6487   21.7019 O.3     1  UNL1       -0.4454
     15 C          -8.0476  -15.5951   22.6289 C.3     1  UNL1        0.2087
     16 C          -7.6215  -15.5782   24.0669 C.3     1  UNL1        0.0445
     17 C          -6.1861  -15.3245   24.4209 C.3     1  UNL1        0.0210
     18 C          -5.7601  -15.3076   25.8590 C.3     1  UNL1        0.0722
     19 N          -6.7694  -15.5446   26.9431 N.3     1  UNL1       -0.2727
     20 C          -8.2047  -15.7984   26.5891 C.3     1  UNL1        0.0722
     21 C          -8.6308  -15.8152   25.1510 C.3     1  UNL1        0.0210
     22 C          -7.0502  -15.5633   26.1694 C.3     1  UNL1        0.0722
     23 C          -7.4356  -15.5786   24.8691 C.3     1  UNL1        0.0210
@<TRIPOS>BOND
     1     3     4    1
     2     4     5    2
     3     5     6    1
     4     6     7    1
     5     6     8    2
     6     8     9    1
     7     9     1    1
     8     1     2    2
     9     1    14    1
    10    14    15    1
    11    15    16    1
    12    16    17    1
    13    17    18    1
    14    18    19    1
    15    19    20    1
    16    20    21    1
    17    19    22    1
    18    22    23    1
    19     9    10    2
    20    10    11    1
    21    11    12    2
    22    12    13    1
    23    13     4    1
    24    12     8    1
    25    21    16    1
    26    23    16    1
@<TRIPOS>MOLECULE
*****
 23 26 0 0 0
SMALL
GASTEIGER

@<TRIPOS>ATOM
      1 C          -8.1781  -18.9900   20.3977 C.2     1  UNL1        0.3428
      2 O          -8.9380  -19.2272   19.1264 O.2     1  UNL1       -0.2448
      3 C         -14.0496  -17.9290   24.2748 C.3     1  UNL1        0.0268
      4 C         -12.7598  -18.2292   23.5704 C.2     1  UNL1       -0.0375
      5 C         -12.5246  -17.7102   22.1828 C.2     1  UNL1       -0.0014
      6 C         -11.2347  -18.0104   21.4784 C.2     1  UNL1        0.0353
      7 BR        -10.9995  -17.4915   20.0908 Br      1  UNL1       -0.0490
      8 C         -10.1801  -18.8296   22.1616 C.2     1  UNL1        0.0278
      9 C          -8.8200  -19.2838   21.7211 C.2     1  UNL1        0.0963
     10 C          -8.2147  -20.0835   22.8365 C.2     1  UNL1        0.1049
     11 N          -9.2006  -20.1235   23.9662 N.2     1  UNL1       -0.2476
     12 C         -10.4153  -19.3485   23.5492 C.2     1  UNL1        0.0638
     13 C         -11.7051  -19.0483   24.2536 C.3     1  UNL1        0.0678
     14 O          -6.7763  -18.4588   20.3455 O.3     1  UNL1       -0.4454
     15 C          -5.7098  -19.2263   19.6219 C.3     1  UNL1        0.2087
     16 C          -4.2758  -19.0955   20.0419 C.3     1  UNL1        0.0445
     17 C          -3.8078  -19.7273   21.3194 C.3     1  UNL1        0.0210
     18 C          -2.3738  -19.5965   21.7394 C.3     1  UNL1        0.0722
     19 N          -1.4077  -18.8339   20.8820 N.3     1  UNL1       -0.2727
     20 C          -1.8757  -18.2021   19.6045 C.3     1  UNL1        0.0722
     21 C          -3.3097  -18.3329   19.1845 C.3     1  UNL1        0.0210
     22 C          -2.1837  -18.8785   20.6105 C.3     1  UNL1        0.0722
     23 C          -3.4804  -18.9967   20.2306 C.3     1  UNL1        0.0210
@<TRIPOS>BOND
     1     3     4    1
     2     4     5    2
     3     5     6    1
     4     6     7    1
     5     6     8    2
     6     8     9    1
     7     9     1    1
     8     1     2    2
     9     1    14    1
    10    14    15    1
    11    15    16    1
    12    16    17    1
    13    17    18    1
    14    18    19    1
    15    19    20    1
    16    20    21    1
    17    19    22    1
    18    22    23    1
    19     9    10    2
    20    10    11    1
    21    11    12    2
    22    12    13    1
    23    13     4    1
    24    12     8    1
    25    21    16    1
    26    23    16    1
@<TRIPOS>MOLECULE
*****
 23 26 0 0 0
SMALL
GASTEIGER

@<TRIPOS>ATOM
      1 C          -9.4534  -18.1782   21.0923 C.2     1  UNL1        0.3428
      2 O         -10.4769  -17.4322   20.2885 O.2     1  UNL1       -0.2448
      3 C          -8.1953  -15.7023   27.6436 C.3     1  UNL1        0.0268
      4 C          -8.5332  -16.3340   26.3257 C.2     1  UNL1       -0.0375
      5 C          -8.0687  -15.6990   25.0486 C.2     1  UNL1       -0.0014
      6 C          -8.4067  -16.3307   23.7307 C.2     1  UNL1        0.0353
      7 BR         -7.9421  -15.6958   22.4536 Br      1  UNL1       -0.0490
      8 C          -9.2091  -17.5973   23.6900 C.2     1  UNL1        0.0278
      9 C          -9.6918  -18.4435   22.5493 C.2     1  UNL1        0.0963
     10 C         -10.4546  -19.6014   23.1214 C.2     1  UNL1        0.1049
     11 N         -10.4434  -19.4709   24.6157 N.2     1  UNL1       -0.2476
     12 C          -9.6737  -18.2323   24.9671 C.2     1  UNL1        0.0638
     13 C          -9.3357  -17.6007   26.2849 C.3     1  UNL1        0.0678
     14 O          -8.1916  -18.6590   20.4391 O.3     1  UNL1       -0.4454
     15 C          -7.3989  -19.7684   21.0643 C.3     1  UNL1        0.2087
     16 C          -5.9188  -19.6175   21.2547 C.3     1  UNL1        0.0445
     17 C          -4.9684  -20.2884   20.3077 C.3     1  UNL1        0.0210
     18 C          -3.4883  -20.1374   20.4982 C.3     1  UNL1        0.0722
     19 N          -2.9584  -19.3156   21.6357 N.3     1  UNL1       -0.2727
     20 C          -3.9087  -18.6447   22.5827 C.3     1  UNL1        0.0722
     21 C          -5.3889  -18.7957   22.3922 C.3     1  UNL1        0.0210
     22 C          -3.7775  -19.3694   21.5718 C.3     1  UNL1        0.0722
     23 C          -5.1159  -19.5058   21.3996 C.3     1  UNL1        0.0210
@<TRIPOS>BOND
     1     3     4    1
     2     4     5    2
     3     5     6    1
     4     6     7    1
     5     6     8    2
     6     8     9    1
     7     9     1    1
     8     1     2    2
     9     1    14    1
    10    14    15    1
    11    15    16    1
    12    16    17    1
    13    17    18    1
    14    18    19    1
    15    19    20    1
    16    20    21    1
    17    19    22    1
    18    22    23    1
    19     9    10    2
    20    10    11    1
    21    11    12    2
    22    12    13    1
    23    13     4    1
    24    12     8    1
    25    21    16    1
    26    23    16    1
@<TRIPOS>MOLECULE
*****
 23 26 0 0 0
SMALL
GASTEIGER

@<TRIPOS>ATOM
      1 C          -6.4176  -18.7420   21.3809 C.2     1  UNL1        0.3428
      2 O          -6.3392  -18.4256   19.9167 O.2     1  UNL1       -0.2448
      3 C         -13.2486  -17.6907   23.0734 C.3     1  UNL1        0.0268
      4 C         -11.7757  -17.8115   22.8170 C.2     1  UNL1       -0.0375
      5 C         -11.2708  -18.7750   21.7841 C.2     1  UNL1       -0.0014
      6 C          -9.7977  -18.8958   21.5277 C.2     1  UNL1        0.0353
      7 BR         -9.2928  -19.8593   20.4949 Br      1  UNL1       -0.0490
      8 C          -8.8297  -18.0531   22.3041 C.2     1  UNL1        0.0278
      9 C          -7.3333  -17.9545   22.2704 C.2     1  UNL1        0.0963
     10 C          -6.9134  -16.9300   23.2824 C.2     1  UNL1        0.1049
     11 N          -8.1503  -16.3955   23.9415 N.2     1  UNL1       -0.2476
     12 C          -9.3346  -17.0896   23.3369 C.2     1  UNL1        0.0638
     13 C         -10.8076  -16.9688   23.5933 C.3     1  UNL1        0.0678
     14 O          -5.5804  -19.8460   21.9555 O.3     1  UNL1       -0.4454
     15 C          -4.2697  -19.5291   22.6127 C.3     1  UNL1        0.2087
     16 C          -3.2959  -18.6088   21.9385 C.3     1  UNL1        0.0445
     17 C          -2.5541  -19.0657   20.7175 C.3     1  UNL1        0.0210
     18 C          -1.5802  -18.1452   20.0434 C.3     1  UNL1        0.0722
     19 N          -1.3481  -16.7680   20.5904 N.3     1  UNL1       -0.2727
     20 C          -2.0899  -16.3111   21.8115 C.3     1  UNL1        0.0722
     21 C          -3.0637  -17.2315   22.4855 C.3     1  UNL1        0.0210
     22 C          -1.8915  -17.2366   20.9940 C.3     1  UNL1        0.0722
     23 C          -2.7722  -18.0688   21.6036 C.3     1  UNL1        0.0210
@<TRIPOS>BOND
     1     3     4    1
     2     4     5    2
     3     5     6    1
     4     6     7    1
     5     6     8    2
     6     8     9    1
     7     9     1    1
     8     1     2    2
     9     1    14    1
    10    14    15    1
    11    15    16    1
    12    16    17    1
    13    17    18    1
    14    18    19    1
    15    19    20    1
    16    20    21    1
    17    19    22    1
    18    22    23    1
    19     9    10    2
    20    10    11    1
    21    11    12    2
    22    12    13    1
    23    13     4    1
    24    12     8    1
    25    21    16    1
    26    23    16    1
@<TRIPOS>MOLECULE
*****
 23 26 0 0 0
SMALL
GASTEIGER

@<TRIPOS>ATOM
      1 C          -8.8580  -19.9902   23.4229 C.2     1  UNL1        0.3428
      2 O          -9.5740  -21.0256   24.2384 O.2     1  UNL1       -0.2448
      3 C         -12.2948  -15.5288   19.0735 C.3     1  UNL1        0.0268
      4 C         -11.5699  -16.3615   20.0889 C.2     1  UNL1       -0.0375
      5 C         -11.1803  -17.7726   19.7615 C.2     1  UNL1       -0.0014
      6 C         -10.4554  -18.6053   20.7770 C.2     1  UNL1        0.0353
      7 BR        -10.0658  -20.0163   20.4496 Br      1  UNL1       -0.0490
      8 C         -10.1202  -18.0270   22.1198 C.2     1  UNL1        0.0278
      9 C          -9.4177  -18.6028   23.3135 C.2     1  UNL1        0.0963
     10 C          -9.3731  -17.5476   24.3787 C.2     1  UNL1        0.1049
     11 N         -10.0481  -16.3197   23.8433 N.2     1  UNL1       -0.2476
     12 C         -10.5098  -16.6160   22.4472 C.2     1  UNL1        0.0638
     13 C         -11.2347  -15.7833   21.4318 C.3     1  UNL1        0.0678
     14 O          -7.5823  -20.3421   22.7166 O.3     1  UNL1       -0.4454
     15 C          -6.7742  -19.2693   22.0486 C.3     1  UNL1        0.2087
     16 C          -5.3590  -19.5444   21.6346 C.3     1  UNL1        0.0445
     17 C          -5.0796  -20.2493   20.3404 C.3     1  UNL1        0.0210
     18 C          -3.6643  -20.5244   19.9265 C.3     1  UNL1        0.0722
     19 N          -2.5284  -20.0946   20.8069 N.3     1  UNL1       -0.2727
     20 C          -2.8079  -19.3897   22.1012 C.3     1  UNL1        0.0722
     21 C          -4.2231  -19.1147   22.5150 C.3     1  UNL1        0.0210
     22 C          -3.2872  -19.9219   21.0758 C.3     1  UNL1        0.0722
     23 C          -4.5669  -19.6731   21.4501 C.3     1  UNL1        0.0210
@<TRIPOS>BOND
     1     3     4    1
     2     4     5    2
     3     5     6    1
     4     6     7    1
     5     6     8    2
     6     8     9    1
     7     9     1    1
     8     1     2    2
     9     1    14    1
    10    14    15    1
    11    15    16    1
    12    16    17    1
    13    17    18    1
    14    18    19    1
    15    19    20    1
    16    20    21    1
    17    19    22    1
    18    22    23    1
    19     9    10    2
    20    10    11    1
    21    11    12    2
    22    12    13    1
    23    13     4    1
    24    12     8    1
    25    21    16    1
    26    23    16    1
@<TRIPOS>MOLECULE
*****
 23 26 0 0 0
SMALL
GASTEIGER

@<TRIPOS>ATOM
      1 C          -9.3135  -17.7186   23.5931 C.2     1  UNL1        0.3428
      2 O          -9.6830  -18.6116   24.7403 O.2     1  UNL1       -0.2448
      3 C          -9.1163  -21.0492   17.3082 C.3     1  UNL1        0.0268
      4 C          -9.0123  -20.3398   18.6257 C.2     1  UNL1       -0.0375
      5 C         -10.2531  -20.0207   19.4057 C.2     1  UNL1       -0.0014
      6 C         -10.1490  -19.3112   20.7233 C.2     1  UNL1        0.0353
      7 BR        -11.3898  -18.9921   21.5033 Br      1  UNL1       -0.0490
      8 C          -8.8041  -18.9209   21.2607 C.2     1  UNL1        0.0278
      9 C          -8.3919  -18.2183   22.5203 C.2     1  UNL1        0.0963
     10 C          -6.8963  -18.1033   22.5187 C.2     1  UNL1        0.1049
     11 N          -6.3842  -18.7347   21.2582 N.2     1  UNL1       -0.2476
     12 C          -7.5633  -19.2400   20.4806 C.2     1  UNL1        0.0638
     13 C          -7.6673  -19.9494   19.1632 C.3     1  UNL1        0.0678
     14 O          -9.8657  -16.3260   23.5187 O.3     1  UNL1       -0.4454
     15 C          -9.4755  -15.3083   24.5494 C.3     1  UNL1        0.2087
     16 C          -8.1472  -15.4101   25.2386 C.3     1  UNL1        0.0445
     17 C          -8.0785  -15.8332   26.6760 C.3     1  UNL1        0.0210
     18 C          -6.7501  -15.9350   27.3652 C.3     1  UNL1        0.0722
     19 N          -5.4904  -15.6137   26.6169 N.3     1  UNL1       -0.2727
     20 C          -5.5591  -15.1906   25.1794 C.3     1  UNL1        0.0722
     21 C          -6.8875  -15.0889   24.4903 C.3     1  UNL1        0.0210
     22 C          -6.1951  -15.5435   26.1969 C.3     1  UNL1        0.0722
     23 C          -7.3962  -15.4514   25.5737 C.3     1  UNL1        0.0210
@<TRIPOS>BOND
     1     3     4    1
     2     4     5    2
     3     5     6    1
     4     6     7    1
     5     6     8    2
     6     8     9    1
     7     9     1    1
     8     1     2    2
     9     1    14    1
    10    14    15    1
    11    15    16    1
    12    16    17    1
    13    17    18    1
    14    18    19    1
    15    19    20    1
    16    20    21    1
    17    19    22    1
    18    22    23    1
    19     9    10    2
    20    10    11    1
    21    11    12    2
    22    12    13    1
    23    13     4    1
    24    12     8    1
    25    21    16    1
    26    23    16    1
@<TRIPOS>MOLECULE
*****
 23 26 0 0 0
SMALL
GASTEIGER

@<TRIPOS>ATOM
      1 C          -7.0100  -19.7986   21.6433 C.2     1  UNL1        0.3428
      2 O          -7.0051  -20.8740   22.6891 O.2     1  UNL1       -0.2448
      3 C         -12.6459  -15.8611   19.8090 C.3     1  UNL1        0.0268
      4 C         -11.4219  -16.5838   20.2879 C.2     1  UNL1       -0.0375
      5 C         -11.0786  -17.9315   19.7258 C.2     1  UNL1       -0.0014
      6 C          -9.8545  -18.6542   20.2048 C.2     1  UNL1        0.0353
      7 BR         -9.5112  -20.0019   19.6427 Br      1  UNL1       -0.0490
      8 C          -8.9738  -18.0293   21.2458 C.2     1  UNL1        0.0278
      9 C          -7.7120  -18.4995   21.9068 C.2     1  UNL1        0.0963
     10 C          -7.2755  -17.4424   22.8773 C.2     1  UNL1        0.1049
     11 N          -8.2675  -16.3189   22.8162 N.2     1  UNL1       -0.2476
     12 C          -9.3171  -16.6817   21.8079 C.2     1  UNL1        0.0638
     13 C         -10.5411  -15.9589   21.3290 C.3     1  UNL1        0.0678
     14 O          -6.3130  -20.0225   20.3342 O.3     1  UNL1       -0.4454
     15 C          -5.4487  -18.9442   19.7506 C.3     1  UNL1        0.2087
     16 C          -3.9793  -18.9162   20.0508 C.3     1  UNL1        0.0445
     17 C          -3.4578  -19.5515   21.3056 C.3     1  UNL1        0.0210
     18 C          -1.9885  -19.5234   21.6057 C.3     1  UNL1        0.0722
     19 N          -1.0405  -18.8601   20.6510 N.3     1  UNL1       -0.2727
     20 C          -1.5620  -18.2248   19.3962 C.3     1  UNL1        0.0722
     21 C          -3.0314  -18.2528   19.0961 C.3     1  UNL1        0.0210
     22 C          -1.8373  -18.8503   20.4438 C.3     1  UNL1        0.0722
     23 C          -3.1659  -18.8756   20.1723 C.3     1  UNL1        0.0210
@<TRIPOS>BOND
     1     3     4    1
     2     4     5    2
     3     5     6    1
     4     6     7    1
     5     6     8    2
     6     8     9    1
     7     9     1    1
     8     1     2    2
     9     1    14    1
    10    14    15    1
    11    15    16    1
    12    16    17    1
    13    17    18    1
    14    18    19    1
    15    19    20    1
    16    20    21    1
    17    19    22    1
    18    22    23    1
    19     9    10    2
    20    10    11    1
    21    11    12    2
    22    12    13    1
    23    13     4    1
    24    12     8    1
    25    21    16    1
    26    23    16    1
