@<TRIPOS>MOLECULE
*****
 44 49 0 0 0
SMALL
GASTEIGER

@<TRIPOS>ATOM
      1 C          -2.9071    4.2927   21.8082 C.ar    1  UNL1        0.1348
      2 C          -2.7088    5.1047   23.0537 C.ar    1  UNL1        0.0346
      3 C          -1.5556    4.8088   23.9662 C.ar    1  UNL1        0.0065
      4 C          -0.6007    3.7010   23.6332 C.ar    1  UNL1        0.0433
      5 C          -0.7990    2.8891   22.3877 C.ar    1  UNL1        0.1256
      6 N          -1.9522    3.1849   21.4752 N.ar    1  UNL1       -0.2222
      7 C           0.5525    3.4052   24.5457 C.ar    1  UNL1        0.0865
      8 C           1.9461    3.9427   24.4081 C.ar    1  UNL1        0.1163
      9 N           2.7695    3.3896   25.5334 N.ar    1  UNL1       -0.2250
     10 C           1.8848    2.5102   26.3664 C.ar    1  UNL1        0.1475
     11 C           2.1497    1.7020   27.6019 C.ar    1  UNL1        0.0332
     12 C           1.0446    0.9033   28.2269 C.ar    1  UNL1       -0.0174
     13 C           1.3095    0.0950   29.4624 C.3     1  UNL1        0.0312
     14 C          -0.3257    0.9129   27.6166 C.ar    1  UNL1        0.0149
     15 C          -0.5906    1.7212   26.3811 C.ar    1  UNL1        0.0811
     16 N           0.5146    2.5199   25.7560 N.ar    1  UNL1       -0.2887
     17 C           2.4312    4.8705   23.3339 C.ar    1  UNL1        0.0999
     18 C           2.1191    6.3336   23.2254 C.ar    1  UNL1        0.1193
     19 N           2.8086    6.8654   22.0040 N.ar    1  UNL1       -0.2223
     20 C           3.5469    5.7309   21.3577 C.ar    1  UNL1        0.1787
     21 N           3.3137    4.4980   22.1796 N.ar    1  UNL1       -0.3058
     22 C           3.8660    3.1322   21.8968 C.3     1  UNL1        0.1321
     23 C          -5.4271    4.0624   21.2196 C.2     1  UNL1        0.2414
     24 O          -5.6408    3.2404   22.4561 O.2     1  UNL1       -0.2733
     25 N          -4.0603    4.5885   20.8958 N.am    1  UNL1       -0.2682
     26 H          -3.9200    5.1280   20.0843 H       1  UNL1        0.1563
     27 C          -6.5803    4.3582   20.3072 C.3     1  UNL1        0.1319
     28 C          -6.6582    3.7027   18.9602 C.3     1  UNL1        0.0270
     29 C          -7.4223    6.2228   21.9085 C.3     1  UNL1        0.0862
     30 N          -7.6555    5.3095   20.7416 N.3     1  UNL1       -0.2902
     31 H          -7.8643    5.9041   19.9395 H       1  UNL1        0.1237
     32 C           0.1559    1.7812   22.0546 C.1     1  UNL1       -0.0404
     33 C           1.1107    0.6733   21.7216 C.1     1  UNL1       -0.0583
     34 C           2.0656   -0.4345   21.3885 C.ar    1  UNL1        0.0420
     35 C           2.1300   -0.9742   19.9904 C.ar    1  UNL1        0.0083
     36 C           3.0848   -2.0820   19.6574 C.ar    1  UNL1        0.0018
     37 C           3.9753   -2.6501   20.7224 C.ar    1  UNL1        0.0137
     38 C           4.9302   -3.7580   20.3894 C.ar    1  UNL1        0.0594
     39 C           4.9946   -4.2977   18.9913 C.3     1  UNL1        0.0521
     40 N           5.8207   -4.3261   21.4544 N.ar    1  UNL1       -0.2481
     41 C           5.7563   -3.7864   22.8525 C.ar    1  UNL1        0.0984
     42 C           4.8014   -2.6786   23.1855 C.ar    1  UNL1        0.0207
     43 C           3.9110   -2.1105   22.1205 C.ar    1  UNL1        0.0033
     44 C           2.9561   -1.0027   22.4535 C.ar    1  UNL1        0.0083
@<TRIPOS>BOND
     1    29    30    1
     2    30    27    1
     3    27    28    1
     4    27    23    1
     5    23    24    2
     6    23    25   am
     7    25     1    1
     8     1     2   ar
     9     2     3   ar
    10     3     4   ar
    11     4     7    1
    12     7     8   ar
    13     8    17    1
    14    17    18   ar
    15    18    19   ar
    16    19    20   ar
    17    20    21   ar
    18    21    22    1
    19     8     9   ar
    20     9    10   ar
    21    10    11   ar
    22    11    12   ar
    23    12    13    1
    24    12    14   ar
    25    14    15   ar
    26    15    16   ar
    27     4     5   ar
    28     5    32    1
    29    32    33    3
    30    33    34    1
    31    34    35   ar
    32    35    36   ar
    33    36    37   ar
    34    37    38   ar
    35    38    39    1
    36    38    40   ar
    37    40    41   ar
    38    41    42   ar
    39    42    43   ar
    40    43    44   ar
    41     5     6   ar
    42     6     1   ar
    43    16     7   ar
    44    44    34   ar
    45    21    17   ar
    46    16    10   ar
    47    43    37   ar
    48    30    31    1
    49    25    26    1
@<TRIPOS>MOLECULE
*****
 44 49 0 0 0
SMALL
GASTEIGER

@<TRIPOS>ATOM
      1 C          -2.5514    4.2565   23.2884 C.ar    1  UNL1        0.1348
      2 C          -2.1831    4.9662   24.5576 C.ar    1  UNL1        0.0346
      3 C          -0.9244    4.5971   25.2851 C.ar    1  UNL1        0.0065
      4 C          -0.0339    3.5184   24.7436 C.ar    1  UNL1        0.0433
      5 C          -0.4022    2.8087   23.4745 C.ar    1  UNL1        0.1256
      6 N          -1.6609    3.1778   22.7469 N.ar    1  UNL1       -0.2222
      7 C           1.2248    3.1493   25.4712 C.ar    1  UNL1        0.0865
      8 C           2.5942    3.6972   25.1979 C.ar    1  UNL1        0.1163
      9 N           3.5509    3.0540   26.1576 N.ar    1  UNL1       -0.2250
     10 C           2.7728    2.1086   27.0240 C.ar    1  UNL1        0.1475
     11 C           3.1876    1.2017   28.1445 C.ar    1  UNL1        0.0332
     12 C           2.1648    0.3536   28.8407 C.ar    1  UNL1       -0.0174
     13 C           2.5796   -0.5533   29.9612 C.3     1  UNL1        0.0312
     14 C           0.7272    0.4125   28.4166 C.ar    1  UNL1        0.0149
     15 C           0.3124    1.3194   27.2961 C.ar    1  UNL1        0.0811
     16 N           1.3353    2.1675   26.5998 N.ar    1  UNL1       -0.2887
     17 C           2.9452    4.7104   24.1490 C.ar    1  UNL1        0.0999
     18 C           3.0198    4.4608   22.6719 C.ar    1  UNL1        0.1193
     19 N           3.4040    5.7472   22.0030 N.ar    1  UNL1       -0.2223
     20 C           3.5669    6.7920   23.0669 C.ar    1  UNL1        0.1787
     21 N           3.2833    6.1513   24.3932 N.ar    1  UNL1       -0.3058
     22 C           3.3298    6.8319   25.7292 C.3     1  UNL1        0.1321
     23 C          -5.0986    3.9331   22.8926 C.2     1  UNL1        0.2414
     24 O          -5.1285    2.8715   23.9519 O.2     1  UNL1       -0.2733
     25 N          -3.8101    4.6256   22.5609 N.am    1  UNL1       -0.2682
     26 H          -3.7905    5.3224   21.8656 H       1  UNL1        0.1563
     27 C          -6.3574    4.3022   22.1650 C.3     1  UNL1        0.1319
     28 C          -6.2805    4.9435   20.8111 C.3     1  UNL1        0.0270
     29 C          -8.1430    4.8320   23.9762 C.3     1  UNL1        0.0862
     30 N          -7.6929    4.0301   22.7912 N.3     1  UNL1       -0.2902
     31 H          -8.3930    4.1643   22.0617 H       1  UNL1        0.1237
     32 C           0.4883    1.7299   22.9328 C.1     1  UNL1       -0.0404
     33 C           1.3787    0.6512   22.3912 C.1     1  UNL1       -0.0583
     34 C           2.2692   -0.4277   21.8496 C.ar    1  UNL1        0.0420
     35 C           2.1545   -0.8440   20.4131 C.ar    1  UNL1        0.0083
     36 C           3.0450   -1.9228   19.8716 C.ar    1  UNL1        0.0018
     37 C           4.0502   -2.5852   20.7665 C.ar    1  UNL1        0.0137
     38 C           4.9406   -3.6640   20.2249 C.ar    1  UNL1        0.0594
     39 C           4.8259   -4.0804   18.7884 C.3     1  UNL1        0.0521
     40 N           5.9458   -4.3264   21.1198 N.ar    1  UNL1       -0.2481
     41 C           6.0605   -3.9099   22.5563 C.ar    1  UNL1        0.0984
     42 C           5.1701   -2.8312   23.0978 C.ar    1  UNL1        0.0207
     43 C           4.1649   -2.1688   22.2029 C.ar    1  UNL1        0.0033
     44 C           3.2744   -1.0900   22.7445 C.ar    1  UNL1        0.0083
@<TRIPOS>BOND
     1    29    30    1
     2    30    27    1
     3    27    28    1
     4    27    23    1
     5    23    24    2
     6    23    25   am
     7    25     1    1
     8     1     2   ar
     9     2     3   ar
    10     3     4   ar
    11     4     7    1
    12     7     8   ar
    13     8    17    1
    14    17    18   ar
    15    18    19   ar
    16    19    20   ar
    17    20    21   ar
    18    21    22    1
    19     8     9   ar
    20     9    10   ar
    21    10    11   ar
    22    11    12   ar
    23    12    13    1
    24    12    14   ar
    25    14    15   ar
    26    15    16   ar
    27     4     5   ar
    28     5    32    1
    29    32    33    3
    30    33    34    1
    31    34    35   ar
    32    35    36   ar
    33    36    37   ar
    34    37    38   ar
    35    38    39    1
    36    38    40   ar
    37    40    41   ar
    38    41    42   ar
    39    42    43   ar
    40    43    44   ar
    41     5     6   ar
    42     6     1   ar
    43    16     7   ar
    44    44    34   ar
    45    21    17   ar
    46    16    10   ar
    47    43    37   ar
    48    30    31    1
    49    25    26    1
@<TRIPOS>MOLECULE
*****
 44 49 0 0 0
SMALL
GASTEIGER

@<TRIPOS>ATOM
      1 C           2.7701   -0.1473   29.8446 C.ar    1  UNL1        0.1348
      2 C           2.2531    1.2399   30.0859 C.ar    1  UNL1        0.0346
      3 C           1.9921    2.1553   28.9267 C.ar    1  UNL1        0.0065
      4 C           2.2482    1.6835   27.5260 C.ar    1  UNL1        0.0433
      5 C           2.7652    0.2963   27.2847 C.ar    1  UNL1        0.1256
      6 N           3.0261   -0.6191   28.4439 N.ar    1  UNL1       -0.2222
      7 C           1.9872    2.5990   26.3668 C.ar    1  UNL1        0.0865
      8 C           3.0217    3.3710   25.6027 C.ar    1  UNL1        0.1163
      9 N           2.3198    4.1523   24.5317 N.ar    1  UNL1       -0.2250
     10 C           0.8515    3.8631   24.6339 C.ar    1  UNL1        0.1475
     11 C          -0.3249    4.3499   23.8408 C.ar    1  UNL1        0.0332
     12 C          -1.7068    3.8767   24.1817 C.ar    1  UNL1       -0.0174
     13 C          -2.8833    4.3635   23.3886 C.3     1  UNL1        0.0312
     14 C          -1.9125    2.9167   25.3159 C.ar    1  UNL1        0.0149
     15 C          -0.7361    2.4299   26.1090 C.ar    1  UNL1        0.0811
     16 N           0.6460    2.9031   25.7680 N.ar    1  UNL1       -0.2887
     17 C           4.4988    3.3631   25.8638 C.ar    1  UNL1        0.0999
     18 C           5.1750    3.8316   27.1180 C.ar    1  UNL1        0.1193
     19 N           6.6532    3.6434   26.9459 N.ar    1  UNL1       -0.2223
     20 C           6.8905    3.0587   25.5850 C.ar    1  UNL1        0.1787
     21 N           5.5590    2.8854   24.9163 N.ar    1  UNL1       -0.3058
     22 C           5.3283    2.3317   23.5414 C.3     1  UNL1        0.1321
     23 C           4.4132   -1.1735   31.5757 C.2     1  UNL1        0.2414
     24 O           5.5346   -0.3688   30.9883 O.2     1  UNL1       -0.2733
     25 N           3.0310   -1.0628   31.0038 N.am    1  UNL1       -0.2682
     26 H           2.2950   -1.5909   31.3893 H       1  UNL1        0.1563
     27 C           4.6742   -2.0889   32.7350 C.3     1  UNL1        0.1319
     28 C           4.2509   -1.6882   34.1171 C.3     1  UNL1        0.0270
     29 C           6.8142   -3.4421   32.1528 C.3     1  UNL1        0.0862
     30 N           5.3584   -3.4050   32.5121 N.3     1  UNL1       -0.2902
     31 H           5.2540   -3.9408   33.3738 H       1  UNL1        0.1237
     32 C           3.0213   -0.1755   25.8840 C.1     1  UNL1       -0.0404
     33 C           3.2773   -0.6473   24.4834 C.1     1  UNL1       -0.0583
     34 C           3.5334   -1.1192   23.0827 C.ar    1  UNL1        0.0420
     35 C           4.1661   -2.4585   22.8463 C.ar    1  UNL1        0.0083
     36 C           4.4221   -2.9303   21.4457 C.ar    1  UNL1        0.0018
     37 C           4.0455   -2.0628   20.2814 C.ar    1  UNL1        0.0137
     38 C           4.3015   -2.5346   18.8807 C.ar    1  UNL1        0.0594
     39 C           4.9343   -3.8739   18.6444 C.3     1  UNL1        0.0521
     40 N           3.9249   -1.6671   17.7164 N.ar    1  UNL1       -0.2481
     41 C           3.2921   -0.3277   17.9528 C.ar    1  UNL1        0.0984
     42 C           3.0360    0.1440   19.3535 C.ar    1  UNL1        0.0207
     43 C           3.4127   -0.7235   20.5178 C.ar    1  UNL1        0.0033
     44 C           3.1567   -0.2517   21.9184 C.ar    1  UNL1        0.0083
@<TRIPOS>BOND
     1    29    30    1
     2    30    27    1
     3    27    28    1
     4    27    23    1
     5    23    24    2
     6    23    25   am
     7    25     1    1
     8     1     2   ar
     9     2     3   ar
    10     3     4   ar
    11     4     7    1
    12     7     8   ar
    13     8    17    1
    14    17    18   ar
    15    18    19   ar
    16    19    20   ar
    17    20    21   ar
    18    21    22    1
    19     8     9   ar
    20     9    10   ar
    21    10    11   ar
    22    11    12   ar
    23    12    13    1
    24    12    14   ar
    25    14    15   ar
    26    15    16   ar
    27     4     5   ar
    28     5    32    1
    29    32    33    3
    30    33    34    1
    31    34    35   ar
    32    35    36   ar
    33    36    37   ar
    34    37    38   ar
    35    38    39    1
    36    38    40   ar
    37    40    41   ar
    38    41    42   ar
    39    42    43   ar
    40    43    44   ar
    41     5     6   ar
    42     6     1   ar
    43    16     7   ar
    44    44    34   ar
    45    21    17   ar
    46    16    10   ar
    47    43    37   ar
    48    30    31    1
    49    25    26    1
@<TRIPOS>MOLECULE
*****
 44 49 0 0 0
SMALL
GASTEIGER

@<TRIPOS>ATOM
      1 C          -2.4149    4.3249   23.4131 C.ar    1  UNL1        0.1348
      2 C          -1.9696    5.1362   24.5935 C.ar    1  UNL1        0.0346
      3 C          -0.6550    4.8417   25.2531 C.ar    1  UNL1        0.0065
      4 C           0.2144    3.7359   24.7322 C.ar    1  UNL1        0.0433
      5 C          -0.2309    2.9246   23.5518 C.ar    1  UNL1        0.1256
      6 N          -1.5455    3.2191   22.8922 N.ar    1  UNL1       -0.2222
      7 C           1.5290    3.4414   25.3918 C.ar    1  UNL1        0.0865
      8 C           1.7441    2.5231   26.5582 C.ar    1  UNL1        0.1163
      9 N           3.2074    2.5276   26.8880 N.ar    1  UNL1       -0.2250
     10 C           3.8967    3.4487   25.9255 C.ar    1  UNL1        0.1475
     11 C           5.3348    3.8462   25.7715 C.ar    1  UNL1        0.0332
     12 C           5.7357    4.8083   24.6929 C.ar    1  UNL1       -0.0174
     13 C           7.1738    5.2058   24.5389 C.3     1  UNL1        0.0312
     14 C           4.6984    5.3731   23.7681 C.ar    1  UNL1        0.0149
     15 C           3.2602    4.9756   23.9220 C.ar    1  UNL1        0.0811
     16 N           2.8593    4.0134   25.0007 N.ar    1  UNL1       -0.2887
     17 C           0.6823    1.7381   27.2698 C.ar    1  UNL1        0.0999
     18 C          -0.7782    2.0758   27.3217 C.ar    1  UNL1        0.1193
     19 N          -1.4685    1.0240   28.1385 N.ar    1  UNL1       -0.2223
     20 C          -0.4345    0.0362   28.5915 C.ar    1  UNL1        0.1787
     21 N           0.8948    0.4776   28.0546 N.ar    1  UNL1       -0.3058
     22 C           2.2063   -0.2193   28.2655 C.3     1  UNL1        0.1321
     23 C          -4.9248    3.7622   23.0475 C.2     1  UNL1        0.2414
     24 O          -4.8055    2.6104   24.0011 O.2     1  UNL1       -0.2733
     25 N          -3.7295    4.6194   22.7535 N.am    1  UNL1       -0.2682
     26 H          -3.8078    5.3753   22.1276 H       1  UNL1        0.1563
     27 C          -6.2394    4.0567   22.3879 C.3     1  UNL1        0.1319
     28 C          -6.2797    4.4660   20.9454 C.3     1  UNL1        0.0270
     29 C          -7.8872    5.0091   24.1564 C.3     1  UNL1        0.0862
     30 N          -7.5137    3.9418   23.1708 N.3     1  UNL1       -0.2902
     31 H          -8.2729    3.8895   22.4916 H       1  UNL1        0.1237
     32 C           0.6385    1.8187   23.0308 C.1     1  UNL1       -0.0404
     33 C           1.5079    0.7129   22.5099 C.1     1  UNL1       -0.0583
     34 C           2.3772   -0.3930   21.9890 C.ar    1  UNL1        0.0420
     35 C           2.2482   -0.8401   20.5631 C.ar    1  UNL1        0.0083
     36 C           3.1175   -1.9459   20.0422 C.ar    1  UNL1        0.0018
     37 C           4.1159   -2.6046   20.9473 C.ar    1  UNL1        0.0137
     38 C           4.9853   -3.7105   20.4264 C.ar    1  UNL1        0.0594
     39 C           4.8562   -4.1576   19.0004 C.3     1  UNL1        0.0521
     40 N           5.9838   -4.3692   21.3315 N.ar    1  UNL1       -0.2481
     41 C           6.1128   -3.9221   22.7575 C.ar    1  UNL1        0.0984
     42 C           5.2435   -2.8163   23.2784 C.ar    1  UNL1        0.0207
     43 C           4.2450   -2.1575   22.3733 C.ar    1  UNL1        0.0033
     44 C           3.3757   -1.0517   22.8941 C.ar    1  UNL1        0.0083
@<TRIPOS>BOND
     1    29    30    1
     2    30    27    1
     3    27    28    1
     4    27    23    1
     5    23    24    2
     6    23    25   am
     7    25     1    1
     8     1     2   ar
     9     2     3   ar
    10     3     4   ar
    11     4     7    1
    12     7     8   ar
    13     8    17    1
    14    17    18   ar
    15    18    19   ar
    16    19    20   ar
    17    20    21   ar
    18    21    22    1
    19     8     9   ar
    20     9    10   ar
    21    10    11   ar
    22    11    12   ar
    23    12    13    1
    24    12    14   ar
    25    14    15   ar
    26    15    16   ar
    27     4     5   ar
    28     5    32    1
    29    32    33    3
    30    33    34    1
    31    34    35   ar
    32    35    36   ar
    33    36    37   ar
    34    37    38   ar
    35    38    39    1
    36    38    40   ar
    37    40    41   ar
    38    41    42   ar
    39    42    43   ar
    40    43    44   ar
    41     5     6   ar
    42     6     1   ar
    43    16     7   ar
    44    44    34   ar
    45    21    17   ar
    46    16    10   ar
    47    43    37   ar
    48    30    31    1
    49    25    26    1
@<TRIPOS>MOLECULE
*****
 44 49 0 0 0
SMALL
GASTEIGER

@<TRIPOS>ATOM
      1 C           0.5554    0.7948   19.7911 C.ar    1  UNL1        0.1348
      2 C           0.8484    1.5362   18.5205 C.ar    1  UNL1        0.0346
      3 C           0.1566    2.8360   18.2340 C.ar    1  UNL1        0.0065
      4 C          -0.8283    3.3942   19.2181 C.ar    1  UNL1        0.0433
      5 C          -1.1213    2.6527   20.4886 C.ar    1  UNL1        0.1256
      6 N          -0.4294    1.3530   20.7751 N.ar    1  UNL1       -0.2222
      7 C          -1.5201    4.6939   18.9316 C.ar    1  UNL1        0.0865
      8 C          -0.9236    6.0620   19.0814 C.ar    1  UNL1        0.1163
      9 N          -1.9647    7.0674   18.6874 N.ar    1  UNL1       -0.2250
     10 C          -3.2047    6.3206   18.2940 C.ar    1  UNL1        0.1475
     11 C          -4.5486    6.7868   17.8179 C.ar    1  UNL1        0.0332
     12 C          -5.6176    5.7861   17.4927 C.ar    1  UNL1       -0.0174
     13 C          -6.9615    6.2523   17.0165 C.3     1  UNL1        0.0312
     14 C          -5.3429    4.3192   17.6436 C.ar    1  UNL1        0.0149
     15 C          -3.9990    3.8530   18.1197 C.ar    1  UNL1        0.0811
     16 N          -2.9299    4.8538   18.4449 N.ar    1  UNL1       -0.2887
     17 C           0.4695    6.3706   19.5441 C.ar    1  UNL1        0.0999
     18 C           1.6357    6.7108   18.6642 C.ar    1  UNL1        0.1193
     19 N           2.8280    6.9436   19.5442 N.ar    1  UNL1       -0.2223
     20 C           2.3985    6.7474   20.9680 C.ar    1  UNL1        0.1787
     21 N           0.9409    6.3933   20.9679 N.ar    1  UNL1       -0.3058
     22 C           0.1020    6.1113   22.1791 C.3     1  UNL1        0.1321
     23 C           2.6848   -0.5109   20.5058 C.2     1  UNL1        0.2414
     24 O           3.4306    0.7829   20.6475 O.2     1  UNL1       -0.2733
     25 N           1.2473   -0.5050   20.0776 N.am    1  UNL1       -0.2682
     26 H           0.7578   -1.3541   19.9846 H       1  UNL1        0.1563
     27 C           3.3766   -1.8107   20.7923 C.3     1  UNL1        0.1319
     28 C           3.9111   -2.0889   22.1660 C.3     1  UNL1        0.0270
     29 C           4.5382   -2.6154   18.6121 C.3     1  UNL1        0.0862
     30 N           3.5340   -2.8321   19.7052 N.3     1  UNL1       -0.2902
     31 H           3.7795   -3.7112   20.1604 H       1  UNL1        0.1237
     32 C          -2.1061    3.2110   21.4727 C.1     1  UNL1       -0.0404
     33 C          -3.0910    3.7692   22.4568 C.1     1  UNL1       -0.0583
     34 C          -4.0759    4.3274   23.4410 C.ar    1  UNL1        0.0420
     35 C          -3.6287    4.6897   24.8261 C.ar    1  UNL1        0.0083
     36 C          -4.6136    5.2479   25.8102 C.ar    1  UNL1        0.0018
     37 C          -6.0456    5.4438   25.4090 C.ar    1  UNL1        0.0137
     38 C          -7.0305    6.0021   26.3932 C.ar    1  UNL1        0.0594
     39 C          -6.5834    6.3643   27.7784 C.3     1  UNL1        0.0521
     40 N          -8.4625    6.1981   25.9920 N.ar    1  UNL1       -0.2481
     41 C          -8.9097    5.8358   24.6067 C.ar    1  UNL1        0.0984
     42 C          -7.9248    5.2776   23.6227 C.ar    1  UNL1        0.0207
     43 C          -6.4928    5.0816   24.0238 C.ar    1  UNL1        0.0033
     44 C          -5.5079    4.5234   23.0398 C.ar    1  UNL1        0.0083
@<TRIPOS>BOND
     1    29    30    1
     2    30    27    1
     3    27    28    1
     4    27    23    1
     5    23    24    2
     6    23    25   am
     7    25     1    1
     8     1     2   ar
     9     2     3   ar
    10     3     4   ar
    11     4     7    1
    12     7     8   ar
    13     8    17    1
    14    17    18   ar
    15    18    19   ar
    16    19    20   ar
    17    20    21   ar
    18    21    22    1
    19     8     9   ar
    20     9    10   ar
    21    10    11   ar
    22    11    12   ar
    23    12    13    1
    24    12    14   ar
    25    14    15   ar
    26    15    16   ar
    27     4     5   ar
    28     5    32    1
    29    32    33    3
    30    33    34    1
    31    34    35   ar
    32    35    36   ar
    33    36    37   ar
    34    37    38   ar
    35    38    39    1
    36    38    40   ar
    37    40    41   ar
    38    41    42   ar
    39    42    43   ar
    40    43    44   ar
    41     5     6   ar
    42     6     1   ar
    43    16     7   ar
    44    44    34   ar
    45    21    17   ar
    46    16    10   ar
    47    43    37   ar
    48    30    31    1
    49    25    26    1
@<TRIPOS>MOLECULE
*****
 44 49 0 0 0
SMALL
GASTEIGER

@<TRIPOS>ATOM
      1 C          -1.8814    3.4591   26.2322 C.ar    1  UNL1        0.1348
      2 C          -1.1619    4.3453   27.2053 C.ar    1  UNL1        0.0346
      3 C           0.3299    4.2590   27.3370 C.ar    1  UNL1        0.0065
      4 C           1.1020    3.2865   26.4956 C.ar    1  UNL1        0.0433
      5 C           0.3825    2.4004   25.5225 C.ar    1  UNL1        0.1256
      6 N          -1.1092    2.4867   25.3908 N.ar    1  UNL1       -0.2222
      7 C           2.5937    3.2002   26.6272 C.ar    1  UNL1        0.0865
      8 C           3.3444    2.3570   27.6149 C.ar    1  UNL1        0.1163
      9 N           4.8113    2.5776   27.3925 N.ar    1  UNL1       -0.2250
     10 C           4.9673    3.5572   26.2673 C.ar    1  UNL1        0.1475
     11 C           6.1802    4.1485   25.6122 C.ar    1  UNL1        0.0332
     12 C           6.0226    5.1247   24.4842 C.ar    1  UNL1       -0.0174
     13 C           7.2355    5.7160   23.8292 C.3     1  UNL1        0.0312
     14 C           4.6521    5.5095   24.0113 C.ar    1  UNL1        0.0149
     15 C           3.4392    4.9182   24.6663 C.ar    1  UNL1        0.0811
     16 N           3.5968    3.9420   25.7944 N.ar    1  UNL1       -0.2887
     17 C           2.7351    1.4520   28.6444 C.ar    1  UNL1        0.0999
     18 C           1.9930    1.8877   29.8729 C.ar    1  UNL1        0.1193
     19 N           1.5601    0.6574   30.6139 N.ar    1  UNL1       -0.2223
     20 C           2.0348   -0.5387   29.8432 C.ar    1  UNL1        0.1787
     21 N           2.7610   -0.0477   28.6260 N.ar    1  UNL1       -0.3058
     22 C           3.4007   -0.9057   27.5749 C.3     1  UNL1        0.1321
     23 C          -3.9864    4.5300   25.1496 C.2     1  UNL1        0.2414
     24 O          -3.1079    5.4284   24.3302 O.2     1  UNL1       -0.2733
     25 N          -3.3731    3.5454   26.1006 N.am    1  UNL1       -0.2682
     26 H          -3.9497    2.9558   26.6383 H       1  UNL1        0.1563
     27 C          -5.4781    4.6163   25.0179 C.3     1  UNL1        0.1319
     28 C          -6.2521    5.5766   25.8717 C.3     1  UNL1        0.0270
     29 C          -7.2167    4.3363   23.1077 C.3     1  UNL1        0.0862
     30 N          -6.1958    3.7424   24.0325 N.3     1  UNL1       -0.2902
     31 H          -5.4813    3.3124   23.4452 H       1  UNL1        0.1237
     32 C           1.1547    1.4278   24.6810 C.1     1  UNL1       -0.0404
     33 C           1.9267    0.4553   23.8396 C.1     1  UNL1       -0.0583
     34 C           2.6989   -0.5172   22.9981 C.ar    1  UNL1        0.0420
     35 C           2.4066   -0.6374   21.5318 C.ar    1  UNL1        0.0083
     36 C           3.1788   -1.6099   20.6905 C.ar    1  UNL1        0.0018
     37 C           4.2432   -2.4622   21.3154 C.ar    1  UNL1        0.0137
     38 C           5.0154   -3.4348   20.4739 C.ar    1  UNL1        0.0594
     39 C           4.7231   -3.5550   19.0076 C.3     1  UNL1        0.0521
     40 N           6.0798   -4.2871   21.0988 N.ar    1  UNL1       -0.2481
     41 C           6.3721   -4.1669   22.5652 C.ar    1  UNL1        0.0984
     42 C           5.5999   -3.1944   23.4066 C.ar    1  UNL1        0.0207
     43 C           4.5355   -2.3421   22.7817 C.ar    1  UNL1        0.0033
     44 C           3.7633   -1.3696   23.6231 C.ar    1  UNL1        0.0083
@<TRIPOS>BOND
     1    29    30    1
     2    30    27    1
     3    27    28    1
     4    27    23    1
     5    23    24    2
     6    23    25   am
     7    25     1    1
     8     1     2   ar
     9     2     3   ar
    10     3     4   ar
    11     4     7    1
    12     7     8   ar
    13     8    17    1
    14    17    18   ar
    15    18    19   ar
    16    19    20   ar
    17    20    21   ar
    18    21    22    1
    19     8     9   ar
    20     9    10   ar
    21    10    11   ar
    22    11    12   ar
    23    12    13    1
    24    12    14   ar
    25    14    15   ar
    26    15    16   ar
    27     4     5   ar
    28     5    32    1
    29    32    33    3
    30    33    34    1
    31    34    35   ar
    32    35    36   ar
    33    36    37   ar
    34    37    38   ar
    35    38    39    1
    36    38    40   ar
    37    40    41   ar
    38    41    42   ar
    39    42    43   ar
    40    43    44   ar
    41     5     6   ar
    42     6     1   ar
    43    16     7   ar
    44    44    34   ar
    45    21    17   ar
    46    16    10   ar
    47    43    37   ar
    48    30    31    1
    49    25    26    1
@<TRIPOS>MOLECULE
*****
 44 49 0 0 0
SMALL
GASTEIGER

@<TRIPOS>ATOM
      1 C           6.6975   -4.2839   24.8916 C.ar    1  UNL1        0.1348
      2 C           7.7990   -4.2910   23.8735 C.ar    1  UNL1        0.0346
      3 C           7.7653   -3.3262   22.7254 C.ar    1  UNL1        0.0065
      4 C           6.6302   -2.3544   22.5954 C.ar    1  UNL1        0.0433
      5 C           5.5287   -2.3473   23.6134 C.ar    1  UNL1        0.1256
      6 N           5.5623   -3.3121   24.7616 N.ar    1  UNL1       -0.2222
      7 C           6.5966   -1.3897   21.4473 C.ar    1  UNL1        0.0865
      8 C           5.8972   -1.6020   20.1374 C.ar    1  UNL1        0.1163
      9 N           6.1247   -0.3868   19.2880 N.ar    1  UNL1       -0.2250
     10 C           6.9648    0.5766   20.0729 C.ar    1  UNL1        0.1475
     11 C           7.5020    1.9382   19.7450 C.ar    1  UNL1        0.0332
     12 C           8.3307    2.6800   20.7514 C.ar    1  UNL1       -0.0174
     13 C           8.8678    4.0415   20.4235 C.3     1  UNL1        0.0312
     14 C           8.6223    2.0602   22.0860 C.ar    1  UNL1        0.0149
     15 C           8.0852    0.6986   22.4139 C.ar    1  UNL1        0.0811
     16 N           7.2564   -0.0432   21.4074 N.ar    1  UNL1       -0.2887
     17 C           5.1086   -2.8164   19.7456 C.ar    1  UNL1        0.0999
     18 C           5.6698   -4.1775   19.4593 C.ar    1  UNL1        0.1193
     19 N           4.5284   -5.0852   19.1081 N.ar    1  UNL1       -0.2223
     20 C           3.2616   -4.2849   19.1775 C.ar    1  UNL1        0.1787
     21 N           3.6202   -2.8827   19.5715 N.ar    1  UNL1       -0.3058
     22 C           2.6590   -1.7463   19.7585 C.3     1  UNL1        0.1321
     23 C           7.2013   -4.7925   27.3891 C.2     1  UNL1        0.2414
     24 O           7.6378   -3.3716   27.5904 O.2     1  UNL1       -0.2733
     25 N           6.7311   -5.2486   26.0397 N.am    1  UNL1       -0.2682
     26 H           6.4446   -6.1812   25.9076 H       1  UNL1        0.1563
     27 C           7.2349   -5.7572   28.5372 C.3     1  UNL1        0.1319
     28 C           6.8422   -5.3017   29.9114 C.3     1  UNL1        0.0270
     29 C           9.0240   -7.6296   28.7450 C.3     1  UNL1        0.0862
     30 N           7.6612   -7.1775   28.3111 N.3     1  UNL1       -0.2902
     31 H           6.9864   -7.7683   28.7970 H       1  UNL1        0.1237
     32 C           4.3934   -1.3755   23.4835 C.1     1  UNL1       -0.0404
     33 C           3.2582   -0.4037   23.3535 C.1     1  UNL1       -0.0583
     34 C           2.1230    0.5681   23.2235 C.ar    1  UNL1        0.0420
     35 C           1.8401    1.2186   21.9018 C.ar    1  UNL1        0.0083
     36 C           0.7050    2.1904   21.7719 C.ar    1  UNL1        0.0018
     37 C          -0.1474    2.5117   22.9637 C.ar    1  UNL1        0.0137
     38 C          -1.2826    3.4835   22.8337 C.ar    1  UNL1        0.0594
     39 C          -1.5655    4.1340   21.5120 C.3     1  UNL1        0.0521
     40 N          -2.1350    3.8049   24.0254 N.ar    1  UNL1       -0.2481
     41 C          -1.8521    3.1543   25.3471 C.ar    1  UNL1        0.0984
     42 C          -0.7169    2.1825   25.4771 C.ar    1  UNL1        0.0207
     43 C           0.1354    1.8612   24.2853 C.ar    1  UNL1        0.0033
     44 C           1.2706    0.8894   24.4152 C.ar    1  UNL1        0.0083
@<TRIPOS>BOND
     1    29    30    1
     2    30    27    1
     3    27    28    1
     4    27    23    1
     5    23    24    2
     6    23    25   am
     7    25     1    1
     8     1     2   ar
     9     2     3   ar
    10     3     4   ar
    11     4     7    1
    12     7     8   ar
    13     8    17    1
    14    17    18   ar
    15    18    19   ar
    16    19    20   ar
    17    20    21   ar
    18    21    22    1
    19     8     9   ar
    20     9    10   ar
    21    10    11   ar
    22    11    12   ar
    23    12    13    1
    24    12    14   ar
    25    14    15   ar
    26    15    16   ar
    27     4     5   ar
    28     5    32    1
    29    32    33    3
    30    33    34    1
    31    34    35   ar
    32    35    36   ar
    33    36    37   ar
    34    37    38   ar
    35    38    39    1
    36    38    40   ar
    37    40    41   ar
    38    41    42   ar
    39    42    43   ar
    40    43    44   ar
    41     5     6   ar
    42     6     1   ar
    43    16     7   ar
    44    44    34   ar
    45    21    17   ar
    46    16    10   ar
    47    43    37   ar
    48    30    31    1
    49    25    26    1
@<TRIPOS>MOLECULE
*****
 44 49 0 0 0
SMALL
GASTEIGER

@<TRIPOS>ATOM
      1 C           2.7587    0.4743   26.6666 C.ar    1  UNL1        0.1348
      2 C           3.6061    1.2522   27.6293 C.ar    1  UNL1        0.0346
      3 C           3.0915    2.5333   28.2157 C.ar    1  UNL1        0.0065
      4 C           1.7295    3.0366   27.8395 C.ar    1  UNL1        0.0433
      5 C           0.8821    2.2587   26.8769 C.ar    1  UNL1        0.1256
      6 N           1.3967    0.9776   26.2904 N.ar    1  UNL1       -0.2222
      7 C           1.2149    4.3177   28.4260 C.ar    1  UNL1        0.0865
      8 C           1.1131    5.6346   27.7150 C.ar    1  UNL1        0.1163
      9 N           0.5470    6.6377   28.6759 N.ar    1  UNL1       -0.2250
     10 C           0.2990    5.9407   29.9809 C.ar    1  UNL1        0.1475
     11 C          -0.2494    6.4264   31.2898 C.ar    1  UNL1        0.0332
     12 C          -0.3849    5.4783   32.4442 C.ar    1  UNL1       -0.0174
     13 C          -0.9333    5.9640   33.7532 C.3     1  UNL1        0.0312
     14 C           0.0278    4.0445   32.2898 C.ar    1  UNL1        0.0149
     15 C           0.5762    3.5588   30.9808 C.ar    1  UNL1        0.0811
     16 N           0.7118    4.5069   29.8263 N.ar    1  UNL1       -0.2887
     17 C           1.5079    5.9015   26.2927 C.ar    1  UNL1        0.0999
     18 C           2.8799    5.7296   25.7115 C.ar    1  UNL1        0.1193
     19 N           2.8201    6.1091   24.2615 N.ar    1  UNL1       -0.2223
     20 C           1.4110    6.5156   23.9467 C.ar    1  UNL1        0.1787
     21 N           0.6000    6.3874   25.2020 N.ar    1  UNL1       -0.3058
     22 C          -0.8622    6.6915   25.3420 C.3     1  UNL1        0.1321
     23 C           4.0364   -0.7874   24.7890 C.2     1  UNL1        0.2414
     24 O           4.2849    0.5132   24.0842 O.2     1  UNL1       -0.2733
     25 N           3.2733   -0.8068   26.0802 N.am    1  UNL1       -0.2682
     26 H           3.1102   -1.6604   26.5428 H       1  UNL1        0.1563
     27 C           4.5510   -2.0685   24.2026 C.3     1  UNL1        0.1319
     28 C           4.2089   -2.4371   22.7893 C.3     1  UNL1        0.0270
     29 C           6.3582   -3.9284   24.3594 C.3     1  UNL1        0.0862
     30 N           5.4076   -2.9810   25.0293 N.3     1  UNL1       -0.2902
     31 H           5.9667   -2.3861   25.6408 H       1  UNL1        0.1237
     32 C          -0.4800    2.7620   26.5006 C.1     1  UNL1       -0.0404
     33 C          -1.8421    3.2651   26.1243 C.1     1  UNL1       -0.0583
     34 C          -3.2042    3.7684   25.7481 C.ar    1  UNL1        0.0420
     35 C          -4.0206    4.5384   26.7433 C.ar    1  UNL1        0.0083
     36 C          -5.3826    5.0416   26.3670 C.ar    1  UNL1        0.0018
     37 C          -5.9282    4.7748   24.9955 C.ar    1  UNL1        0.0137
     38 C          -7.2903    5.2780   24.6193 C.ar    1  UNL1        0.0594
     39 C          -8.1067    6.0480   25.6145 C.3     1  UNL1        0.0521
     40 N          -7.8360    5.0112   23.2477 N.ar    1  UNL1       -0.2481
     41 C          -7.0195    4.2412   22.2525 C.ar    1  UNL1        0.0984
     42 C          -5.6575    3.7380   22.6287 C.ar    1  UNL1        0.0207
     43 C          -5.1118    4.0048   24.0003 C.ar    1  UNL1        0.0033
     44 C          -3.7498    3.5016   24.3766 C.ar    1  UNL1        0.0083
@<TRIPOS>BOND
     1    29    30    1
     2    30    27    1
     3    27    28    1
     4    27    23    1
     5    23    24    2
     6    23    25   am
     7    25     1    1
     8     1     2   ar
     9     2     3   ar
    10     3     4   ar
    11     4     7    1
    12     7     8   ar
    13     8    17    1
    14    17    18   ar
    15    18    19   ar
    16    19    20   ar
    17    20    21   ar
    18    21    22    1
    19     8     9   ar
    20     9    10   ar
    21    10    11   ar
    22    11    12   ar
    23    12    13    1
    24    12    14   ar
    25    14    15   ar
    26    15    16   ar
    27     4     5   ar
    28     5    32    1
    29    32    33    3
    30    33    34    1
    31    34    35   ar
    32    35    36   ar
    33    36    37   ar
    34    37    38   ar
    35    38    39    1
    36    38    40   ar
    37    40    41   ar
    38    41    42   ar
    39    42    43   ar
    40    43    44   ar
    41     5     6   ar
    42     6     1   ar
    43    16     7   ar
    44    44    34   ar
    45    21    17   ar
    46    16    10   ar
    47    43    37   ar
    48    30    31    1
    49    25    26    1
@<TRIPOS>MOLECULE
*****
 44 49 0 0 0
SMALL
GASTEIGER

@<TRIPOS>ATOM
      1 C           1.4623    1.3641   19.0556 C.ar    1  UNL1        0.1348
      2 C           0.5449    2.3524   18.3987 C.ar    1  UNL1        0.0346
      3 C          -0.3133    3.2519   19.2379 C.ar    1  UNL1        0.0065
      4 C          -0.2541    3.1631   20.7341 C.ar    1  UNL1        0.0433
      5 C           0.6633    2.1748   21.3910 C.ar    1  UNL1        0.1256
      6 N           1.5215    1.2753   20.5517 N.ar    1  UNL1       -0.2222
      7 C          -1.1123    4.0626   21.5734 C.ar    1  UNL1        0.0865
      8 C          -0.6316    5.2110   22.4100 C.ar    1  UNL1        0.1163
      9 N          -1.8241    5.8298   23.0770 N.ar    1  UNL1       -0.2250
     10 C          -3.0420    5.0638   22.6527 C.ar    1  UNL1        0.1475
     11 C          -4.4946    5.2196   22.9924 C.ar    1  UNL1        0.0332
     12 C          -5.5074    4.2833   22.4029 C.ar    1  UNL1       -0.0174
     13 C          -6.9601    4.4392   22.7426 C.3     1  UNL1        0.0312
     14 C          -5.0675    3.1911   21.4735 C.ar    1  UNL1        0.0149
     15 C          -3.6149    3.0352   21.1338 C.ar    1  UNL1        0.0811
     16 N          -2.6020    3.9716   21.7234 N.ar    1  UNL1       -0.2887
     17 C           0.7918    5.6616   22.5542 C.ar    1  UNL1        0.0999
     18 C           1.6287    5.5561   23.7945 C.ar    1  UNL1        0.1193
     19 N           2.9824    6.1261   23.4904 N.ar    1  UNL1       -0.2223
     20 C           2.9821    6.5840   22.0619 C.ar    1  UNL1        0.1787
     21 N           1.6283    6.2970   21.4834 N.ar    1  UNL1       -0.3058
     22 C           1.1882    6.5932   20.0802 C.3     1  UNL1        0.1321
     23 C           3.8000    0.6991   18.1373 C.2     1  UNL1        0.2414
     24 O           4.4212    1.8332   18.8977 O.2     1  UNL1       -0.2733
     25 N           2.3206    0.4646   18.2163 N.am    1  UNL1       -0.2682
     26 H           1.9128   -0.2797   17.7173 H       1  UNL1        0.1563
     27 C           4.6582   -0.2004   17.2981 C.3     1  UNL1        0.1319
     28 C           5.8759    0.3481   16.6151 C.3     1  UNL1        0.0270
     29 C           4.5875   -2.6166   18.2504 C.3     1  UNL1        0.0862
     30 N           4.2988   -1.6482   17.1418 N.3     1  UNL1       -0.2902
     31 H           3.2936   -1.6855   16.9727 H       1  UNL1        0.1237
     32 C           0.7225    2.0859   22.8873 C.1     1  UNL1       -0.0404
     33 C           0.7816    1.9971   24.3834 C.1     1  UNL1       -0.0583
     34 C           0.8408    1.9082   25.8797 C.ar    1  UNL1        0.0420
     35 C           0.1715    2.9548   26.7202 C.ar    1  UNL1        0.0083
     36 C           0.2307    2.8659   28.2164 C.ar    1  UNL1        0.0018
     37 C           0.9593    1.7304   28.8720 C.ar    1  UNL1        0.0137
     38 C           1.0184    1.6415   30.3682 C.ar    1  UNL1        0.0594
     39 C           0.3491    2.6881   31.2088 C.3     1  UNL1        0.0521
     40 N           1.7470    0.5060   31.0238 N.ar    1  UNL1       -0.2481
     41 C           2.4164   -0.5406   30.1832 C.ar    1  UNL1        0.0984
     42 C           2.3572   -0.4517   28.6870 C.ar    1  UNL1        0.0207
     43 C           1.6286    0.6838   28.0314 C.ar    1  UNL1        0.0033
     44 C           1.5694    0.7727   26.5353 C.ar    1  UNL1        0.0083
@<TRIPOS>BOND
     1    29    30    1
     2    30    27    1
     3    27    28    1
     4    27    23    1
     5    23    24    2
     6    23    25   am
     7    25     1    1
     8     1     2   ar
     9     2     3   ar
    10     3     4   ar
    11     4     7    1
    12     7     8   ar
    13     8    17    1
    14    17    18   ar
    15    18    19   ar
    16    19    20   ar
    17    20    21   ar
    18    21    22    1
    19     8     9   ar
    20     9    10   ar
    21    10    11   ar
    22    11    12   ar
    23    12    13    1
    24    12    14   ar
    25    14    15   ar
    26    15    16   ar
    27     4     5   ar
    28     5    32    1
    29    32    33    3
    30    33    34    1
    31    34    35   ar
    32    35    36   ar
    33    36    37   ar
    34    37    38   ar
    35    38    39    1
    36    38    40   ar
    37    40    41   ar
    38    41    42   ar
    39    42    43   ar
    40    43    44   ar
    41     5     6   ar
    42     6     1   ar
    43    16     7   ar
    44    44    34   ar
    45    21    17   ar
    46    16    10   ar
    47    43    37   ar
    48    30    31    1
    49    25    26    1
