@<TRIPOS>MOLECULE
*****
 43 46 0 0 0
SMALL
GASTEIGER

@<TRIPOS>ATOM
      1 C           2.8308    0.5696   20.3209 C.3     1  UNL1        0.0781
      2 C           3.6143    0.8623   21.5660 C.3     1  UNL1        0.0372
      3 C           2.8989    1.2018   22.8399 C.3     1  UNL1        0.0738
      4 N           1.3999    1.2484   22.8688 N.3     1  UNL1       -0.2725
      5 C           0.6163    0.9556   21.6236 C.3     1  UNL1        0.0738
      6 C           1.3317    0.6162   20.3497 C.3     1  UNL1        0.0372
      7 N           3.5462    0.2301   19.0469 N.am    1  UNL1       -0.2808
      8 C           3.8316   -1.2025   18.7058 C.2     1  UNL1        0.2300
      9 O           4.5470   -1.5419   17.4319 O.2     1  UNL1       -0.2745
     10 C           3.5614    2.7404   18.3776 C.3     1  UNL1        0.0233
     11 C           3.9763    1.3232   18.1141 C.3     1  UNL1        0.0934
     12 C           3.4016   -2.2956   19.6386 C.3     1  UNL1        0.1116
     13 C           4.3591   -2.8265   20.6640 C.ar    1  UNL1       -0.0130
     14 C           5.6641   -3.4266   20.2318 C.ar    1  UNL1       -0.0025
     15 C           6.6215   -3.9575   21.2571 C.ar    1  UNL1        0.0180
     16 C           6.2740   -3.8882   22.7147 C.ar    1  UNL1        0.1057
     17 C           4.9691   -3.2881   23.1469 C.ar    1  UNL1        0.0180
     18 C           4.0116   -2.7572   22.1216 C.ar    1  UNL1       -0.0025
     19 S           7.2316   -4.4192   23.7401 S.O2    1  UNL1        0.0104
     20 C           8.1891   -4.9501   24.7653 C.3     1  UNL1        0.1816
     21 O           7.7350   -5.4259   22.7486 O.2     1  UNL1       -0.1686
     22 O           6.7282   -3.4124   24.7315 O.2     1  UNL1       -0.1686
     23 C           0.6845    1.5879   24.1427 C.3     1  UNL1        0.0728
     24 C          -0.3915    2.6329   24.1431 C.3     1  UNL1        0.0261
     25 C          -1.2061    2.8703   25.3801 C.3     1  UNL1        0.0461
     26 C          -2.6282    3.3330   25.2643 C.ar    1  UNL1       -0.0139
     27 C          -3.3090    3.9662   26.4414 C.ar    1  UNL1        0.0258
     28 C          -4.7312    4.4289   26.3255 C.ar    1  UNL1        0.1421
     29 F          -5.4121    5.0622   27.5026 F       1  UNL1       -0.2041
     30 C          -5.4725    4.2583   25.0327 C.ar    1  UNL1        0.0592
     31 C          -4.7917    3.6250   23.8557 C.ar    1  UNL1        0.1421
     32 F          -5.5330    3.4545   22.5629 F       1  UNL1       -0.2041
     33 C          -3.3695    3.1624   23.9715 C.ar    1  UNL1        0.0258
     34 C          -0.5985    2.6450   26.7328 C.ar    1  UNL1       -0.0183
     35 C          -0.8411    1.3548   27.4586 C.ar    1  UNL1       -0.0026
     36 C          -0.2335    1.1296   28.8114 C.ar    1  UNL1        0.0180
     37 C           0.6167    2.1944   29.4385 C.ar    1  UNL1        0.1057
     38 C           0.8594    3.4845   28.7128 C.ar    1  UNL1        0.0180
     39 C           0.2518    3.7098   27.3599 C.ar    1  UNL1       -0.0026
     40 S           1.2243    1.9691   30.7912 S.O2    1  UNL1        0.0104
     41 C           1.8319    1.7438   32.1441 C.3     1  UNL1        0.1816
     42 O           2.5643    2.3817   30.2581 O.2     1  UNL1       -0.1686
     43 O          -0.1156    1.5566   31.3244 O.2     1  UNL1       -0.1686
@<TRIPOS>BOND
     1    10    11    1
     2    11     7    1
     3     7     8   am
     4     8     9    2
     5     8    12    1
     6    12    13    1
     7    13    14   ar
     8    14    15   ar
     9    15    16   ar
    10    16    19    1
    11    19    20    1
    12    19    21    2
    13    19    22    2
    14    16    17   ar
    15    17    18   ar
    16     7     1    1
    17     1     2    1
    18     2     3    1
    19     3     4    1
    20     4    23    1
    21    23    24    1
    22    25    24    1
    23    25    34    1
    24    34    35   ar
    25    35    36   ar
    26    36    37   ar
    27    37    40    1
    28    40    41    1
    29    40    42    2
    30    40    43    2
    31    37    38   ar
    32    38    39   ar
    33    25    26    1
    34    26    27   ar
    35    27    28   ar
    36    28    29    1
    37    28    30   ar
    38    30    31   ar
    39    31    32    1
    40    31    33   ar
    41     4     5    1
    42     5     6    1
    43    18    13   ar
    44     6     1    1
    45    39    34   ar
    46    33    26   ar
@<TRIPOS>MOLECULE
*****
 43 46 0 0 0
SMALL
GASTEIGER

@<TRIPOS>ATOM
      1 C           2.9832    0.3857   20.4363 C.3     1  UNL1        0.0781
      2 C           3.7970    0.7239   21.6501 C.3     1  UNL1        0.0372
      3 C           3.1138    1.0256   22.9510 C.3     1  UNL1        0.0738
      4 N           1.6168    0.9890   23.0380 N.3     1  UNL1       -0.2725
      5 C           0.8029    0.6508   21.8242 C.3     1  UNL1        0.0738
      6 C           1.4861    0.3491   20.5233 C.3     1  UNL1        0.0372
      7 N           3.6665    0.0840   19.1355 N.am    1  UNL1       -0.2808
      8 C           3.9636   -1.3366   18.7562 C.2     1  UNL1        0.2300
      9 O           4.6468   -1.6383   17.4553 O.2     1  UNL1       -0.2745
     10 C           3.4242    2.5555   18.3724 C.3     1  UNL1        0.0233
     11 C           4.0525    1.2028   18.2140 C.3     1  UNL1        0.0934
     12 C           3.5775   -2.4553   19.6777 C.3     1  UNL1        0.1116
     13 C           4.5470   -2.9423   20.7135 C.ar    1  UNL1       -0.0130
     14 C           4.1591   -2.9429   22.1625 C.ar    1  UNL1       -0.0025
     15 C           5.1286   -3.4298   23.1982 C.ar    1  UNL1        0.0180
     16 C           6.4861   -3.9162   22.7851 C.ar    1  UNL1        0.1057
     17 C           6.8740   -3.9157   21.3361 C.ar    1  UNL1        0.0180
     18 C           5.9045   -3.4287   20.3004 C.ar    1  UNL1       -0.0025
     19 S           7.4556   -4.4032   23.8209 S.O2    1  UNL1        0.0104
     20 C           8.4251   -4.8902   24.8567 C.3     1  UNL1        0.1816
     21 O           7.5632   -5.7158   23.1031 O.2     1  UNL1       -0.1686
     22 O           7.3480   -3.0906   24.5388 O.2     1  UNL1       -0.1686
     23 C           0.9335    1.2907   24.3388 C.3     1  UNL1        0.0728
     24 C           0.1269    2.5464   24.4888 C.3     1  UNL1        0.0261
     25 C          -0.8694    2.6692   25.6034 C.3     1  UNL1        0.0461
     26 C          -0.4837    2.2820   27.0002 C.ar    1  UNL1       -0.0139
     27 C          -0.8865    0.9441   27.5460 C.ar    1  UNL1        0.0258
     28 C          -0.5007    0.5569   28.9429 C.ar    1  UNL1        0.1421
     29 F          -0.9035   -0.7810   29.4887 F       1  UNL1       -0.2041
     30 C           0.2879    1.5076   29.7940 C.ar    1  UNL1        0.0592
     31 C           0.6907    2.8454   29.2482 C.ar    1  UNL1        0.1421
     32 F           1.4793    3.7961   30.0994 F       1  UNL1       -0.2041
     33 C           0.3049    3.2326   27.8514 C.ar    1  UNL1        0.0258
     34 C          -2.2515    3.1792   25.3211 C.ar    1  UNL1       -0.0183
     35 C          -2.7422    3.2727   23.9067 C.ar    1  UNL1       -0.0026
     36 C          -4.1242    3.7827   23.6244 C.ar    1  UNL1        0.0180
     37 C          -5.0157    4.1992   24.7565 C.ar    1  UNL1        0.1057
     38 C          -4.5251    4.1058   26.1709 C.ar    1  UNL1        0.0180
     39 C          -3.1430    3.5958   26.4533 C.ar    1  UNL1       -0.0026
     40 S          -6.3978    4.7093   24.4743 S.O2    1  UNL1        0.0104
     41 C          -7.7799    5.2193   24.1921 C.3     1  UNL1        0.1816
     42 O          -6.4013    3.9757   23.1659 O.2     1  UNL1       -0.1686
     43 O          -6.3943    5.4428   25.7826 O.2     1  UNL1       -0.1686
@<TRIPOS>BOND
     1    10    11    1
     2    11     7    1
     3     7     8   am
     4     8     9    2
     5     8    12    1
     6    12    13    1
     7    13    14   ar
     8    14    15   ar
     9    15    16   ar
    10    16    19    1
    11    19    20    1
    12    19    21    2
    13    19    22    2
    14    16    17   ar
    15    17    18   ar
    16     7     1    1
    17     1     2    1
    18     2     3    1
    19     3     4    1
    20     4    23    1
    21    23    24    1
    22    25    24    1
    23    25    34    1
    24    34    35   ar
    25    35    36   ar
    26    36    37   ar
    27    37    40    1
    28    40    41    1
    29    40    42    2
    30    40    43    2
    31    37    38   ar
    32    38    39   ar
    33    25    26    1
    34    26    27   ar
    35    27    28   ar
    36    28    29    1
    37    28    30   ar
    38    30    31   ar
    39    31    32    1
    40    31    33   ar
    41     4     5    1
    42     5     6    1
    43    18    13   ar
    44     6     1    1
    45    39    34   ar
    46    33    26   ar
@<TRIPOS>MOLECULE
*****
 43 46 0 0 0
SMALL
GASTEIGER

@<TRIPOS>ATOM
      1 C          -0.4541    3.9173   21.0278 C.3     1  UNL1        0.0781
      2 C           0.0743    2.6911   21.7112 C.3     1  UNL1        0.0372
      3 C           0.7501    2.8083   23.0452 C.3     1  UNL1        0.0738
      4 N           0.8975    4.1518   23.6958 N.3     1  UNL1       -0.2725
      5 C           0.3690    5.3781   23.0124 C.3     1  UNL1        0.0738
      6 C          -0.3068    5.2608   21.6784 C.3     1  UNL1        0.0372
      7 N          -1.1299    3.8000   19.6938 N.am    1  UNL1       -0.2808
      8 C          -0.3110    3.7831   18.4371 C.2     1  UNL1        0.2300
      9 O          -0.9868    3.6658   17.1031 O.2     1  UNL1       -0.2745
     10 C          -3.4101    3.2643   20.8178 C.3     1  UNL1        0.0233
     11 C          -2.6245    3.6997   19.6164 C.3     1  UNL1        0.0934
     12 C           1.1836    3.8834   18.5145 C.3     1  UNL1        0.1116
     13 C           2.0241    2.6442   18.4251 C.ar    1  UNL1       -0.0130
     14 C           3.5162    2.7559   18.3200 C.ar    1  UNL1       -0.0025
     15 C           4.3567    1.5167   18.2307 C.ar    1  UNL1        0.0180
     16 C           3.7050    0.1658   18.2464 C.ar    1  UNL1        0.1057
     17 C           2.2129    0.0540   18.3515 C.ar    1  UNL1        0.0180
     18 C           1.3725    1.2932   18.4408 C.ar    1  UNL1       -0.0025
     19 S           4.5455   -1.0735   18.1571 S.O2    1  UNL1        0.0104
     20 C           5.3860   -2.3126   18.0678 C.3     1  UNL1        0.1816
     21 O           4.7428   -1.0468   19.6437 O.2     1  UNL1       -0.1686
     22 O           4.3482   -1.1001   16.6704 O.2     1  UNL1       -0.1686
     23 C           1.5732    4.2690   25.0298 C.3     1  UNL1        0.0728
     24 C           0.7574    4.5099   26.2652 C.3     1  UNL1        0.0261
     25 C          -0.3452    3.5616   26.6327 C.3     1  UNL1        0.0461
     26 C          -0.0449    2.3465   27.4593 C.ar    1  UNL1       -0.0139
     27 C          -1.1019    1.3034   27.6708 C.ar    1  UNL1        0.0258
     28 C          -0.8016    0.0882   28.4974 C.ar    1  UNL1        0.1421
     29 F          -1.8585   -0.9549   28.7089 F       1  UNL1       -0.2041
     30 C           0.5556   -0.0838   29.1126 C.ar    1  UNL1        0.0592
     31 C           1.6126    0.9594   28.9011 C.ar    1  UNL1        0.1421
     32 F           2.9698    0.7873   29.5162 F       1  UNL1       -0.2041
     33 C           1.3123    2.1745   28.0745 C.ar    1  UNL1        0.0258
     34 C          -1.7480    3.8284   26.1735 C.ar    1  UNL1       -0.0183
     35 C          -2.6560    4.6912   26.9989 C.ar    1  UNL1       -0.0026
     36 C          -4.0588    4.9579   26.5397 C.ar    1  UNL1        0.0180
     37 C          -4.5537    4.3620   25.2552 C.ar    1  UNL1        0.1057
     38 C          -3.6457    3.4993   24.4298 C.ar    1  UNL1        0.0180
     39 C          -2.2428    3.2324   24.8890 C.ar    1  UNL1       -0.0026
     40 S          -5.9565    4.6288   24.7960 S.O2    1  UNL1        0.0104
     41 C          -7.3594    4.8956   24.3368 C.3     1  UNL1        0.1816
     42 O          -5.6896    3.8618   23.5349 O.2     1  UNL1       -0.1686
     43 O          -6.2234    5.3958   26.0571 O.2     1  UNL1       -0.1686
@<TRIPOS>BOND
     1    10    11    1
     2    11     7    1
     3     7     8   am
     4     8     9    2
     5     8    12    1
     6    12    13    1
     7    13    14   ar
     8    14    15   ar
     9    15    16   ar
    10    16    19    1
    11    19    20    1
    12    19    21    2
    13    19    22    2
    14    16    17   ar
    15    17    18   ar
    16     7     1    1
    17     1     2    1
    18     2     3    1
    19     3     4    1
    20     4    23    1
    21    23    24    1
    22    25    24    1
    23    25    34    1
    24    34    35   ar
    25    35    36   ar
    26    36    37   ar
    27    37    40    1
    28    40    41    1
    29    40    42    2
    30    40    43    2
    31    37    38   ar
    32    38    39   ar
    33    25    26    1
    34    26    27   ar
    35    27    28   ar
    36    28    29    1
    37    28    30   ar
    38    30    31   ar
    39    31    32    1
    40    31    33   ar
    41     4     5    1
    42     5     6    1
    43    18    13   ar
    44     6     1    1
    45    39    34   ar
    46    33    26   ar
@<TRIPOS>MOLECULE
*****
 43 46 0 0 0
SMALL
GASTEIGER

@<TRIPOS>ATOM
      1 C           4.5429   -0.5493   21.8771 C.3     1  UNL1        0.0781
      2 C           4.0119   -1.4494   22.9531 C.3     1  UNL1        0.0372
      3 C           3.1452   -0.8877   24.0409 C.3     1  UNL1        0.0738
      4 N           2.8094    0.5742   24.0527 N.3     1  UNL1       -0.2725
      5 C           3.3404    1.4744   22.9766 C.3     1  UNL1        0.0738
      6 C           4.2071    0.9126   21.8889 C.3     1  UNL1        0.0372
      7 N           5.4096   -1.1110   20.7894 N.am    1  UNL1       -0.2808
      8 C           4.7891   -1.8610   19.6480 C.2     1  UNL1        0.2300
      9 O           5.6558   -2.4227   18.5602 O.2     1  UNL1       -0.2745
     10 C           7.5163    0.3204   20.2770 C.3     1  UNL1        0.0233
     11 C           6.8968   -0.9229   20.8429 C.3     1  UNL1        0.0934
     12 C           3.3019   -2.0491   19.5944 C.3     1  UNL1        0.1116
     13 C           2.3966   -0.8547   19.5309 C.ar    1  UNL1       -0.0130
     14 C           1.1966   -0.7747   20.4273 C.ar    1  UNL1       -0.0025
     15 C           0.2914    0.4196   20.3637 C.ar    1  UNL1        0.0180
     16 C           0.5862    1.5339   19.4038 C.ar    1  UNL1        0.1057
     17 C           1.7862    1.4539   18.5075 C.ar    1  UNL1        0.0180
     18 C           2.6914    0.2596   18.5710 C.ar    1  UNL1       -0.0025
     19 S          -0.3192    2.7283   19.3403 S.O2    1  UNL1        0.0104
     20 C          -1.2245    3.9226   19.2769 C.3     1  UNL1        0.1816
     21 O          -0.9903    2.2869   20.6071 O.2     1  UNL1       -0.1686
     22 O           0.3520    3.1697   18.0736 O.2     1  UNL1       -0.1686
     23 C           1.9427    1.1359   25.1404 C.3     1  UNL1        0.0728
     24 C           0.4830    1.3729   24.8892 C.3     1  UNL1        0.0261
     25 C          -0.3375    2.1291   25.8917 C.3     1  UNL1        0.0461
     26 C          -1.5600    2.8771   25.4491 C.ar    1  UNL1       -0.0139
     27 C          -2.6129    3.2521   26.4495 C.ar    1  UNL1        0.0258
     28 C          -3.8355    4.0001   26.0069 C.ar    1  UNL1        0.1421
     29 F          -4.8884    4.3751   27.0073 F       1  UNL1       -0.2041
     30 C          -4.0051    4.3731   24.5640 C.ar    1  UNL1        0.0592
     31 C          -2.9522    3.9981   23.5636 C.ar    1  UNL1        0.1421
     32 F          -3.1219    4.3711   22.1206 F       1  UNL1       -0.2041
     33 C          -1.7297    3.2501   24.0061 C.ar    1  UNL1        0.0258
     34 C           0.0646    2.1373   27.3367 C.ar    1  UNL1       -0.0183
     35 C          -0.2168    0.9434   28.2003 C.ar    1  UNL1       -0.0026
     36 C           0.1852    0.9516   29.6454 C.ar    1  UNL1        0.0180
     37 C           0.8686    2.1536   30.2270 C.ar    1  UNL1        0.1057
     38 C           1.1500    3.3474   29.3635 C.ar    1  UNL1        0.0180
     39 C           0.7480    3.3392   27.9183 C.ar    1  UNL1       -0.0026
     40 S           1.2707    2.1617   31.6720 S.O2    1  UNL1        0.0104
     41 C           1.6727    2.1700   33.1172 C.3     1  UNL1        0.1816
     42 O           1.9182    0.8198   31.4994 O.2     1  UNL1       -0.1686
     43 O           0.6231    3.5037   31.8446 O.2     1  UNL1       -0.1686
@<TRIPOS>BOND
     1    10    11    1
     2    11     7    1
     3     7     8   am
     4     8     9    2
     5     8    12    1
     6    12    13    1
     7    13    14   ar
     8    14    15   ar
     9    15    16   ar
    10    16    19    1
    11    19    20    1
    12    19    21    2
    13    19    22    2
    14    16    17   ar
    15    17    18   ar
    16     7     1    1
    17     1     2    1
    18     2     3    1
    19     3     4    1
    20     4    23    1
    21    23    24    1
    22    25    24    1
    23    25    34    1
    24    34    35   ar
    25    35    36   ar
    26    36    37   ar
    27    37    40    1
    28    40    41    1
    29    40    42    2
    30    40    43    2
    31    37    38   ar
    32    38    39   ar
    33    25    26    1
    34    26    27   ar
    35    27    28   ar
    36    28    29    1
    37    28    30   ar
    38    30    31   ar
    39    31    32    1
    40    31    33   ar
    41     4     5    1
    42     5     6    1
    43    18    13   ar
    44     6     1    1
    45    39    34   ar
    46    33    26   ar
@<TRIPOS>MOLECULE
*****
 43 46 0 0 0
SMALL
GASTEIGER

@<TRIPOS>ATOM
      1 C           2.9612    0.5131   27.6783 C.3     1  UNL1        0.0781
      2 C           3.1780    1.5020   26.5714 C.3     1  UNL1        0.0372
      3 C           3.7208    1.0424   25.2508 C.3     1  UNL1        0.0738
      4 N           4.0467   -0.4060   25.0369 N.3     1  UNL1       -0.2725
      5 C           3.8298   -1.3950   26.1437 C.3     1  UNL1        0.0738
      6 C           3.2871   -0.9354   27.4644 C.3     1  UNL1        0.0372
      7 N           2.4184    0.9727   28.9989 N.am    1  UNL1       -0.2808
      8 C           0.9412    0.9348   29.2569 C.2     1  UNL1        0.2300
      9 O           0.3984    1.3944   30.5775 O.2     1  UNL1       -0.2745
     10 C           3.6421    2.9372   30.1791 C.3     1  UNL1        0.0233
     11 C           3.3528    1.4701   30.0617 C.3     1  UNL1        0.0934
     12 C           0.0068    0.4374   28.1941 C.3     1  UNL1        0.1116
     13 C          -0.5532    1.3916   27.1812 C.ar    1  UNL1       -0.0130
     14 C          -0.1350    1.2907   25.7442 C.ar    1  UNL1       -0.0025
     15 C          -0.6949    2.2449   24.7314 C.ar    1  UNL1        0.0180
     16 C          -1.6731    3.3000   25.1555 C.ar    1  UNL1        0.1057
     17 C          -2.0913    3.4010   26.5925 C.ar    1  UNL1        0.0180
     18 C          -1.5313    2.4468   27.6053 C.ar    1  UNL1       -0.0025
     19 S          -2.2330    4.2543   24.1426 S.O2    1  UNL1        0.0104
     20 C          -2.7930    5.2084   23.1297 C.3     1  UNL1        0.1816
     21 O          -3.4710    3.4141   24.0355 O.2     1  UNL1       -0.1686
     22 O          -0.9951    5.0945   24.2497 O.2     1  UNL1       -0.1686
     23 C           4.5894   -0.8656   23.7162 C.3     1  UNL1        0.0728
     24 C           3.7167   -1.6434   22.7764 C.3     1  UNL1        0.0261
     25 C           3.5179   -1.1655   21.3685 C.3     1  UNL1        0.0461
     26 C           4.3343   -1.7518   20.2551 C.ar    1  UNL1       -0.0139
     27 C           4.1173   -3.1754   19.8352 C.ar    1  UNL1        0.0258
     28 C           4.9338   -3.7617   18.7218 C.ar    1  UNL1        0.1421
     29 F           4.7168   -5.1853   18.3019 F       1  UNL1       -0.2041
     30 C           5.9672   -2.9244   18.0283 C.ar    1  UNL1        0.0592
     31 C           6.1842   -1.5008   18.4482 C.ar    1  UNL1        0.1421
     32 F           7.2177   -0.6636   17.7547 F       1  UNL1       -0.2041
     33 C           5.3678   -0.9145   19.5616 C.ar    1  UNL1        0.0258
     34 C           2.5027   -0.1013   21.0740 C.ar    1  UNL1       -0.0183
     35 C           1.2150   -0.4609   20.3936 C.ar    1  UNL1       -0.0026
     36 C           0.1998    0.6033   20.0991 C.ar    1  UNL1        0.0180
     37 C           0.4721    2.0270   20.4850 C.ar    1  UNL1        0.1057
     38 C           1.7596    2.3866   21.1653 C.ar    1  UNL1        0.0180
     39 C           2.7750    1.3224   21.4598 C.ar    1  UNL1       -0.0026
     40 S          -0.5431    3.0912   20.1905 S.O2    1  UNL1        0.0104
     41 C          -1.5584    4.1555   19.8959 C.3     1  UNL1        0.1816
     42 O          -1.5411    2.3781   21.0539 O.2     1  UNL1       -0.1686
     43 O           0.4548    3.8043   19.3271 O.2     1  UNL1       -0.1686
@<TRIPOS>BOND
     1    10    11    1
     2    11     7    1
     3     7     8   am
     4     8     9    2
     5     8    12    1
     6    12    13    1
     7    13    14   ar
     8    14    15   ar
     9    15    16   ar
    10    16    19    1
    11    19    20    1
    12    19    21    2
    13    19    22    2
    14    16    17   ar
    15    17    18   ar
    16     7     1    1
    17     1     2    1
    18     2     3    1
    19     3     4    1
    20     4    23    1
    21    23    24    1
    22    25    24    1
    23    25    34    1
    24    34    35   ar
    25    35    36   ar
    26    36    37   ar
    27    37    40    1
    28    40    41    1
    29    40    42    2
    30    40    43    2
    31    37    38   ar
    32    38    39   ar
    33    25    26    1
    34    26    27   ar
    35    27    28   ar
    36    28    29    1
    37    28    30   ar
    38    30    31   ar
    39    31    32    1
    40    31    33   ar
    41     4     5    1
    42     5     6    1
    43    18    13   ar
    44     6     1    1
    45    39    34   ar
    46    33    26   ar
@<TRIPOS>MOLECULE
*****
 43 46 0 0 0
SMALL
GASTEIGER

@<TRIPOS>ATOM
      1 C           3.1725    0.5142   27.5054 C.3     1  UNL1        0.0781
      2 C           3.4594   -0.9325   27.2320 C.3     1  UNL1        0.0372
      3 C           3.9737   -1.3540   25.8874 C.3     1  UNL1        0.0738
      4 N           4.2011   -0.3288   24.8163 N.3     1  UNL1       -0.2725
      5 C           3.9141    1.1179   25.0897 C.3     1  UNL1        0.0738
      6 C           3.3999    1.5394   26.4343 C.3     1  UNL1        0.0372
      7 N           2.6583    0.9357   28.8500 N.am    1  UNL1       -0.2808
      8 C           1.1931    0.8387   29.1567 C.2     1  UNL1        0.2300
      9 O           0.6788    1.2602   30.5013 O.2     1  UNL1       -0.2745
     10 C           4.3760    0.4946   30.7485 C.3     1  UNL1        0.0233
     11 C           3.6091    1.4542   29.8878 C.3     1  UNL1        0.0934
     12 C           0.2423    0.3202   28.1189 C.3     1  UNL1        0.1116
     13 C          -0.3563    1.2594   27.1141 C.ar    1  UNL1       -0.0130
     14 C          -1.3590    2.2858   27.5512 C.ar    1  UNL1       -0.0025
     15 C          -1.9576    3.2249   26.5464 C.ar    1  UNL1        0.0180
     16 C          -1.5535    3.1377   25.1045 C.ar    1  UNL1        0.1057
     17 C          -0.5509    2.1112   24.6674 C.ar    1  UNL1        0.0180
     18 C           0.0477    1.1721   25.6722 C.ar    1  UNL1       -0.0025
     19 S          -2.1522    4.0769   24.0997 S.O2    1  UNL1        0.0104
     20 C          -2.7509    5.0160   23.0950 C.3     1  UNL1        0.1816
     21 O          -3.5083    3.8562   24.7015 O.2     1  UNL1       -0.1686
     22 O          -0.7961    4.2975   23.4979 O.2     1  UNL1       -0.1686
     23 C           4.7153   -0.7503   23.4717 C.3     1  UNL1        0.0728
     24 C           4.6888    0.2135   22.3227 C.3     1  UNL1        0.0261
     25 C           3.8777   -0.0989   21.1002 C.3     1  UNL1        0.0461
     26 C           4.2684   -1.2438   20.2134 C.ar    1  UNL1       -0.0139
     27 C           5.6204   -1.2620   19.5639 C.ar    1  UNL1        0.0258
     28 C           6.0110   -2.4069   18.6770 C.ar    1  UNL1        0.1421
     29 F           7.3630   -2.4251   18.0275 F       1  UNL1       -0.2041
     30 C           5.0497   -3.5336   18.4396 C.ar    1  UNL1        0.0592
     31 C           3.6977   -3.5154   19.0890 C.ar    1  UNL1        0.1421
     32 F           2.7364   -4.6422   18.8515 F       1  UNL1       -0.2041
     33 C           3.3070   -2.3705   19.9759 C.ar    1  UNL1        0.0258
     34 C           2.6759    0.7335   20.7646 C.ar    1  UNL1       -0.0183
     35 C           1.4964    0.7558   21.6912 C.ar    1  UNL1       -0.0026
     36 C           0.2946    1.5883   21.3556 C.ar    1  UNL1        0.0180
     37 C           0.2722    2.3984   20.0934 C.ar    1  UNL1        0.1057
     38 C           1.4515    2.3761   19.1668 C.ar    1  UNL1        0.0180
     39 C           2.6534    1.5437   19.5024 C.ar    1  UNL1       -0.0026
     40 S          -0.9296    3.2308   19.7578 S.O2    1  UNL1        0.0104
     41 C          -2.1315    4.0633   19.4222 C.3     1  UNL1        0.1816
     42 O          -1.7323    2.4850   20.7822 O.2     1  UNL1       -0.1686
     43 O          -0.1270    3.9767   18.7335 O.2     1  UNL1       -0.1686
@<TRIPOS>BOND
     1    10    11    1
     2    11     7    1
     3     7     8   am
     4     8     9    2
     5     8    12    1
     6    12    13    1
     7    13    14   ar
     8    14    15   ar
     9    15    16   ar
    10    16    19    1
    11    19    20    1
    12    19    21    2
    13    19    22    2
    14    16    17   ar
    15    17    18   ar
    16     7     1    1
    17     1     2    1
    18     2     3    1
    19     3     4    1
    20     4    23    1
    21    23    24    1
    22    25    24    1
    23    25    34    1
    24    34    35   ar
    25    35    36   ar
    26    36    37   ar
    27    37    40    1
    28    40    41    1
    29    40    42    2
    30    40    43    2
    31    37    38   ar
    32    38    39   ar
    33    25    26    1
    34    26    27   ar
    35    27    28   ar
    36    28    29    1
    37    28    30   ar
    38    30    31   ar
    39    31    32    1
    40    31    33   ar
    41     4     5    1
    42     5     6    1
    43    18    13   ar
    44     6     1    1
    45    39    34   ar
    46    33    26   ar
@<TRIPOS>MOLECULE
*****
 43 46 0 0 0
SMALL
GASTEIGER

@<TRIPOS>ATOM
      1 C           3.8141   -0.0053   21.9462 C.3     1  UNL1        0.0781
      2 C           3.8129    1.4905   21.8352 C.3     1  UNL1        0.0372
      3 C           3.1715    2.3216   22.9065 C.3     1  UNL1        0.0738
      4 N           2.5311    1.6569   24.0889 N.3     1  UNL1       -0.2725
      5 C           2.5322    0.1609   24.1999 C.3     1  UNL1        0.0738
      6 C           3.1737   -0.6702   23.1286 C.3     1  UNL1        0.0372
      7 N           4.4556   -0.8364   20.8749 N.am    1  UNL1       -0.2808
      8 C           3.6022   -1.5753   19.8870 C.2     1  UNL1        0.2300
      9 O           4.2437   -2.4064   18.8157 O.2     1  UNL1       -0.2745
     10 C           6.7052   -0.0391   19.8487 C.3     1  UNL1        0.0233
     11 C           5.9504   -0.9287   20.7914 C.3     1  UNL1        0.0934
     12 C           2.1074   -1.4831   19.9705 C.3     1  UNL1        0.1116
     13 C           1.4238   -0.1659   19.7512 C.ar    1  UNL1       -0.0130
     14 C           0.4550    0.3551   20.7710 C.ar    1  UNL1       -0.0025
     15 C          -0.2285    1.6722   20.5517 C.ar    1  UNL1        0.0180
     16 C           0.0568    2.4682   19.3128 C.ar    1  UNL1        0.1057
     17 C           1.0256    1.9471   18.2931 C.ar    1  UNL1        0.0180
     18 C           1.7091    0.6301   18.5123 C.ar    1  UNL1       -0.0025
     19 S          -0.6268    3.7853   19.0936 S.O2    1  UNL1        0.0104
     20 C          -1.3104    5.1024   18.8744 C.3     1  UNL1        0.1816
     21 O          -0.6723    4.0084   20.5762 O.2     1  UNL1       -0.1686
     22 O          -0.5813    3.5622   17.6110 O.2     1  UNL1       -0.1686
     23 C           1.8896    2.4880   25.1602 C.3     1  UNL1        0.0728
     24 C           0.5749    3.1617   24.9004 C.3     1  UNL1        0.0261
     25 C          -0.5662    2.9733   25.8557 C.3     1  UNL1        0.0461
     26 C          -0.3128    2.4212   27.2271 C.ar    1  UNL1       -0.0139
     27 C          -0.7232    1.0169   27.5579 C.ar    1  UNL1        0.0258
     28 C          -0.4697    0.4648   28.9295 C.ar    1  UNL1        0.1421
     29 F          -0.8801   -0.9395   29.2603 F       1  UNL1       -0.2041
     30 C           0.1940    1.3171   29.9702 C.ar    1  UNL1        0.0592
     31 C           0.6044    2.7215   29.6393 C.ar    1  UNL1        0.1421
     32 F           1.2682    3.5737   30.6801 F       1  UNL1       -0.2041
     33 C           0.3510    3.2735   28.2679 C.ar    1  UNL1        0.0258
     34 C          -1.9606    3.3369   25.4394 C.ar    1  UNL1       -0.0183
     35 C          -2.3160    3.4014   23.9835 C.ar    1  UNL1       -0.0026
     36 C          -3.7105    3.7650   23.5673 C.ar    1  UNL1        0.0180
     37 C          -4.7495    4.0642   24.6069 C.ar    1  UNL1        0.1057
     38 C          -4.3942    3.9998   26.0628 C.ar    1  UNL1        0.0180
     39 C          -2.9997    3.6362   26.4791 C.ar    1  UNL1       -0.0026
     40 S          -6.1440    4.4278   24.1907 S.O2    1  UNL1        0.0104
     41 C          -7.5385    4.7915   23.7744 C.3     1  UNL1        0.1816
     42 O          -6.3356    5.1692   25.4805 O.2     1  UNL1       -0.1686
     43 O          -5.9523    3.6865   22.9009 O.2     1  UNL1       -0.1686
@<TRIPOS>BOND
     1    10    11    1
     2    11     7    1
     3     7     8   am
     4     8     9    2
     5     8    12    1
     6    12    13    1
     7    13    14   ar
     8    14    15   ar
     9    15    16   ar
    10    16    19    1
    11    19    20    1
    12    19    21    2
    13    19    22    2
    14    16    17   ar
    15    17    18   ar
    16     7     1    1
    17     1     2    1
    18     2     3    1
    19     3     4    1
    20     4    23    1
    21    23    24    1
    22    25    24    1
    23    25    34    1
    24    34    35   ar
    25    35    36   ar
    26    36    37   ar
    27    37    40    1
    28    40    41    1
    29    40    42    2
    30    40    43    2
    31    37    38   ar
    32    38    39   ar
    33    25    26    1
    34    26    27   ar
    35    27    28   ar
    36    28    29    1
    37    28    30   ar
    38    30    31   ar
    39    31    32    1
    40    31    33   ar
    41     4     5    1
    42     5     6    1
    43    18    13   ar
    44     6     1    1
    45    39    34   ar
    46    33    26   ar
@<TRIPOS>MOLECULE
*****
 43 46 0 0 0
SMALL
GASTEIGER

@<TRIPOS>ATOM
      1 C           4.2635   -0.3611   21.9260 C.3     1  UNL1        0.0781
      2 C           3.6116   -1.1018   23.0557 C.3     1  UNL1        0.0372
      3 C           2.7888   -0.3571   24.0650 C.3     1  UNL1        0.0738
      4 N           2.6181    1.1282   23.9445 N.3     1  UNL1       -0.2725
      5 C           3.2701    1.8690   22.8148 C.3     1  UNL1        0.0738
      6 C           4.0928    1.1244   21.8055 C.3     1  UNL1        0.0372
      7 N           5.0862   -1.1057   20.9167 N.am    1  UNL1       -0.2808
      8 C           4.4113   -1.9000   19.8379 C.2     1  UNL1        0.2300
      9 O           5.2340   -2.6446   18.8286 O.2     1  UNL1       -0.2745
     10 C           7.3199   -1.9447   21.9447 C.3     1  UNL1        0.0233
     11 C           6.5838   -1.0562   20.9862 C.3     1  UNL1        0.0934
     12 C           2.9138   -1.9495   19.7684 C.3     1  UNL1        0.1116
     13 C           2.1275   -0.6808   19.6187 C.ar    1  UNL1       -0.0130
     14 C           2.5230    0.3288   18.5823 C.ar    1  UNL1       -0.0025
     15 C           1.7368    1.5974   18.4327 C.ar    1  UNL1        0.0180
     16 C           0.5550    1.8563   19.3194 C.ar    1  UNL1        0.1057
     17 C           0.1595    0.8467   20.3558 C.ar    1  UNL1        0.0180
     18 C           0.9458   -0.4219   20.5055 C.ar    1  UNL1       -0.0025
     19 S          -0.2313    3.1250   19.1697 S.O2    1  UNL1        0.0104
     20 C          -1.0175    4.3936   19.0200 C.3     1  UNL1        0.1816
     21 O          -0.1874    2.9761   17.6778 O.2     1  UNL1       -0.1686
     22 O          -0.2751    3.2739   20.6616 O.2     1  UNL1       -0.1686
     23 C           1.7954    1.8729   24.9538 C.3     1  UNL1        0.0728
     24 C           0.4431    2.4009   24.5766 C.3     1  UNL1        0.0261
     25 C          -0.6178    2.5630   25.6245 C.3     1  UNL1        0.0461
     26 C          -0.3311    2.1837   27.0471 C.ar    1  UNL1       -0.0139
     27 C           0.3575    3.1560   27.9584 C.ar    1  UNL1        0.0258
     28 C           0.6442    2.7766   29.3810 C.ar    1  UNL1        0.1421
     29 F           1.3328    3.7490   30.2923 F       1  UNL1       -0.2041
     30 C           0.2425    1.4249   29.8923 C.ar    1  UNL1        0.0592
     31 C          -0.4460    0.4526   28.9810 C.ar    1  UNL1        0.1421
     32 F          -0.8477   -0.8992   29.4924 F       1  UNL1       -0.2041
     33 C          -0.7328    0.8319   27.5584 C.ar    1  UNL1        0.0258
     34 C          -1.9656    3.1045   25.2498 C.ar    1  UNL1       -0.0183
     35 C          -2.3168    3.3088   23.8058 C.ar    1  UNL1       -0.0026
     36 C          -3.6645    3.8503   23.4312 C.ar    1  UNL1        0.0180
     37 C          -4.6611    4.1874   24.5004 C.ar    1  UNL1        0.1057
     38 C          -4.3099    3.9831   25.9443 C.ar    1  UNL1        0.0180
     39 C          -2.9621    3.4416   26.3190 C.ar    1  UNL1       -0.0026
     40 S          -6.0088    4.7289   24.1257 S.O2    1  UNL1        0.0104
     41 C          -7.3566    5.2703   23.7510 C.3     1  UNL1        0.1816
     42 O          -6.0375    5.5332   25.3915 O.2     1  UNL1       -0.1686
     43 O          -5.9801    3.9245   22.8600 O.2     1  UNL1       -0.1686
@<TRIPOS>BOND
     1    10    11    1
     2    11     7    1
     3     7     8   am
     4     8     9    2
     5     8    12    1
     6    12    13    1
     7    13    14   ar
     8    14    15   ar
     9    15    16   ar
    10    16    19    1
    11    19    20    1
    12    19    21    2
    13    19    22    2
    14    16    17   ar
    15    17    18   ar
    16     7     1    1
    17     1     2    1
    18     2     3    1
    19     3     4    1
    20     4    23    1
    21    23    24    1
    22    25    24    1
    23    25    34    1
    24    34    35   ar
    25    35    36   ar
    26    36    37   ar
    27    37    40    1
    28    40    41    1
    29    40    42    2
    30    40    43    2
    31    37    38   ar
    32    38    39   ar
    33    25    26    1
    34    26    27   ar
    35    27    28   ar
    36    28    29    1
    37    28    30   ar
    38    30    31   ar
    39    31    32    1
    40    31    33   ar
    41     4     5    1
    42     5     6    1
    43    18    13   ar
    44     6     1    1
    45    39    34   ar
    46    33    26   ar
@<TRIPOS>MOLECULE
*****
 43 46 0 0 0
SMALL
GASTEIGER

@<TRIPOS>ATOM
      1 C           1.0779    3.3139   20.7446 C.3     1  UNL1        0.0781
      2 C          -0.2120    3.7780   21.3535 C.3     1  UNL1        0.0372
      3 C          -0.2162    4.3996   22.7186 C.3     1  UNL1        0.0738
      4 N           1.0696    4.5571   23.4749 N.3     1  UNL1       -0.2725
      5 C           2.3596    4.0931   22.8660 C.3     1  UNL1        0.0738
      6 C           2.3637    3.4714   21.5009 C.3     1  UNL1        0.0372
      7 N           1.0820    2.6923   19.3795 N.am    1  UNL1       -0.2808
      8 C           0.9140    1.2092   19.2302 C.2     1  UNL1        0.2300
      9 O           0.9181    0.5875   17.8651 O.2     1  UNL1       -0.2745
     10 C           0.0741    4.2737   17.5814 C.3     1  UNL1        0.0233
     11 C           1.2542    3.5537   18.1637 C.3     1  UNL1        0.0934
     12 C           0.7418    0.3477   20.4460 C.3     1  UNL1        0.1116
     13 C           1.8807   -0.4982   20.9333 C.ar    1  UNL1       -0.0130
     14 C           2.4295   -0.2938   22.3143 C.ar    1  UNL1       -0.0025
     15 C           3.5683   -1.1397   22.8015 C.ar    1  UNL1        0.0180
     16 C           4.1585   -2.1899   21.9077 C.ar    1  UNL1        0.1057
     17 C           3.6098   -2.3942   20.5268 C.ar    1  UNL1        0.0180
     18 C           2.4709   -1.5484   20.0396 C.ar    1  UNL1       -0.0025
     19 S           5.2974   -3.0358   22.3950 S.O2    1  UNL1        0.0104
     20 C           6.4363   -3.8817   22.8822 C.3     1  UNL1        0.1816
     21 O           4.8024   -4.1815   21.5629 O.2     1  UNL1       -0.1686
     22 O           5.7924   -1.8902   23.2271 O.2     1  UNL1       -0.1686
     23 C           1.0654    5.1787   24.8400 C.3     1  UNL1        0.0728
     24 C          -0.2356    5.4759   25.5248 C.3     1  UNL1        0.0261
     25 C          -1.0276    4.3636   26.1456 C.3     1  UNL1        0.0461
     26 C          -2.5024    4.2607   25.8920 C.ar    1  UNL1       -0.0139
     27 C          -3.4723    4.9145   26.8311 C.ar    1  UNL1        0.0258
     28 C          -4.9472    4.8116   26.5775 C.ar    1  UNL1        0.1421
     29 F          -5.9170    5.4654   27.5165 F       1  UNL1       -0.2041
     30 C          -5.4521    4.0550   25.3848 C.ar    1  UNL1        0.0592
     31 C          -4.4822    3.4012   24.4457 C.ar    1  UNL1        0.1421
     32 F          -4.9871    2.6446   23.2530 F       1  UNL1       -0.2041
     33 C          -3.0074    3.5041   24.6993 C.ar    1  UNL1        0.0258
     34 C          -0.3448    3.3540   27.0201 C.ar    1  UNL1       -0.0183
     35 C          -0.5437    1.8884   26.7699 C.ar    1  UNL1       -0.0026
     36 C           0.1391    0.8789   27.6443 C.ar    1  UNL1        0.0180
     37 C           1.0208    1.3349   28.7689 C.ar    1  UNL1        0.1057
     38 C           1.2196    2.8005   29.0191 C.ar    1  UNL1        0.0180
     39 C           0.5368    3.8101   28.1447 C.ar    1  UNL1       -0.0026
     40 S           1.7035    0.3254   29.6433 S.O2    1  UNL1        0.0104
     41 C           2.3864   -0.6842   30.5177 C.3     1  UNL1        0.1816
     42 O           1.1372    0.9960   30.8597 O.2     1  UNL1       -0.1686
     43 O           2.2699   -0.3451   28.4269 O.2     1  UNL1       -0.1686
@<TRIPOS>BOND
     1    10    11    1
     2    11     7    1
     3     7     8   am
     4     8     9    2
     5     8    12    1
     6    12    13    1
     7    13    14   ar
     8    14    15   ar
     9    15    16   ar
    10    16    19    1
    11    19    20    1
    12    19    21    2
    13    19    22    2
    14    16    17   ar
    15    17    18   ar
    16     7     1    1
    17     1     2    1
    18     2     3    1
    19     3     4    1
    20     4    23    1
    21    23    24    1
    22    25    24    1
    23    25    34    1
    24    34    35   ar
    25    35    36   ar
    26    36    37   ar
    27    37    40    1
    28    40    41    1
    29    40    42    2
    30    40    43    2
    31    37    38   ar
    32    38    39   ar
    33    25    26    1
    34    26    27   ar
    35    27    28   ar
    36    28    29    1
    37    28    30   ar
    38    30    31   ar
    39    31    32    1
    40    31    33   ar
    41     4     5    1
    42     5     6    1
    43    18    13   ar
    44     6     1    1
    45    39    34   ar
    46    33    26   ar
