@<TRIPOS>MOLECULE
*****
 27 29 0 0 0
SMALL
GASTEIGER

@<TRIPOS>ATOM
      1 C          -8.6937  -17.0154   22.8353 C.ar    1  UNL1        0.1357
      2 N         -10.0080  -16.3728   23.1663 N.ar    1  UNL1       -0.1992
      3 C         -11.2168  -16.6619   22.3265 C.ar    1  UNL1        0.2148
      4 N         -12.5311  -16.0192   22.6575 N.pl3   1  UNL1       -0.3274
      5 N         -11.1112  -17.5937   21.1558 N.ar    1  UNL1       -0.2138
      6 C          -9.7969  -18.2363   20.8248 C.ar    1  UNL1        0.0898
      7 C          -9.6914  -19.1681   19.6540 C.ar    1  UNL1        0.0195
      8 C          -8.3770  -19.8107   19.3231 C.ar    1  UNL1        0.0047
      9 C          -7.1682  -19.5216   20.1629 C.ar    1  UNL1        0.0371
     10 C          -7.2738  -18.5898   21.3336 C.ar    1  UNL1        0.1431
     11 C          -8.5881  -17.9472   21.6645 C.ar    1  UNL1        0.0831
     12 H         -12.6004  -15.4077   23.4259 H       1  UNL1        0.1452
     13 H         -13.3245  -16.2090   22.1064 H       1  UNL1        0.1452
     14 N          -7.4849  -16.7262   23.6751 N.pl3   1  UNL1       -0.3179
     15 H          -6.7792  -17.4058   23.7726 H       1  UNL1        0.1482
     16 C          -7.3512  -15.4017   24.3663 C.3     1  UNL1        0.0882
     17 C          -6.3510  -15.2297   25.4709 C.3     1  UNL1        0.0212
     18 C          -8.1723  -15.5333   27.2987 C.3     1  UNL1        0.0001
     19 C          -6.7309  -15.5581   26.8844 C.3     1  UNL1        0.0017
     20 O          -6.0650  -18.3007   22.1734 O.3     1  UNL1       -0.4705
     21 C          -4.8220  -19.1237   22.0072 C.3     1  UNL1        0.2320
     22 C          -3.6635  -18.5826   21.2229 C.ar    1  UNL1        0.0212
     23 C          -3.4364  -19.0363   19.8112 C.ar    1  UNL1       -0.0007
     24 C          -2.2779  -18.4952   19.0268 C.ar    1  UNL1       -0.0002
     25 C          -1.3466  -17.5006   19.6541 C.ar    1  UNL1       -0.0000
     26 C          -1.5738  -17.0470   21.0657 C.ar    1  UNL1       -0.0002
     27 C          -2.7322  -17.5881   21.8501 C.ar    1  UNL1       -0.0007
@<TRIPOS>BOND
     1    18    19    1
     2    19    17    1
     3    17    16    1
     4    16    14    1
     5    14     1    1
     6     1     2   ar
     7     2     3   ar
     8     3     4    1
     9     3     5   ar
    10     5     6   ar
    11     6     7   ar
    12     7     8   ar
    13     8     9   ar
    14     9    10   ar
    15    10    20    1
    16    20    21    1
    17    21    22    1
    18    22    23   ar
    19    23    24   ar
    20    24    25   ar
    21    25    26   ar
    22    26    27   ar
    23    10    11   ar
    24    11     1   ar
    25    11     6   ar
    26    27    22   ar
    27    14    15    1
    28     4    12    1
    29     4    13    1
@<TRIPOS>MOLECULE
*****
 27 29 0 0 0
SMALL
GASTEIGER

@<TRIPOS>ATOM
      1 C          -5.0368  -17.4066   22.7922 C.ar    1  UNL1        0.1357
      2 N          -3.7341  -16.6650   22.7366 N.ar    1  UNL1       -0.1992
      3 C          -2.6335  -17.1484   21.8395 C.ar    1  UNL1        0.2148
      4 N          -1.3308  -16.4068   21.7840 N.pl3   1  UNL1       -0.3274
      5 N          -2.8355  -18.3735   20.9979 N.ar    1  UNL1       -0.2138
      6 C          -4.1382  -19.1152   21.0534 C.ar    1  UNL1        0.0898
      7 C          -4.3402  -20.3403   20.2118 C.ar    1  UNL1        0.0195
      8 C          -5.6428  -21.0819   20.2674 C.ar    1  UNL1        0.0047
      9 C          -6.7434  -20.5985   21.1645 C.ar    1  UNL1        0.0371
     10 C          -6.5414  -19.3734   22.0061 C.ar    1  UNL1        0.1431
     11 C          -5.2388  -18.6318   21.9506 C.ar    1  UNL1        0.0831
     12 H          -1.1983  -15.6027   22.3363 H       1  UNL1        0.1452
     13 H          -0.6084  -16.7241   21.1952 H       1  UNL1        0.1452
     14 N          -6.1374  -16.9231   23.6893 N.pl3   1  UNL1       -0.3179
     15 H          -6.9258  -17.4902   23.8508 H       1  UNL1        0.1482
     16 C          -6.0369  -15.5756   24.3405 C.3     1  UNL1        0.0882
     17 C          -5.5109  -15.4563   25.7402 C.3     1  UNL1        0.0212
     18 C          -7.9380  -15.5600   26.6614 C.3     1  UNL1        0.0001
     19 C          -6.4603  -15.4665   26.9015 C.3     1  UNL1        0.0017
     20 O          -7.6421  -18.8899   22.9033 O.3     1  UNL1       -0.4705
     21 C          -8.9032  -19.6901   23.0412 C.3     1  UNL1        0.2320
     22 C         -10.2264  -19.0686   22.7049 C.ar    1  UNL1        0.0212
     23 C         -10.5876  -18.8021   21.2736 C.ar    1  UNL1       -0.0007
     24 C         -11.9107  -18.1807   20.9372 C.ar    1  UNL1       -0.0002
     25 C         -12.8726  -17.8257   22.0321 C.ar    1  UNL1       -0.0000
     26 C         -12.5114  -18.0922   23.4633 C.ar    1  UNL1       -0.0002
     27 C         -11.1882  -18.7137   23.7997 C.ar    1  UNL1       -0.0007
@<TRIPOS>BOND
     1    18    19    1
     2    19    17    1
     3    17    16    1
     4    16    14    1
     5    14     1    1
     6     1     2   ar
     7     2     3   ar
     8     3     4    1
     9     3     5   ar
    10     5     6   ar
    11     6     7   ar
    12     7     8   ar
    13     8     9   ar
    14     9    10   ar
    15    10    20    1
    16    20    21    1
    17    21    22    1
    18    22    23   ar
    19    23    24   ar
    20    24    25   ar
    21    25    26   ar
    22    26    27   ar
    23    10    11   ar
    24    11     1   ar
    25    11     6   ar
    26    27    22   ar
    27    14    15    1
    28     4    12    1
    29     4    13    1
@<TRIPOS>MOLECULE
*****
 27 29 0 0 0
SMALL
GASTEIGER

@<TRIPOS>ATOM
      1 C          -8.1028  -17.1724   22.2381 C.ar    1  UNL1        0.1357
      2 N          -9.5833  -17.1308   22.0009 N.ar    1  UNL1       -0.1992
      3 C         -10.4852  -16.4730   23.0029 C.ar    1  UNL1        0.2148
      4 N         -11.9658  -16.4314   22.7656 N.pl3   1  UNL1       -0.3274
      5 N          -9.9066  -15.8569   24.2420 N.ar    1  UNL1       -0.2138
      6 C          -8.4260  -15.8985   24.4793 C.ar    1  UNL1        0.0898
      7 C          -7.8474  -15.2824   25.7185 C.ar    1  UNL1        0.0195
      8 C          -6.3669  -15.3240   25.9557 C.ar    1  UNL1        0.0047
      9 C          -5.4650  -15.9818   24.9537 C.ar    1  UNL1        0.0371
     10 C          -6.0436  -16.5979   23.7145 C.ar    1  UNL1        0.1431
     11 C          -7.5241  -16.5563   23.4773 C.ar    1  UNL1        0.0831
     12 H         -12.3455  -16.8358   21.9523 H       1  UNL1        0.1452
     13 H         -12.5577  -15.9997   23.4232 H       1  UNL1        0.1452
     14 N          -7.2009  -17.8302   21.2362 N.pl3   1  UNL1       -0.3179
     15 H          -6.4734  -17.3163   20.8166 H       1  UNL1        0.1482
     16 C          -7.4072  -19.2709   20.8734 C.3     1  UNL1        0.0882
     17 C          -7.6898  -19.6530   19.4507 C.3     1  UNL1        0.0212
     18 C         -10.2352  -19.7040   19.9693 C.3     1  UNL1        0.0001
     19 C          -9.1052  -19.8476   18.9933 C.3     1  UNL1        0.0017
     20 O          -5.1417  -17.2557   22.7126 O.3     1  UNL1       -0.4705
     21 C          -3.7046  -17.5164   23.0545 C.3     1  UNL1        0.2320
     22 C          -2.6840  -17.6385   21.9620 C.ar    1  UNL1        0.0212
     23 C          -2.4608  -18.9601   21.2885 C.ar    1  UNL1       -0.0007
     24 C          -1.4402  -19.0822   20.1960 C.ar    1  UNL1       -0.0002
     25 C          -0.6428  -17.8827   19.7771 C.ar    1  UNL1       -0.0000
     26 C          -0.8660  -16.5612   20.4507 C.ar    1  UNL1       -0.0002
     27 C          -1.8866  -16.4391   21.5431 C.ar    1  UNL1       -0.0007
@<TRIPOS>BOND
     1    18    19    1
     2    19    17    1
     3    17    16    1
     4    16    14    1
     5    14     1    1
     6     1     2   ar
     7     2     3   ar
     8     3     4    1
     9     3     5   ar
    10     5     6   ar
    11     6     7   ar
    12     7     8   ar
    13     8     9   ar
    14     9    10   ar
    15    10    20    1
    16    20    21    1
    17    21    22    1
    18    22    23   ar
    19    23    24   ar
    20    24    25   ar
    21    25    26   ar
    22    26    27   ar
    23    10    11   ar
    24    11     1   ar
    25    11     6   ar
    26    27    22   ar
    27    14    15    1
    28     4    12    1
    29     4    13    1
@<TRIPOS>MOLECULE
*****
 27 29 0 0 0
SMALL
GASTEIGER

@<TRIPOS>ATOM
      1 C          -7.8324  -18.9466   20.4588 C.ar    1  UNL1        0.1357
      2 N          -7.7895  -19.9941   19.3861 N.ar    1  UNL1       -0.1992
      3 C          -9.0547  -20.4183   18.7009 C.ar    1  UNL1        0.2148
      4 N          -9.0117  -21.4658   17.6281 N.pl3   1  UNL1       -0.3274
      5 N         -10.3627  -19.7949   19.0885 N.ar    1  UNL1       -0.2138
      6 C         -10.4057  -18.7473   20.1613 C.ar    1  UNL1        0.0898
      7 C         -11.7137  -18.1239   20.5488 C.ar    1  UNL1        0.0195
      8 C         -11.7566  -17.0763   21.6216 C.ar    1  UNL1        0.0047
      9 C         -10.4914  -16.6522   22.3067 C.ar    1  UNL1        0.0371
     10 C          -9.1834  -17.2756   21.9192 C.ar    1  UNL1        0.1431
     11 C          -9.1405  -18.3232   20.8464 C.ar    1  UNL1        0.0831
     12 H          -8.1532  -21.8750   17.3737 H       1  UNL1        0.1452
     13 H          -9.8421  -21.7442   17.1784 H       1  UNL1        0.1452
     14 N          -6.5672  -18.5225   21.1440 N.pl3   1  UNL1       -0.3179
     15 H          -6.2281  -17.6056   21.0279 H       1  UNL1        0.1482
     16 C          -5.8187  -19.4954   22.0060 C.3     1  UNL1        0.0882
     17 C          -4.3489  -19.3114   22.2425 C.3     1  UNL1        0.0212
     18 C          -3.8351  -20.4617   19.9703 C.3     1  UNL1        0.0001
     19 C          -3.3614  -19.7448   21.1998 C.3     1  UNL1        0.0017
     20 O          -7.9182  -16.8515   22.6043 O.3     1  UNL1       -0.4705
     21 C          -7.8417  -15.5127   23.2763 C.3     1  UNL1        0.2320
     22 C          -7.4928  -15.4231   24.7324 C.ar    1  UNL1        0.0212
     23 C          -6.0622  -15.2578   25.1521 C.ar    1  UNL1       -0.0007
     24 C          -5.7134  -15.1682   26.6082 C.ar    1  UNL1       -0.0002
     25 C          -6.7951  -15.2440   27.6446 C.ar    1  UNL1       -0.0000
     26 C          -8.2257  -15.4093   27.2249 C.ar    1  UNL1       -0.0002
     27 C          -8.5745  -15.4988   25.7688 C.ar    1  UNL1       -0.0007
@<TRIPOS>BOND
     1    18    19    1
     2    19    17    1
     3    17    16    1
     4    16    14    1
     5    14     1    1
     6     1     2   ar
     7     2     3   ar
     8     3     4    1
     9     3     5   ar
    10     5     6   ar
    11     6     7   ar
    12     7     8   ar
    13     8     9   ar
    14     9    10   ar
    15    10    20    1
    16    20    21    1
    17    21    22    1
    18    22    23   ar
    19    23    24   ar
    20    24    25   ar
    21    25    26   ar
    22    26    27   ar
    23    10    11   ar
    24    11     1   ar
    25    11     6   ar
    26    27    22   ar
    27    14    15    1
    28     4    12    1
    29     4    13    1
@<TRIPOS>MOLECULE
*****
 27 29 0 0 0
SMALL
GASTEIGER

@<TRIPOS>ATOM
      1 C          -6.1312  -17.9016   21.9774 C.ar    1  UNL1        0.1357
      2 N          -5.0784  -18.8502   21.4857 N.ar    1  UNL1       -0.1992
      3 C          -3.7666  -18.9535   22.2059 C.ar    1  UNL1        0.2148
      4 N          -2.7138  -19.9021   21.7141 N.pl3   1  UNL1       -0.3274
      5 N          -3.5077  -18.1083   23.4177 N.ar    1  UNL1       -0.2138
      6 C          -4.5606  -17.1598   23.9095 C.ar    1  UNL1        0.0898
      7 C          -4.3017  -16.3146   25.1213 C.ar    1  UNL1        0.0195
      8 C          -5.3545  -15.3661   25.6130 C.ar    1  UNL1        0.0047
      9 C          -6.6662  -15.2627   24.8928 C.ar    1  UNL1        0.0371
     10 C          -6.9252  -16.1079   23.6810 C.ar    1  UNL1        0.1431
     11 C          -5.8723  -17.0564   23.1893 C.ar    1  UNL1        0.0831
     12 H          -2.8837  -20.4568   20.9188 H       1  UNL1        0.1452
     13 H          -1.8528  -19.9700   22.1868 H       1  UNL1        0.1452
     14 N          -7.4430  -17.7983   21.2573 N.pl3   1  UNL1       -0.3179
     15 H          -7.7104  -16.9470   20.8413 H       1  UNL1        0.1482
     16 C          -8.3472  -18.9919   21.1708 C.3     1  UNL1        0.0882
     17 C          -9.4802  -19.0050   20.1879 C.3     1  UNL1        0.0212
     18 C         -10.9369  -20.4174   21.8107 C.3     1  UNL1        0.0001
     19 C         -10.6803  -19.8695   20.4381 C.3     1  UNL1        0.0017
     20 O          -8.2369  -16.0045   22.9608 O.3     1  UNL1       -0.4705
     21 C          -9.5221  -16.1754   23.7151 C.3     1  UNL1        0.2320
     22 C         -10.7676  -16.5916   22.9902 C.ar    1  UNL1        0.0212
     23 C         -11.7537  -17.5047   23.6566 C.ar    1  UNL1       -0.0007
     24 C         -12.9991  -17.9209   22.9317 C.ar    1  UNL1       -0.0002
     25 C         -13.2586  -17.4240   21.5403 C.ar    1  UNL1       -0.0000
     26 C         -12.2726  -16.5110   20.8739 C.ar    1  UNL1       -0.0002
     27 C         -11.0271  -16.0948   21.5989 C.ar    1  UNL1       -0.0007
@<TRIPOS>BOND
     1    18    19    1
     2    19    17    1
     3    17    16    1
     4    16    14    1
     5    14     1    1
     6     1     2   ar
     7     2     3   ar
     8     3     4    1
     9     3     5   ar
    10     5     6   ar
    11     6     7   ar
    12     7     8   ar
    13     8     9   ar
    14     9    10   ar
    15    10    20    1
    16    20    21    1
    17    21    22    1
    18    22    23   ar
    19    23    24   ar
    20    24    25   ar
    21    25    26   ar
    22    26    27   ar
    23    10    11   ar
    24    11     1   ar
    25    11     6   ar
    26    27    22   ar
    27    14    15    1
    28     4    12    1
    29     4    13    1
@<TRIPOS>MOLECULE
*****
 27 29 0 0 0
SMALL
GASTEIGER

@<TRIPOS>ATOM
      1 C          -7.2586  -17.2963   22.1431 C.ar    1  UNL1        0.1357
      2 N          -5.9297  -17.7925   22.6306 N.ar    1  UNL1       -0.1992
      3 C          -5.4084  -19.1201   22.1660 C.ar    1  UNL1        0.2148
      4 N          -4.0795  -19.6163   22.6535 N.pl3   1  UNL1       -0.3274
      5 N          -6.2160  -19.9513   21.2138 N.ar    1  UNL1       -0.2138
      6 C          -7.5450  -19.4551   20.7262 C.ar    1  UNL1        0.0898
      7 C          -8.3526  -20.2863   19.7740 C.ar    1  UNL1        0.0195
      8 C          -9.6815  -19.7901   19.2865 C.ar    1  UNL1        0.0047
      9 C         -10.2028  -18.4625   19.7512 C.ar    1  UNL1        0.0371
     10 C          -9.3952  -17.6313   20.7034 C.ar    1  UNL1        0.1431
     11 C          -8.0663  -18.1275   21.1909 C.ar    1  UNL1        0.0831
     12 H          -3.5494  -19.0707   23.2785 H       1  UNL1        0.1452
     13 H          -3.7373  -20.4876   22.3486 H       1  UNL1        0.1452
     14 N          -7.7799  -15.9687   22.6078 N.pl3   1  UNL1       -0.3179
     15 H          -8.4551  -15.4908   22.0740 H       1  UNL1        0.1482
     16 C          -7.2724  -15.3693   23.8858 C.3     1  UNL1        0.0882
     17 C          -8.1384  -15.3706   25.1105 C.3     1  UNL1        0.0212
     18 C          -8.3497  -16.1559   27.5781 C.3     1  UNL1        0.0001
     19 C          -7.5251  -15.5854   26.4625 C.3     1  UNL1        0.0017
     20 O          -9.9165  -16.3037   21.1681 O.3     1  UNL1       -0.4705
     21 C         -11.3419  -16.1729   21.6163 C.3     1  UNL1        0.2320
     22 C         -11.8655  -17.0479   22.7164 C.ar    1  UNL1        0.0212
     23 C         -10.9108  -17.8048   23.5914 C.ar    1  UNL1       -0.0007
     24 C         -11.4344  -18.6798   24.6915 C.ar    1  UNL1       -0.0002
     25 C         -12.9128  -18.7979   24.9166 C.ar    1  UNL1       -0.0000
     26 C         -13.8674  -18.0409   24.0416 C.ar    1  UNL1       -0.0002
     27 C         -13.3438  -17.1660   22.9415 C.ar    1  UNL1       -0.0007
@<TRIPOS>BOND
     1    18    19    1
     2    19    17    1
     3    17    16    1
     4    16    14    1
     5    14     1    1
     6     1     2   ar
     7     2     3   ar
     8     3     4    1
     9     3     5   ar
    10     5     6   ar
    11     6     7   ar
    12     7     8   ar
    13     8     9   ar
    14     9    10   ar
    15    10    20    1
    16    20    21    1
    17    21    22    1
    18    22    23   ar
    19    23    24   ar
    20    24    25   ar
    21    25    26   ar
    22    26    27   ar
    23    10    11   ar
    24    11     1   ar
    25    11     6   ar
    26    27    22   ar
    27    14    15    1
    28     4    12    1
    29     4    13    1
@<TRIPOS>MOLECULE
*****
 27 29 0 0 0
SMALL
GASTEIGER

@<TRIPOS>ATOM
      1 C          -7.0175  -17.8379   21.8262 C.ar    1  UNL1        0.1357
      2 N          -5.8591  -17.5840   22.7446 N.ar    1  UNL1       -0.1992
      3 C          -4.7102  -18.5476   22.7868 C.ar    1  UNL1        0.2148
      4 N          -3.5517  -18.2937   23.7052 N.pl3   1  UNL1       -0.3274
      5 N          -4.7198  -19.7649   21.9105 N.ar    1  UNL1       -0.2138
      6 C          -5.8783  -20.0189   20.9920 C.ar    1  UNL1        0.0898
      7 C          -5.8879  -21.2362   20.1158 C.ar    1  UNL1        0.0195
      8 C          -7.0463  -21.4901   19.1974 C.ar    1  UNL1        0.0047
      9 C          -8.1952  -20.5266   19.1552 C.ar    1  UNL1        0.0371
     10 C          -8.1856  -19.3092   20.0315 C.ar    1  UNL1        0.1431
     11 C          -7.0271  -19.0553   20.9499 C.ar    1  UNL1        0.0831
     12 H          -3.5454  -17.4946   24.2803 H       1  UNL1        0.1452
     13 H          -2.7977  -18.9260   23.7329 H       1  UNL1        0.1452
     14 N          -8.1663  -16.8744   21.7840 N.pl3   1  UNL1       -0.3179
     15 H          -9.0126  -17.1359   21.3543 H       1  UNL1        0.1482
     16 C          -8.0258  -15.5124   22.3966 C.3     1  UNL1        0.0882
     17 C          -8.2670  -15.3219   23.8648 C.3     1  UNL1        0.0212
     18 C          -8.6220  -16.5491   26.1271 C.3     1  UNL1        0.0001
     19 C          -8.9228  -16.4086   24.6643 C.3     1  UNL1        0.0017
     20 O          -9.3344  -18.3457   19.9893 O.3     1  UNL1       -0.4705
     21 C         -10.7273  -18.8266   20.2696 C.3     1  UNL1        0.2320
     22 C         -11.2929  -18.7203   21.6548 C.ar    1  UNL1        0.0212
     23 C         -12.5298  -17.9078   21.8996 C.ar    1  UNL1       -0.0007
     24 C         -13.0954  -17.8015   23.2848 C.ar    1  UNL1       -0.0002
     25 C         -12.4241  -18.5079   24.4253 C.ar    1  UNL1       -0.0000
     26 C         -11.1872  -19.3204   24.1804 C.ar    1  UNL1       -0.0002
     27 C         -10.6216  -19.4266   22.7952 C.ar    1  UNL1       -0.0007
@<TRIPOS>BOND
     1    18    19    1
     2    19    17    1
     3    17    16    1
     4    16    14    1
     5    14     1    1
     6     1     2   ar
     7     2     3   ar
     8     3     4    1
     9     3     5   ar
    10     5     6   ar
    11     6     7   ar
    12     7     8   ar
    13     8     9   ar
    14     9    10   ar
    15    10    20    1
    16    20    21    1
    17    21    22    1
    18    22    23   ar
    19    23    24   ar
    20    24    25   ar
    21    25    26   ar
    22    26    27   ar
    23    10    11   ar
    24    11     1   ar
    25    11     6   ar
    26    27    22   ar
    27    14    15    1
    28     4    12    1
    29     4    13    1
@<TRIPOS>MOLECULE
*****
 27 29 0 0 0
SMALL
GASTEIGER

@<TRIPOS>ATOM
      1 C          -6.9606  -16.3897   22.9173 C.ar    1  UNL1        0.1357
      2 N          -7.0996  -15.5038   24.1197 N.ar    1  UNL1       -0.1992
      3 C          -6.0252  -15.4859   25.1663 C.ar    1  UNL1        0.2148
      4 N          -6.1643  -14.5999   26.3687 N.pl3   1  UNL1       -0.3274
      5 N          -4.8119  -16.3538   25.0105 N.ar    1  UNL1       -0.2138
      6 C          -4.6728  -17.2398   23.8081 C.ar    1  UNL1        0.0898
      7 C          -3.4594  -18.1078   23.6523 C.ar    1  UNL1        0.0195
      8 C          -3.3204  -18.9937   22.4500 C.ar    1  UNL1        0.0047
      9 C          -4.3948  -19.0116   21.4033 C.ar    1  UNL1        0.0371
     10 C          -5.6081  -18.1437   21.5591 C.ar    1  UNL1        0.1431
     11 C          -5.7471  -17.2578   22.7615 C.ar    1  UNL1        0.0831
     12 H          -6.9607  -14.0302   26.4709 H       1  UNL1        0.1452
     13 H          -5.4592  -14.5881   27.0557 H       1  UNL1        0.1452
     14 N          -8.0349  -16.4077   21.8707 N.pl3   1  UNL1       -0.3179
     15 H          -7.7949  -16.5004   20.9204 H       1  UNL1        0.1482
     16 C          -9.4750  -16.2843   22.2719 C.3     1  UNL1        0.0882
     17 C         -10.5048  -15.8850   21.2569 C.3     1  UNL1        0.0212
     18 C         -12.5733  -16.5199   22.6951 C.3     1  UNL1        0.0001
     19 C         -11.9029  -16.4191   21.3570 C.3     1  UNL1        0.0017
     20 O          -6.6825  -18.1616   20.5125 O.3     1  UNL1       -0.4705
     21 C          -7.5310  -19.3849   20.3296 C.3     1  UNL1        0.2320
     22 C          -8.6915  -19.6366   21.2461 C.ar    1  UNL1        0.0212
     23 C         -10.0897  -19.6382   20.7027 C.ar    1  UNL1       -0.0007
     24 C         -11.2502  -19.8899   21.6192 C.ar    1  UNL1       -0.0002
     25 C         -11.0125  -20.1400   23.0790 C.ar    1  UNL1       -0.0000
     26 C          -9.6143  -20.1384   23.6223 C.ar    1  UNL1       -0.0002
     27 C          -8.4539  -19.8867   22.7058 C.ar    1  UNL1       -0.0007
@<TRIPOS>BOND
     1    18    19    1
     2    19    17    1
     3    17    16    1
     4    16    14    1
     5    14     1    1
     6     1     2   ar
     7     2     3   ar
     8     3     4    1
     9     3     5   ar
    10     5     6   ar
    11     6     7   ar
    12     7     8   ar
    13     8     9   ar
    14     9    10   ar
    15    10    20    1
    16    20    21    1
    17    21    22    1
    18    22    23   ar
    19    23    24   ar
    20    24    25   ar
    21    25    26   ar
    22    26    27   ar
    23    10    11   ar
    24    11     1   ar
    25    11     6   ar
    26    27    22   ar
    27    14    15    1
    28     4    12    1
    29     4    13    1
@<TRIPOS>MOLECULE
*****
 27 29 0 0 0
SMALL
GASTEIGER

@<TRIPOS>ATOM
      1 C          -5.5311  -18.9362   22.4281 C.ar    1  UNL1        0.1357
      2 N          -4.0446  -18.9333   22.6281 N.ar    1  UNL1       -0.1992
      3 C          -3.3782  -17.7600   23.2835 C.ar    1  UNL1        0.2148
      4 N          -1.8916  -17.7572   23.4835 N.pl3   1  UNL1       -0.3274
      5 N          -4.1985  -16.5897   23.7388 N.ar    1  UNL1       -0.2138
      6 C          -5.6852  -16.5925   23.5388 C.ar    1  UNL1        0.0898
      7 C          -6.5054  -15.4222   23.9941 C.ar    1  UNL1        0.0195
      8 C          -7.9920  -15.4251   23.7941 C.ar    1  UNL1        0.0047
      9 C          -8.6583  -16.5983   23.1387 C.ar    1  UNL1        0.0371
     10 C          -7.8380  -17.7687   22.6834 C.ar    1  UNL1        0.1431
     11 C          -6.3515  -17.7658   22.8834 C.ar    1  UNL1        0.0831
     12 H          -1.3532  -18.5254   23.1846 H       1  UNL1        0.1452
     13 H          -1.4543  -16.9872   23.9136 H       1  UNL1        0.1452
     14 N          -6.1974  -20.1094   21.7727 N.pl3   1  UNL1       -0.3179
     15 H          -6.9526  -20.5582   22.2172 H       1  UNL1        0.1482
     16 C          -5.7131  -20.5990   20.4401 C.3     1  UNL1        0.0882
     17 C          -4.9485  -19.6785   19.5356 C.3     1  UNL1        0.0212
     18 C          -2.6226  -18.5680   19.2084 C.3     1  UNL1        0.0001
     19 C          -3.4563  -19.7941   19.4357 C.3     1  UNL1        0.0017
     20 O          -8.5043  -18.9419   22.0280 O.3     1  UNL1       -0.4705
     21 C          -9.5673  -19.7061   22.7601 C.3     1  UNL1        0.2320
     22 C         -10.9083  -19.0796   23.0037 C.ar    1  UNL1        0.0212
     23 C         -11.5058  -19.0977   24.3795 C.ar    1  UNL1       -0.0007
     24 C         -12.8467  -18.4712   24.6231 C.ar    1  UNL1       -0.0002
     25 C         -13.5902  -17.8266   23.4909 C.ar    1  UNL1       -0.0000
     26 C         -12.9927  -17.8085   22.1152 C.ar    1  UNL1       -0.0002
     27 C         -11.6517  -18.4350   21.8716 C.ar    1  UNL1       -0.0007
@<TRIPOS>BOND
     1    18    19    1
     2    19    17    1
     3    17    16    1
     4    16    14    1
     5    14     1    1
     6     1     2   ar
     7     2     3   ar
     8     3     4    1
     9     3     5   ar
    10     5     6   ar
    11     6     7   ar
    12     7     8   ar
    13     8     9   ar
    14     9    10   ar
    15    10    20    1
    16    20    21    1
    17    21    22    1
    18    22    23   ar
    19    23    24   ar
    20    24    25   ar
    21    25    26   ar
    22    26    27   ar
    23    10    11   ar
    24    11     1   ar
    25    11     6   ar
    26    27    22   ar
    27    14    15    1
    28     4    12    1
    29     4    13    1
