@<TRIPOS>MOLECULE
*****
 30 35 0 0 0
SMALL
GASTEIGER

@<TRIPOS>ATOM
      1 C           2.3772   -0.5226   19.7854 C.2     1  UNL1       -0.0378
      2 C           0.9452   -0.6257   20.2199 C.2     1  UNL1       -0.0080
      3 C           0.0383    0.5633   20.1023 C.2     1  UNL1        0.0022
      4 C           0.5635    1.8554   19.5502 C.2     1  UNL1        0.0350
      5 C          -0.0886    3.1858   19.3167 C.2     1  UNL1        0.1040
      6 N           0.9404    4.1113   18.7379 N.2     1  UNL1       -0.1483
      7 N           2.2284    3.3526   18.6137 N.2     1  UNL1       -0.1520
      8 C           1.9955    1.9584   19.1157 C.2     1  UNL1        0.0860
      9 C           2.9023    0.7693   19.2333 C.3     1  UNL1        0.0697
     10 O           5.5605   -4.7532   19.9960 O.2     1  UNL1       -0.2744
     11 C           5.0475   -3.7777   21.0134 C.2     1  UNL1        0.2293
     12 N           5.3594   -3.7881   22.4806 N.am    1  UNL1       -0.2839
     13 C           4.6371   -2.6373   23.1163 C.ar    1  UNL1        0.0467
     14 C           4.5720   -2.1534   24.5345 C.ar    1  UNL1        0.0144
     15 C           3.7486   -0.9478   24.8785 C.ar    1  UNL1        0.0013
     16 C           2.9903   -0.2261   23.8041 C.ar    1  UNL1       -0.0002
     17 C           3.0554   -0.7100   22.3859 C.ar    1  UNL1       -0.0026
     18 C           3.8788   -1.9156   22.0419 C.ar    1  UNL1       -0.0008
     19 C           4.1325   -2.6204   20.7423 C.3     1  UNL1        0.0927
     20 C           4.0063   -2.8624   19.2674 C.3     1  UNL1        0.0179
     21 C           3.2841   -1.7117   19.9030 C.3     1  UNL1        0.0315
     22 H           5.9368   -4.4364   22.9448 H       1  UNL1        0.1549
     23 C          -1.5186    3.5305   19.6105 C.2     1  UNL1        0.0209
     24 C          -2.1243    3.1564   20.9308 C.2     1  UNL1        0.0017
     25 C          -3.5543    3.5011   21.2245 C.ar    1  UNL1        0.0031
     26 C          -4.4962    3.8156   20.1002 C.ar    1  UNL1        0.0207
     27 C          -5.9262    4.1602   20.3940 C.ar    1  UNL1        0.0989
     28 N          -6.4144    4.1904   21.8120 N.ar    1  UNL1       -0.2423
     29 C          -5.4725    3.8759   22.9363 C.ar    1  UNL1        0.0989
     30 C          -4.0425    3.5312   22.6426 C.ar    1  UNL1        0.0207
@<TRIPOS>BOND
     1    10    11    2
     2    11    12   am
     3    12    13    1
     4    13    14   ar
     5    14    15   ar
     6    15    16   ar
     7    16    17   ar
     8    17    18   ar
     9    18    19    1
    10    19    20    1
    11    20    21    1
    12    21     1    1
    13     1     2    2
    14     2     3    1
    15     3     4    2
    16     4     5    1
    17     5    23    1
    18    23    24    2
    19    24    25    1
    20    25    26   ar
    21    26    27   ar
    22    27    28   ar
    23    28    29   ar
    24    29    30   ar
    25     5     6    2
    26     6     7    1
    27     7     8    2
    28     8     9    1
    29    19    11    1
    30     9     1    1
    31    18    13   ar
    32    21    19    1
    33     8     4    1
    34    30    25   ar
    35    12    22    1
@<TRIPOS>MOLECULE
*****
 30 35 0 0 0
SMALL
GASTEIGER

@<TRIPOS>ATOM
      1 C         -11.6778   -3.4219   18.8758 C.2     1  UNL1       -0.0378
      2 C         -12.9178   -3.3480   19.7168 C.2     1  UNL1       -0.0080
      3 C         -13.7600   -2.1069   19.7037 C.2     1  UNL1        0.0022
      4 C         -13.3624   -0.9397   18.8495 C.2     1  UNL1        0.0350
      5 C         -13.9897    0.4055   18.6332 C.2     1  UNL1        0.1040
      6 N         -13.1376    1.1630   17.6585 N.2     1  UNL1       -0.1483
      7 N         -11.9836    0.2859   17.2725 N.2     1  UNL1       -0.1520
      8 C         -12.1226   -1.0136   18.0085 C.2     1  UNL1        0.0860
      9 C         -11.2803   -2.2548   18.0217 C.3     1  UNL1        0.0697
     10 O          -8.5647   -7.7063   19.0420 O.2     1  UNL1       -0.2744
     11 C          -9.8796   -7.3926   18.3920 C.2     1  UNL1        0.2293
     12 N         -10.6934   -8.3307   17.5507 N.am    1  UNL1       -0.2839
     13 C         -11.9284   -7.6035   17.1079 C.ar    1  UNL1        0.0467
     14 C         -13.0924   -8.0256   16.2612 C.ar    1  UNL1        0.0144
     15 C         -14.2058   -7.0601   15.9820 C.ar    1  UNL1        0.0013
     16 C         -14.1553   -5.6725   16.5495 C.ar    1  UNL1       -0.0002
     17 C         -12.9913   -5.2504   17.3962 C.ar    1  UNL1       -0.0026
     18 C         -11.8778   -6.2159   17.6754 C.ar    1  UNL1       -0.0008
     19 C         -10.6116   -6.0856   18.4690 C.3     1  UNL1        0.0927
     20 C          -9.6007   -5.3903   19.3318 C.3     1  UNL1        0.0179
     21 C         -10.8355   -4.6631   18.8890 C.3     1  UNL1        0.0315
     22 H         -10.4583   -9.2605   17.3283 H       1  UNL1        0.1549
     23 C         -15.2483    0.9055   19.2783 C.2     1  UNL1        0.0209
     24 C         -16.1814   -0.0586   19.9489 C.2     1  UNL1        0.0017
     25 C         -17.4399    0.4414   20.5940 C.ar    1  UNL1        0.0031
     26 C         -18.7476   -0.2377   20.3132 C.ar    1  UNL1        0.0207
     27 C         -20.0061    0.2622   20.9583 C.ar    1  UNL1        0.0989
     28 N         -19.9570    1.4413   21.8842 N.ar    1  UNL1       -0.2423
     29 C         -18.6493    2.1205   22.1651 C.ar    1  UNL1        0.0989
     30 C         -17.3908    1.6205   21.5200 C.ar    1  UNL1        0.0207
@<TRIPOS>BOND
     1    10    11    2
     2    11    12   am
     3    12    13    1
     4    13    14   ar
     5    14    15   ar
     6    15    16   ar
     7    16    17   ar
     8    17    18   ar
     9    18    19    1
    10    19    20    1
    11    20    21    1
    12    21     1    1
    13     1     2    2
    14     2     3    1
    15     3     4    2
    16     4     5    1
    17     5    23    1
    18    23    24    2
    19    24    25    1
    20    25    26   ar
    21    26    27   ar
    22    27    28   ar
    23    28    29   ar
    24    29    30   ar
    25     5     6    2
    26     6     7    1
    27     7     8    2
    28     8     9    1
    29    19    11    1
    30     9     1    1
    31    18    13   ar
    32    21    19    1
    33     8     4    1
    34    30    25   ar
    35    12    22    1
@<TRIPOS>MOLECULE
*****
 30 35 0 0 0
SMALL
GASTEIGER

@<TRIPOS>ATOM
      1 C          -9.1167  -17.2946   23.9767 C.2     1  UNL1       -0.0378
      2 C          -8.2191  -17.9168   22.9483 C.2     1  UNL1       -0.0080
      3 C          -6.7835  -17.4931   22.8508 C.2     1  UNL1        0.0022
      4 C          -6.2455  -16.4471   23.7817 C.2     1  UNL1        0.0350
      5 C          -4.8845  -15.8323   23.9214 C.2     1  UNL1        0.1040
      6 N          -4.9407  -14.8301   25.0361 N.2     1  UNL1       -0.1483
      7 N          -6.3366  -14.8255   25.5852 N.2     1  UNL1       -0.1520
      8 C          -7.1430  -15.8248   24.8099 C.2     1  UNL1        0.0860
      9 C          -8.5786  -16.2486   24.9074 C.3     1  UNL1        0.0697
     10 O         -14.1460  -18.8758   24.5066 O.2     1  UNL1       -0.2744
     11 C         -13.3880  -18.1350   23.4451 C.2     1  UNL1        0.2293
     12 N         -13.9532  -17.6213   22.1541 N.am    1  UNL1       -0.2839
     13 C         -12.8463  -16.9467   21.3993 C.ar    1  UNL1        0.0467
     14 C         -12.8146  -16.2568   20.0678 C.ar    1  UNL1        0.0144
     15 C         -11.5335  -15.6636   19.5608 C.ar    1  UNL1        0.0013
     16 C         -10.2842  -15.7603   20.3854 C.ar    1  UNL1       -0.0002
     17 C         -10.3160  -16.4502   21.7169 C.ar    1  UNL1       -0.0026
     18 C         -11.5970  -17.0434   22.2239 C.ar    1  UNL1       -0.0008
     19 C         -11.9318  -17.7778   23.4882 C.3     1  UNL1        0.0927
     20 C         -11.6591  -18.3930   24.8288 C.3     1  UNL1        0.0179
     21 C         -10.5523  -17.7184   24.0741 C.3     1  UNL1        0.0315
     22 H         -14.8867  -17.7112   21.8546 H       1  UNL1        0.1549
     23 C          -3.6787  -16.1619   23.0922 C.2     1  UNL1        0.0209
     24 C          -3.6405  -17.4327   22.2962 C.2     1  UNL1        0.0017
     25 C          -2.4347  -17.7622   21.4669 C.ar    1  UNL1        0.0031
     26 C          -1.4979  -16.6717   21.0390 C.ar    1  UNL1        0.0207
     27 C          -0.2922  -17.0013   20.2097 C.ar    1  UNL1        0.0989
     28 N          -0.0233  -18.4214   19.8084 N.ar    1  UNL1       -0.2423
     29 C          -0.9601  -19.5120   20.2364 C.ar    1  UNL1        0.0989
     30 C          -2.1659  -19.1824   21.0657 C.ar    1  UNL1        0.0207
@<TRIPOS>BOND
     1    10    11    2
     2    11    12   am
     3    12    13    1
     4    13    14   ar
     5    14    15   ar
     6    15    16   ar
     7    16    17   ar
     8    17    18   ar
     9    18    19    1
    10    19    20    1
    11    20    21    1
    12    21     1    1
    13     1     2    2
    14     2     3    1
    15     3     4    2
    16     4     5    1
    17     5    23    1
    18    23    24    2
    19    24    25    1
    20    25    26   ar
    21    26    27   ar
    22    27    28   ar
    23    28    29   ar
    24    29    30   ar
    25     5     6    2
    26     6     7    1
    27     7     8    2
    28     8     9    1
    29    19    11    1
    30     9     1    1
    31    18    13   ar
    32    21    19    1
    33     8     4    1
    34    30    25   ar
    35    12    22    1
@<TRIPOS>MOLECULE
*****
 30 35 0 0 0
SMALL
GASTEIGER

@<TRIPOS>ATOM
      1 C         -12.9791   -3.4119   19.2261 C.2     1  UNL1       -0.0378
      2 C         -13.7959   -3.3579   20.4832 C.2     1  UNL1       -0.0080
      3 C         -14.8316   -2.2873   20.6592 C.2     1  UNL1        0.0022
      4 C         -15.0506   -1.2707   19.5782 C.2     1  UNL1        0.0350
      5 C         -15.9920   -0.1079   19.4698 C.2     1  UNL1        0.1040
      6 N         -15.7570    0.5568   18.1457 N.2     1  UNL1       -0.1483
      7 N         -14.6704   -0.1952   17.4360 N.2     1  UNL1       -0.1520
      8 C         -14.2339   -1.3246   18.3213 C.2     1  UNL1        0.0860
      9 C         -13.1981   -2.3953   18.1453 C.3     1  UNL1        0.0697
     10 O          -9.1770   -7.0612   18.6764 O.2     1  UNL1       -0.2744
     11 C         -10.6533   -7.0397   18.4116 C.2     1  UNL1        0.2293
     12 N         -11.4689   -8.1769   17.8716 N.am    1  UNL1       -0.2839
     13 C         -12.8929   -7.7173   17.7666 C.ar    1  UNL1        0.0467
     14 C         -14.1391   -8.4093   17.2998 C.ar    1  UNL1        0.0144
     15 C         -15.4498   -7.6800   17.3081 C.ar    1  UNL1        0.0013
     16 C         -15.5143   -6.2588   17.7832 C.ar    1  UNL1       -0.0002
     17 C         -14.2681   -5.5667   18.2501 C.ar    1  UNL1       -0.0026
     18 C         -12.9574   -6.2960   18.2418 C.ar    1  UNL1       -0.0008
     19 C         -11.5733   -5.8772   18.6404 C.3     1  UNL1        0.0927
     20 C         -10.5194   -4.9422   19.1551 C.3     1  UNL1        0.0179
     21 C         -11.9433   -4.4826   19.0502 C.3     1  UNL1        0.0315
     22 H         -11.1292   -9.0684   17.6287 H       1  UNL1        0.1549
     23 C         -16.9926    0.3158   20.5038 C.2     1  UNL1        0.0209
     24 C         -16.9500    1.7070   21.0630 C.2     1  UNL1        0.0017
     25 C         -17.9507    2.1307   22.0970 C.ar    1  UNL1        0.0031
     26 C         -19.3596    1.6203   22.0307 C.ar    1  UNL1        0.0207
     27 C         -20.3603    2.0441   23.0647 C.ar    1  UNL1        0.0989
     28 N         -19.9520    2.9781   24.1650 N.ar    1  UNL1       -0.2423
     29 C         -18.5430    3.4885   24.2314 C.ar    1  UNL1        0.0989
     30 C         -17.5423    3.0648   23.1974 C.ar    1  UNL1        0.0207
@<TRIPOS>BOND
     1    10    11    2
     2    11    12   am
     3    12    13    1
     4    13    14   ar
     5    14    15   ar
     6    15    16   ar
     7    16    17   ar
     8    17    18   ar
     9    18    19    1
    10    19    20    1
    11    20    21    1
    12    21     1    1
    13     1     2    2
    14     2     3    1
    15     3     4    2
    16     4     5    1
    17     5    23    1
    18    23    24    2
    19    24    25    1
    20    25    26   ar
    21    26    27   ar
    22    27    28   ar
    23    28    29   ar
    24    29    30   ar
    25     5     6    2
    26     6     7    1
    27     7     8    2
    28     8     9    1
    29    19    11    1
    30     9     1    1
    31    18    13   ar
    32    21    19    1
    33     8     4    1
    34    30    25   ar
    35    12    22    1
@<TRIPOS>MOLECULE
*****
 30 35 0 0 0
SMALL
GASTEIGER

@<TRIPOS>ATOM
      1 C         -14.9083   -3.7104   18.6836 C.2     1  UNL1       -0.0378
      2 C         -15.0568   -3.0164   20.0052 C.2     1  UNL1       -0.0080
      3 C         -15.2846   -1.5346   20.0528 C.2     1  UNL1        0.0022
      4 C         -15.3639   -0.7468   18.7787 C.2     1  UNL1        0.0350
      5 C         -15.5784    0.7140   18.5137 C.2     1  UNL1        0.1040
      6 N         -15.5626    0.9228   17.0284 N.2     1  UNL1       -0.1483
      7 N         -15.3383   -0.4089   16.3755 N.2     1  UNL1       -0.1520
      8 C         -15.2155   -1.4407   17.4572 C.2     1  UNL1        0.0860
      9 C         -14.9877   -2.9226   17.4097 C.3     1  UNL1        0.0697
     10 O         -14.3100   -8.9723   18.5116 O.2     1  UNL1       -0.2744
     11 C         -13.3607   -7.8122   18.5666 C.2     1  UNL1        0.2293
     12 N         -11.8633   -7.8984   18.5872 N.am    1  UNL1       -0.2839
     13 C         -11.3193   -6.5017   18.6440 C.ar    1  UNL1        0.0467
     14 C          -9.9166   -5.9717   18.6844 C.ar    1  UNL1        0.0144
     15 C          -9.6752   -4.4924   18.7392 C.ar    1  UNL1        0.0013
     16 C         -10.8363   -3.5429   18.7536 C.ar    1  UNL1       -0.0002
     17 C         -12.2390   -4.0728   18.7132 C.ar    1  UNL1       -0.0026
     18 C         -12.4805   -5.5522   18.6584 C.ar    1  UNL1       -0.0008
     19 C         -13.7421   -6.3622   18.6106 C.3     1  UNL1        0.0927
     20 C         -15.2245   -6.5890   18.5794 C.3     1  UNL1        0.0179
     21 C         -14.6805   -5.1923   18.6361 C.3     1  UNL1        0.0315
     22 H         -11.3310   -8.7263   18.5671 H       1  UNL1        0.1549
     23 C         -15.7744    1.7789   19.5518 C.2     1  UNL1        0.0209
     24 C         -16.8770    1.6493   20.5604 C.2     1  UNL1        0.0017
     25 C         -17.0730    2.7142   21.5984 C.ar    1  UNL1        0.0031
     26 C         -17.9257    2.4408   22.8018 C.ar    1  UNL1        0.0207
     27 C         -18.1216    3.5058   23.8398 C.ar    1  UNL1        0.0989
     28 N         -17.4649    4.8442   23.6745 N.ar    1  UNL1       -0.2423
     29 C         -16.6122    5.1177   22.4711 C.ar    1  UNL1        0.0989
     30 C         -16.4162    4.0527   21.4330 C.ar    1  UNL1        0.0207
@<TRIPOS>BOND
     1    10    11    2
     2    11    12   am
     3    12    13    1
     4    13    14   ar
     5    14    15   ar
     6    15    16   ar
     7    16    17   ar
     8    17    18   ar
     9    18    19    1
    10    19    20    1
    11    20    21    1
    12    21     1    1
    13     1     2    2
    14     2     3    1
    15     3     4    2
    16     4     5    1
    17     5    23    1
    18    23    24    2
    19    24    25    1
    20    25    26   ar
    21    26    27   ar
    22    27    28   ar
    23    28    29   ar
    24    29    30   ar
    25     5     6    2
    26     6     7    1
    27     7     8    2
    28     8     9    1
    29    19    11    1
    30     9     1    1
    31    18    13   ar
    32    21    19    1
    33     8     4    1
    34    30    25   ar
    35    12    22    1
@<TRIPOS>MOLECULE
*****
 30 35 0 0 0
SMALL
GASTEIGER

@<TRIPOS>ATOM
      1 C           2.5323   -0.5792   21.2982 C.2     1  UNL1       -0.0378
      2 C           1.3675   -0.7560   20.3696 C.2     1  UNL1       -0.0080
      3 C           0.2930    0.2888   20.3070 C.2     1  UNL1        0.0022
      4 C           0.3832    1.5103   21.1729 C.2     1  UNL1        0.0350
      5 C          -0.5172    2.7000   21.3271 C.2     1  UNL1        0.1040
      6 N           0.0911    3.6121   22.3509 N.2     1  UNL1       -0.1483
      7 N           1.3674    2.9860   22.8294 N.2     1  UNL1       -0.1520
      8 C           1.5479    1.6871   22.1015 C.2     1  UNL1        0.0860
      9 C           2.6225    0.6423   22.1640 C.3     1  UNL1        0.0697
     10 O           6.2380   -4.3460   21.6907 O.2     1  UNL1       -0.2744
     11 C           5.9848   -3.2230   20.7291 C.2     1  UNL1        0.2293
     12 N           6.8213   -2.8822   19.5315 N.am    1  UNL1       -0.2839
     13 C           6.2042   -1.6922   18.8585 C.ar    1  UNL1        0.0467
     14 C           6.5939   -0.9170   17.6349 C.ar    1  UNL1        0.0144
     15 C           5.7657    0.2529   17.1929 C.ar    1  UNL1        0.0013
     16 C           4.5478    0.6476   17.9745 C.ar    1  UNL1       -0.0002
     17 C           4.1581   -0.1275   19.1981 C.ar    1  UNL1       -0.0026
     18 C           4.9863   -1.2974   19.6400 C.ar    1  UNL1       -0.0008
     19 C           4.8507   -2.2435   20.7961 C.3     1  UNL1        0.0927
     20 C           4.2239   -2.8139   22.0338 C.3     1  UNL1        0.0179
     21 C           3.6068   -1.6240   21.3608 C.3     1  UNL1        0.0315
     22 H           7.6329   -3.3563   19.2387 H       1  UNL1        0.1549
     23 C          -1.8005    2.9362   20.5873 C.2     1  UNL1        0.0209
     24 C          -2.9557    3.5954   21.2809 C.2     1  UNL1        0.0017
     25 C          -4.2390    3.8316   20.5411 C.ar    1  UNL1        0.0031
     26 C          -4.2911    3.6509   19.0530 C.ar    1  UNL1        0.0207
     27 C          -5.5744    3.8872   18.3132 C.ar    1  UNL1        0.0989
     28 N          -6.8057    4.3040   19.0616 N.ar    1  UNL1       -0.2423
     29 C          -6.7537    4.4847   20.5498 C.ar    1  UNL1        0.0989
     30 C          -5.4703    4.2485   21.2896 C.ar    1  UNL1        0.0207
@<TRIPOS>BOND
     1    10    11    2
     2    11    12   am
     3    12    13    1
     4    13    14   ar
     5    14    15   ar
     6    15    16   ar
     7    16    17   ar
     8    17    18   ar
     9    18    19    1
    10    19    20    1
    11    20    21    1
    12    21     1    1
    13     1     2    2
    14     2     3    1
    15     3     4    2
    16     4     5    1
    17     5    23    1
    18    23    24    2
    19    24    25    1
    20    25    26   ar
    21    26    27   ar
    22    27    28   ar
    23    28    29   ar
    24    29    30   ar
    25     5     6    2
    26     6     7    1
    27     7     8    2
    28     8     9    1
    29    19    11    1
    30     9     1    1
    31    18    13   ar
    32    21    19    1
    33     8     4    1
    34    30    25   ar
    35    12    22    1
@<TRIPOS>MOLECULE
*****
 30 35 0 0 0
SMALL
GASTEIGER

@<TRIPOS>ATOM
      1 C          -1.3118    3.6292   25.1176 C.2     1  UNL1       -0.0378
      2 C          -0.9554    2.2173   25.4779 C.2     1  UNL1       -0.0080
      3 C          -0.0215    1.4332   24.6044 C.2     1  UNL1        0.0022
      4 C           0.5561    2.0611   23.3706 C.2     1  UNL1        0.0350
      5 C           1.4962    1.5391   22.3248 C.2     1  UNL1        0.1040
      6 N           1.7209    2.6283   21.3182 N.2     1  UNL1       -0.1483
      7 N           0.9196    3.8235   21.7420 N.2     1  UNL1       -0.1520
      8 C           0.1998    3.4729   23.0103 C.2     1  UNL1        0.0860
      9 C          -0.7342    4.2570   23.8839 C.3     1  UNL1        0.0697
     10 O          -4.4539    6.4293   28.3366 O.2     1  UNL1       -0.2744
     11 C          -4.6563    5.7281   27.0261 C.2     1  UNL1        0.2293
     12 N          -5.9394    5.6586   26.2523 N.am    1  UNL1       -0.2839
     13 C          -5.6873    4.8607   25.0073 C.ar    1  UNL1        0.0467
     14 C          -6.5820    4.4653   23.8703 C.ar    1  UNL1        0.0144
     15 C          -6.0379    3.6462   22.7376 C.ar    1  UNL1        0.0013
     16 C          -4.5989    3.2226   22.7420 C.ar    1  UNL1       -0.0002
     17 C          -3.7041    3.6181   23.8790 C.ar    1  UNL1       -0.0026
     18 C          -4.2483    4.4372   25.0117 C.ar    1  UNL1       -0.0008
     19 C          -3.6112    4.9732   26.2594 C.3     1  UNL1        0.0927
     20 C          -2.4979    5.2109   27.2361 C.3     1  UNL1        0.0179
     21 C          -2.2457    4.4132   25.9913 C.3     1  UNL1        0.0315
     22 H          -6.7965    6.0652   26.5153 H       1  UNL1        0.1549
     23 C           2.1047    0.1684   22.2914 C.2     1  UNL1        0.0209
     24 C           2.7575   -0.3320   21.0371 C.2     1  UNL1        0.0017
     25 C           3.3660   -1.7026   21.0037 C.ar    1  UNL1        0.0031
     26 C           3.3143   -2.5157   19.7443 C.ar    1  UNL1        0.0207
     27 C           3.9228   -3.8864   19.7109 C.ar    1  UNL1        0.0989
     28 N           4.5831   -4.4438   20.9369 N.ar    1  UNL1       -0.2423
     29 C           4.6349   -3.6307   22.1964 C.ar    1  UNL1        0.0989
     30 C           4.0264   -2.2601   22.2298 C.ar    1  UNL1        0.0207
@<TRIPOS>BOND
     1    10    11    2
     2    11    12   am
     3    12    13    1
     4    13    14   ar
     5    14    15   ar
     6    15    16   ar
     7    16    17   ar
     8    17    18   ar
     9    18    19    1
    10    19    20    1
    11    20    21    1
    12    21     1    1
    13     1     2    2
    14     2     3    1
    15     3     4    2
    16     4     5    1
    17     5    23    1
    18    23    24    2
    19    24    25    1
    20    25    26   ar
    21    26    27   ar
    22    27    28   ar
    23    28    29   ar
    24    29    30   ar
    25     5     6    2
    26     6     7    1
    27     7     8    2
    28     8     9    1
    29    19    11    1
    30     9     1    1
    31    18    13   ar
    32    21    19    1
    33     8     4    1
    34    30    25   ar
    35    12    22    1
@<TRIPOS>MOLECULE
*****
 30 35 0 0 0
SMALL
GASTEIGER

@<TRIPOS>ATOM
      1 C           2.9344    1.2807   18.4499 C.2     1  UNL1       -0.0378
      2 C           1.4931    0.9390   18.2133 C.2     1  UNL1       -0.0080
      3 C           0.4286    1.9671   18.4578 C.2     1  UNL1        0.0022
      4 C           0.8055    3.3370   18.9389 C.2     1  UNL1        0.0350
      5 C          -0.0175    4.5481   19.2643 C.2     1  UNL1        0.1040
      6 N           0.9151    5.6384   19.7019 N.2     1  UNL1       -0.1483
      7 N           2.3145    5.1010   19.6470 N.2     1  UNL1       -0.1520
      8 C           2.2467    3.6788   19.1755 C.2     1  UNL1        0.0860
      9 C           3.3112    2.6506   18.9309 C.3     1  UNL1        0.0697
     10 O           6.7169   -2.2762   17.3932 O.2     1  UNL1       -0.2744
     11 C           5.8693   -1.9750   18.5935 C.2     1  UNL1        0.2293
     12 N           5.9124   -2.6978   19.9072 N.am    1  UNL1       -0.2839
     13 C           4.8994   -2.0676   20.8165 C.ar    1  UNL1        0.0467
     14 C           4.5000   -2.3630   22.2318 C.ar    1  UNL1        0.0144
     15 C           3.4313   -1.5460   22.8955 C.ar    1  UNL1        0.0013
     16 C           2.7622   -0.4336   22.1438 C.ar    1  UNL1       -0.0002
     17 C           3.1617   -0.1383   20.7285 C.ar    1  UNL1       -0.0026
     18 C           4.2303   -0.9553   20.0649 C.ar    1  UNL1       -0.0008
     19 C           4.8297   -0.8981   18.6910 C.3     1  UNL1        0.0927
     20 C           5.0118   -0.3776   17.2961 C.3     1  UNL1        0.0179
     21 C           3.9989    0.2525   18.2053 C.3     1  UNL1        0.0315
     22 H           6.5020   -3.4532   20.1329 H       1  UNL1        0.1549
     23 C          -1.5110    4.6509   19.1688 C.2     1  UNL1        0.0209
     24 C          -2.3786    3.8498   20.0936 C.2     1  UNL1        0.0017
     25 C          -3.8720    3.9526   19.9981 C.ar    1  UNL1        0.0031
     26 C          -4.5639    3.6430   18.7037 C.ar    1  UNL1        0.0207
     27 C          -6.0573    3.7459   18.6082 C.ar    1  UNL1        0.0989
     28 N          -6.8589    4.1582   19.8071 N.ar    1  UNL1       -0.2423
     29 C          -6.1671    4.4678   21.1016 C.ar    1  UNL1        0.0989
     30 C          -4.6736    4.3650   21.1971 C.ar    1  UNL1        0.0207
@<TRIPOS>BOND
     1    10    11    2
     2    11    12   am
     3    12    13    1
     4    13    14   ar
     5    14    15   ar
     6    15    16   ar
     7    16    17   ar
     8    17    18   ar
     9    18    19    1
    10    19    20    1
    11    20    21    1
    12    21     1    1
    13     1     2    2
    14     2     3    1
    15     3     4    2
    16     4     5    1
    17     5    23    1
    18    23    24    2
    19    24    25    1
    20    25    26   ar
    21    26    27   ar
    22    27    28   ar
    23    28    29   ar
    24    29    30   ar
    25     5     6    2
    26     6     7    1
    27     7     8    2
    28     8     9    1
    29    19    11    1
    30     9     1    1
    31    18    13   ar
    32    21    19    1
    33     8     4    1
    34    30    25   ar
    35    12    22    1
@<TRIPOS>MOLECULE
*****
 30 35 0 0 0
SMALL
GASTEIGER

@<TRIPOS>ATOM
      1 C           2.6984   -1.0465   21.3056 C.2     1  UNL1       -0.0378
      2 C           3.1503   -0.8676   22.7248 C.2     1  UNL1       -0.0080
      3 C           2.4844    0.1515   23.6011 C.2     1  UNL1        0.0022
      4 C           1.3665    0.9917   23.0583 C.2     1  UNL1        0.0350
      5 C           0.5268    2.0678   23.6800 C.2     1  UNL1        0.1040
      6 N          -0.4442    2.5541   22.6451 N.2     1  UNL1       -0.1483
      7 N          -0.2044    1.7783   21.3839 N.2     1  UNL1       -0.1520
      8 C           0.9146    0.8128   21.6392 C.2     1  UNL1        0.0860
      9 C           1.5806   -0.2064   20.7629 C.3     1  UNL1        0.0697
     10 O           4.9107   -4.7866   18.2737 O.2     1  UNL1       -0.2744
     11 C           5.2061   -3.3390   18.5326 C.2     1  UNL1        0.2293
     12 N           6.3199   -2.5430   17.9194 N.am    1  UNL1       -0.2839
     13 C           6.2417   -1.1452   18.4580 C.ar    1  UNL1        0.0467
     14 C           7.0785    0.0745   18.2092 C.ar    1  UNL1        0.0144
     15 C           6.7533    1.3622   18.9064 C.ar    1  UNL1        0.0013
     16 C           5.5913    1.4301   19.8524 C.ar    1  UNL1       -0.0002
     17 C           4.7544    0.2104   20.1013 C.ar    1  UNL1       -0.0026
     18 C           5.0796   -1.0772   19.4040 C.ar    1  UNL1       -0.0008
     19 C           4.4396   -2.4331   19.4501 C.3     1  UNL1        0.0927
     20 C           3.4425   -3.4634   19.8908 C.3     1  UNL1        0.0179
     21 C           3.3644   -2.0657   20.4293 C.3     1  UNL1        0.0315
     22 H           6.9853   -2.8790   17.2764 H       1  UNL1        0.1549
     23 C           0.6383    2.5697   25.0892 C.2     1  UNL1        0.0209
     24 C           0.2364    1.6873   26.2336 C.2     1  UNL1        0.0017
     25 C           0.3480    2.1892   27.6428 C.ar    1  UNL1        0.0031
     26 C           0.4949    3.6585   27.9062 C.ar    1  UNL1        0.0207
     27 C           0.6065    4.1604   29.3153 C.ar    1  UNL1        0.0989
     28 N           0.5710    3.1930   30.4611 N.ar    1  UNL1       -0.2423
     29 C           0.4240    1.7235   30.1977 C.ar    1  UNL1        0.0989
     30 C           0.3125    1.2216   28.7885 C.ar    1  UNL1        0.0207
@<TRIPOS>BOND
     1    10    11    2
     2    11    12   am
     3    12    13    1
     4    13    14   ar
     5    14    15   ar
     6    15    16   ar
     7    16    17   ar
     8    17    18   ar
     9    18    19    1
    10    19    20    1
    11    20    21    1
    12    21     1    1
    13     1     2    2
    14     2     3    1
    15     3     4    2
    16     4     5    1
    17     5    23    1
    18    23    24    2
    19    24    25    1
    20    25    26   ar
    21    26    27   ar
    22    27    28   ar
    23    28    29   ar
    24    29    30   ar
    25     5     6    2
    26     6     7    1
    27     7     8    2
    28     8     9    1
    29    19    11    1
    30     9     1    1
    31    18    13   ar
    32    21    19    1
    33     8     4    1
    34    30    25   ar
    35    12    22    1
