@<TRIPOS>MOLECULE
*****
 42 46 0 0 0
SMALL
GASTEIGER

@<TRIPOS>ATOM
      1 C           6.9990   -3.3826   23.0585 C.ar    1  UNL1        0.0383
      2 C           5.9709   -3.4182   21.9668 C.ar    1  UNL1        0.0433
      3 N           4.7388   -2.7246   22.4677 N.ar    1  UNL1       -0.3260
      4 C           5.0055   -2.2603   23.8689 C.ar    1  UNL1        0.0606
      5 C           4.1568   -1.5197   24.8594 C.ar    1  UNL1        0.0203
      6 C           4.7050   -1.1858   26.2151 C.ar    1  UNL1        0.0384
      7 C           6.1019   -1.5925   26.5803 C.ar    1  UNL1        0.1392
      8 C           6.9506   -2.3331   25.5897 C.ar    1  UNL1        0.0389
      9 C           6.4024   -2.6670   24.2340 C.ar    1  UNL1        0.0256
     10 S           8.3811   -3.9611   22.9871 S.3     1  UNL1       -0.1142
     11 C           9.2447   -5.2811   21.5688 C.3     1  UNL1        0.0112
     12 C           8.5688   -5.4465   22.8976 C.3     1  UNL1        0.0434
     13 C           7.8930   -5.6120   24.2265 C.3     1  UNL1        0.0112
     14 C           8.7565   -6.9320   22.8081 C.3     1  UNL1        0.0112
     15 C           6.1444   -4.0386   20.6122 C.3     1  UNL1        0.0495
     16 C           5.9491   -3.2099   19.3772 C.3     1  UNL1        0.0376
     17 C           4.7984   -4.0832   18.9732 C.3     1  UNL1        0.0059
     18 C           7.0998   -2.3367   19.7812 C.3     1  UNL1        0.0059
     19 C           5.7538   -2.3813   18.1422 C.2     1  UNL1        0.0500
     20 O           6.9316   -2.0237   17.2849 O.co2   1  UNL1       -0.5492
     21 O           4.3807   -1.9103   17.7644 O.co2   1  UNL1       -0.5492
     22 C           3.4639   -2.5295   21.7018 C.3     1  UNL1        0.1324
     23 C           3.2202   -1.2454   20.9656 C.ar    1  UNL1        0.0004
     24 C           4.2974   -0.2039   20.8975 C.ar    1  UNL1       -0.0023
     25 C           4.0538    1.0801   20.1614 C.ar    1  UNL1        0.0028
     26 C           2.7328    1.3226   19.4934 C.ar    1  UNL1        0.0358
     27 C           1.6556    0.2810   19.5615 C.ar    1  UNL1        0.0028
     28 C           1.8992   -1.0030   20.2976 C.ar    1  UNL1       -0.0023
     29 C           2.4891    2.6065   18.7572 C.ar    1  UNL1        0.1623
     30 N           1.0879    3.1056   18.5634 N.ar    1  UNL1       -0.2250
     31 C           0.8440    4.3897   17.8273 C.ar    1  UNL1        0.1022
     32 C           2.0015    5.1746   17.2849 C.ar    1  UNL1        0.0414
     33 C           3.4027    4.6755   17.4787 C.ar    1  UNL1        0.1022
     34 N           3.6465    3.3916   18.2148 N.ar    1  UNL1       -0.2250
     35 O           6.6501   -1.2586   27.9360 O.3     1  UNL1       -0.4690
     36 C           5.9028   -1.6709   29.1695 C.3     1  UNL1        0.2508
     37 C           6.2775   -2.9342   29.8863 C.ar    1  UNL1        0.1026
     38 C           6.3825   -2.9447   31.3826 C.ar    1  UNL1        0.0185
     39 C           6.7572   -4.2080   32.0992 C.ar    1  UNL1        0.0029
     40 C           7.0269   -5.4608   31.3197 C.ar    1  UNL1        0.0207
     41 C           6.9220   -5.4503   29.8234 C.ar    1  UNL1        0.0986
     42 N           6.5473   -4.1870   29.1067 N.ar    1  UNL1       -0.2445
@<TRIPOS>UNITY_ATOM_ATTR
20 1
charge -1
@<TRIPOS>BOND
     1    11    12    1
     2    12    13    1
     3    12    14    1
     4    12    10    1
     5    10     1    1
     6     1     2   ar
     7     2    15    1
     8    15    16    1
     9    16    17    1
    10    16    18    1
    11    16    19    1
    12    19    20   ar
    13    19    21   ar
    14     2     3   ar
    15     3    22    1
    16    22    23    1
    17    23    24   ar
    18    24    25   ar
    19    25    26   ar
    20    26    29    1
    21    29    30   ar
    22    30    31   ar
    23    31    32   ar
    24    32    33   ar
    25    33    34   ar
    26    26    27   ar
    27    27    28   ar
    28     3     4   ar
    29     4     5   ar
    30     5     6   ar
    31     6     7   ar
    32     7    35    1
    33    35    36    1
    34    36    37    1
    35    37    38   ar
    36    38    39   ar
    37    39    40   ar
    38    40    41   ar
    39    41    42   ar
    40     7     8   ar
    41     8     9   ar
    42     9     1   ar
    43    28    23   ar
    44     9     4   ar
    45    34    29   ar
    46    42    37   ar
@<TRIPOS>MOLECULE
*****
 42 46 0 0 0
SMALL
GASTEIGER

@<TRIPOS>ATOM
      1 C           3.2432    0.6767   19.5836 C.ar    1  UNL1        0.0383
      2 C           4.3038   -0.3657   19.3872 C.ar    1  UNL1        0.0433
      3 N           5.4931    0.0214   20.2153 N.ar    1  UNL1       -0.3260
      4 C           5.1675    1.3030   20.9235 C.ar    1  UNL1        0.0606
      5 C           5.9575    2.1535   21.8734 C.ar    1  UNL1        0.0203
      6 C           5.3570    3.4090   22.4329 C.ar    1  UNL1        0.0384
      7 C           3.9665    3.8140   22.0425 C.ar    1  UNL1        0.1392
      8 C           3.1765    2.9635   21.0926 C.ar    1  UNL1        0.0389
      9 C           3.7770    1.7080   20.5331 C.ar    1  UNL1        0.0256
     10 S           1.8869    0.6861   18.9430 S.3     1  UNL1       -0.1142
     11 C           0.7553    0.1474   20.6545 C.3     1  UNL1        0.0112
     12 C           0.7176    1.2795   19.6712 C.3     1  UNL1        0.0434
     13 C           0.6799    2.4117   18.6879 C.3     1  UNL1        0.0112
     14 C          -0.4518    1.8731   20.3993 C.3     1  UNL1        0.0112
     15 C           4.1944   -1.5816   18.5157 C.3     1  UNL1        0.0495
     16 C           4.3324   -2.9494   19.1158 C.3     1  UNL1        0.0376
     17 C           5.4200   -3.2704   18.1340 C.3     1  UNL1        0.0059
     18 C           3.2448   -2.6283   20.0976 C.3     1  UNL1        0.0059
     19 C           4.4705   -4.3172   19.7159 C.2     1  UNL1        0.0500
     20 O           4.7293   -5.5013   18.8322 O.co2   1  UNL1       -0.5492
     21 O           4.3497   -4.5009   21.1997 O.co2   1  UNL1       -0.5492
     22 C           6.7818   -0.7394   20.3173 C.3     1  UNL1        0.1324
     23 C           6.9140   -1.8619   21.3037 C.ar    1  UNL1        0.0004
     24 C           6.2152   -1.7822   22.6285 C.ar    1  UNL1       -0.0023
     25 C           6.3473   -2.9045   23.6149 C.ar    1  UNL1        0.0028
     26 C           7.1784   -4.1065   23.2763 C.ar    1  UNL1        0.0358
     27 C           7.8772   -4.1861   21.9515 C.ar    1  UNL1        0.0028
     28 C           7.7451   -3.0638   20.9651 C.ar    1  UNL1       -0.0023
     29 C           7.3106   -5.2289   24.2626 C.ar    1  UNL1        0.1623
     30 N           7.9472   -6.5218   23.8466 N.ar    1  UNL1       -0.2250
     31 C           8.0795   -7.6443   24.8329 C.ar    1  UNL1        0.1022
     32 C           7.5752   -7.4737   26.2352 C.ar    1  UNL1        0.0414
     33 C           6.9386   -6.1808   26.6513 C.ar    1  UNL1        0.1022
     34 N           6.8063   -5.0584   25.6650 N.ar    1  UNL1       -0.2250
     35 O           3.3660    5.0696   22.6020 O.3     1  UNL1       -0.4690
     36 C           2.6857    5.0446   23.9386 C.3     1  UNL1        0.2508
     37 C           1.8889    3.8428   24.3523 C.ar    1  UNL1        0.1026
     38 C           0.5523    3.5771   23.7255 C.ar    1  UNL1        0.0185
     39 C          -0.2444    2.3754   24.1392 C.ar    1  UNL1        0.0029
     40 C           0.2955    1.4395   25.1797 C.ar    1  UNL1        0.0207
     41 C           1.6320    1.7052   25.8065 C.ar    1  UNL1        0.0986
     42 N           2.4287    2.9069   25.3928 N.ar    1  UNL1       -0.2445
@<TRIPOS>UNITY_ATOM_ATTR
20 1
charge -1
@<TRIPOS>BOND
     1    11    12    1
     2    12    13    1
     3    12    14    1
     4    12    10    1
     5    10     1    1
     6     1     2   ar
     7     2    15    1
     8    15    16    1
     9    16    17    1
    10    16    18    1
    11    16    19    1
    12    19    20   ar
    13    19    21   ar
    14     2     3   ar
    15     3    22    1
    16    22    23    1
    17    23    24   ar
    18    24    25   ar
    19    25    26   ar
    20    26    29    1
    21    29    30   ar
    22    30    31   ar
    23    31    32   ar
    24    32    33   ar
    25    33    34   ar
    26    26    27   ar
    27    27    28   ar
    28     3     4   ar
    29     4     5   ar
    30     5     6   ar
    31     6     7   ar
    32     7    35    1
    33    35    36    1
    34    36    37    1
    35    37    38   ar
    36    38    39   ar
    37    39    40   ar
    38    40    41   ar
    39    41    42   ar
    40     7     8   ar
    41     8     9   ar
    42     9     1   ar
    43    28    23   ar
    44     9     4   ar
    45    34    29   ar
    46    42    37   ar
@<TRIPOS>MOLECULE
*****
 42 46 0 0 0
SMALL
GASTEIGER

@<TRIPOS>ATOM
      1 C           3.2159   -0.8221   20.5266 C.ar    1  UNL1        0.0383
      2 C           2.7581    0.6063   20.5246 C.ar    1  UNL1        0.0433
      3 N           3.1135    1.2088   21.8515 N.ar    1  UNL1       -0.3260
      4 C           3.7910    0.1528   22.6735 C.ar    1  UNL1        0.0606
      5 C           4.3585    0.1719   24.0619 C.ar    1  UNL1        0.0203
      6 C           4.9893   -1.0641   24.6314 C.ar    1  UNL1        0.0384
      7 C           5.0525   -2.3193   23.8126 C.ar    1  UNL1        0.1392
      8 C           4.4850   -2.3384   22.4242 C.ar    1  UNL1        0.0389
      9 C           3.8543   -1.1024   21.8547 C.ar    1  UNL1        0.0256
     10 S           3.0622   -1.7988   19.3986 S.3     1  UNL1       -0.1142
     11 C           4.7934   -1.0909   18.3976 C.3     1  UNL1        0.0112
     12 C           4.2745   -2.4417   18.7927 C.3     1  UNL1        0.0434
     13 C           3.7555   -3.7925   19.1878 C.3     1  UNL1        0.0112
     14 C           5.4867   -3.0847   18.1869 C.3     1  UNL1        0.0112
     15 C           2.0662    1.3089   19.3942 C.3     1  UNL1        0.0495
     16 C           0.7623    2.0108   19.6332 C.3     1  UNL1        0.0376
     17 C           0.1938    0.7540   20.2225 C.3     1  UNL1        0.0059
     18 C           1.3309    3.2675   19.0439 C.3     1  UNL1        0.0059
     19 C          -0.5416    2.7127   19.8722 C.2     1  UNL1        0.0500
     20 O          -0.9842    3.8080   18.9479 O.co2   1  UNL1       -0.5492
     21 O          -1.4029    2.3192   21.0355 O.co2   1  UNL1       -0.5492
     22 C           2.8396    2.6197   22.2809 C.3     1  UNL1        0.1324
     23 C           1.5641    2.9514   22.9973 C.ar    1  UNL1        0.0004
     24 C           0.9334    1.9433   23.9116 C.ar    1  UNL1       -0.0023
     25 C          -0.3421    2.2749   24.6280 C.ar    1  UNL1        0.0028
     26 C          -0.9868    3.6147   24.4300 C.ar    1  UNL1        0.0358
     27 C          -0.3561    4.6228   23.5157 C.ar    1  UNL1        0.0028
     28 C           0.9193    4.2912   22.7994 C.ar    1  UNL1       -0.0023
     29 C          -2.2623    3.9464   25.1463 C.ar    1  UNL1        0.1623
     30 N          -3.5725    3.4433   24.6169 N.ar    1  UNL1       -0.2250
     31 C          -4.8481    3.7750   25.3332 C.ar    1  UNL1        0.1022
     32 C          -4.8133    4.6097   26.5789 C.ar    1  UNL1        0.0414
     33 C          -3.5032    5.1128   27.1084 C.ar    1  UNL1        0.1022
     34 N          -2.2277    4.7812   26.3921 N.ar    1  UNL1       -0.2250
     35 O           5.6833   -3.5553   24.3821 O.3     1  UNL1       -0.4690
     36 C           6.8455   -4.1949   23.6822 C.3     1  UNL1        0.2508
     37 C           7.4830   -5.4250   24.2573 C.ar    1  UNL1        0.1026
     38 C           7.3086   -5.7502   25.7112 C.ar    1  UNL1        0.0185
     39 C           7.9461   -6.9801   26.2863 C.ar    1  UNL1        0.0029
     40 C           8.7578   -7.8850   25.4075 C.ar    1  UNL1        0.0207
     41 C           8.9322   -7.5598   23.9536 C.ar    1  UNL1        0.0986
     42 N           8.2948   -6.3298   23.3785 N.ar    1  UNL1       -0.2445
@<TRIPOS>UNITY_ATOM_ATTR
20 1
charge -1
@<TRIPOS>BOND
     1    11    12    1
     2    12    13    1
     3    12    14    1
     4    12    10    1
     5    10     1    1
     6     1     2   ar
     7     2    15    1
     8    15    16    1
     9    16    17    1
    10    16    18    1
    11    16    19    1
    12    19    20   ar
    13    19    21   ar
    14     2     3   ar
    15     3    22    1
    16    22    23    1
    17    23    24   ar
    18    24    25   ar
    19    25    26   ar
    20    26    29    1
    21    29    30   ar
    22    30    31   ar
    23    31    32   ar
    24    32    33   ar
    25    33    34   ar
    26    26    27   ar
    27    27    28   ar
    28     3     4   ar
    29     4     5   ar
    30     5     6   ar
    31     6     7   ar
    32     7    35    1
    33    35    36    1
    34    36    37    1
    35    37    38   ar
    36    38    39   ar
    37    39    40   ar
    38    40    41   ar
    39    41    42   ar
    40     7     8   ar
    41     8     9   ar
    42     9     1   ar
    43    28    23   ar
    44     9     4   ar
    45    34    29   ar
    46    42    37   ar
@<TRIPOS>MOLECULE
*****
 42 46 0 0 0
SMALL
GASTEIGER

@<TRIPOS>ATOM
      1 C           4.3889   -1.9480   21.7545 C.ar    1  UNL1        0.0383
      2 C           3.8481   -0.6404   21.2567 C.ar    1  UNL1        0.0433
      3 N           3.9020    0.3439   22.3873 N.ar    1  UNL1       -0.3260
      4 C           4.4761   -0.3552   23.5838 C.ar    1  UNL1        0.0606
      5 C           4.7637    0.1150   24.9788 C.ar    1  UNL1        0.0203
      6 C           5.3522   -0.8314   25.9828 C.ar    1  UNL1        0.0384
      7 C           5.6532   -2.2479   25.5917 C.ar    1  UNL1        0.1392
      8 C           5.3656   -2.7181   24.1967 C.ar    1  UNL1        0.0389
      9 C           4.7770   -1.7717   23.1927 C.ar    1  UNL1        0.0256
     10 S           4.5188   -3.2102   20.9546 S.3     1  UNL1       -0.1142
     11 C           6.3445   -2.6551   20.0279 C.3     1  UNL1        0.0112
     12 C           5.0165   -3.1544   19.5408 C.3     1  UNL1        0.0434
     13 C           3.6886   -3.6537   19.0536 C.3     1  UNL1        0.0112
     14 C           5.5142   -3.0985   18.1269 C.3     1  UNL1        0.0112
     15 C           3.3422   -0.3655   19.8716 C.3     1  UNL1        0.0495
     16 C           1.9968    0.2681   19.6766 C.3     1  UNL1        0.0376
     17 C           2.6298    1.3649   18.8727 C.3     1  UNL1        0.0059
     18 C           1.3637   -0.8287   20.4804 C.3     1  UNL1        0.0059
     19 C           0.6512    0.9018   19.4815 C.2     1  UNL1        0.0500
     20 O          -0.3636    0.8623   20.5854 O.co2   1  UNL1       -0.5492
     21 O           0.3205    1.5750   18.1825 O.co2   1  UNL1       -0.5492
     22 C           3.4595    1.7761   22.3312 C.3     1  UNL1        0.1324
     23 C           2.1192    2.1689   22.8784 C.ar    1  UNL1        0.0004
     24 C           1.4233    3.3897   22.3536 C.ar    1  UNL1       -0.0023
     25 C           0.0831    3.7826   22.9008 C.ar    1  UNL1        0.0028
     26 C          -0.5612    2.9546   23.9729 C.ar    1  UNL1        0.0358
     27 C           0.1347    1.7339   24.4977 C.ar    1  UNL1        0.0028
     28 C           1.4749    1.3410   23.9506 C.ar    1  UNL1       -0.0023
     29 C          -1.9014    3.3475   24.5201 C.ar    1  UNL1        0.1623
     30 N          -2.1340    3.3533   26.0020 N.ar    1  UNL1       -0.2250
     31 C          -3.4743    3.7461   26.5494 C.ar    1  UNL1        0.1022
     32 C          -4.5819    4.1331   25.6148 C.ar    1  UNL1        0.0414
     33 C          -4.3493    4.1273   24.1330 C.ar    1  UNL1        0.1022
     34 N          -3.0092    3.7345   23.5856 N.ar    1  UNL1       -0.2250
     35 O           6.2418   -3.1942   26.5958 O.3     1  UNL1       -0.4690
     36 C           7.6551   -3.6712   26.4382 C.3     1  UNL1        0.2508
     37 C           7.9317   -4.9982   25.7958 C.ar    1  UNL1        0.1026
     38 C           8.1514   -5.0831   24.3145 C.ar    1  UNL1        0.0185
     39 C           8.4279   -6.4101   23.6722 C.ar    1  UNL1        0.0029
     40 C           8.4848   -7.6521   24.5112 C.ar    1  UNL1        0.0207
     41 C           8.2651   -7.5672   25.9926 C.ar    1  UNL1        0.0986
     42 N           7.9886   -6.2403   26.6349 N.ar    1  UNL1       -0.2445
@<TRIPOS>UNITY_ATOM_ATTR
20 1
charge -1
@<TRIPOS>BOND
     1    11    12    1
     2    12    13    1
     3    12    14    1
     4    12    10    1
     5    10     1    1
     6     1     2   ar
     7     2    15    1
     8    15    16    1
     9    16    17    1
    10    16    18    1
    11    16    19    1
    12    19    20   ar
    13    19    21   ar
    14     2     3   ar
    15     3    22    1
    16    22    23    1
    17    23    24   ar
    18    24    25   ar
    19    25    26   ar
    20    26    29    1
    21    29    30   ar
    22    30    31   ar
    23    31    32   ar
    24    32    33   ar
    25    33    34   ar
    26    26    27   ar
    27    27    28   ar
    28     3     4   ar
    29     4     5   ar
    30     5     6   ar
    31     6     7   ar
    32     7    35    1
    33    35    36    1
    34    36    37    1
    35    37    38   ar
    36    38    39   ar
    37    39    40   ar
    38    40    41   ar
    39    41    42   ar
    40     7     8   ar
    41     8     9   ar
    42     9     1   ar
    43    28    23   ar
    44     9     4   ar
    45    34    29   ar
    46    42    37   ar
@<TRIPOS>MOLECULE
*****
 42 46 0 0 0
SMALL
GASTEIGER

@<TRIPOS>ATOM
      1 C           3.8092   -1.8604   20.1686 C.ar    1  UNL1        0.0383
      2 C           3.4381   -0.4084   20.2302 C.ar    1  UNL1        0.0433
      3 N           3.8791    0.1266   21.5604 N.ar    1  UNL1       -0.3260
      4 C           4.5227   -0.9948   22.3208 C.ar    1  UNL1        0.0606
      5 C           5.1425   -1.0563   23.6854 C.ar    1  UNL1        0.0203
      6 C           5.7192   -2.3459   24.1897 C.ar    1  UNL1        0.0384
      7 C           5.6760   -3.5740   23.3295 C.ar    1  UNL1        0.1392
      8 C           5.0562   -3.5125   21.9650 C.ar    1  UNL1        0.0389
      9 C           4.4796   -2.2229   21.4606 C.ar    1  UNL1        0.0256
     10 S           3.5547   -2.7874   19.0171 S.3     1  UNL1       -0.1142
     11 C           5.5274   -3.2367   18.3793 C.3     1  UNL1        0.0112
     12 C           4.3624   -4.0429   18.8722 C.3     1  UNL1        0.0434
     13 C           3.1975   -4.8492   19.3651 C.3     1  UNL1        0.0112
     14 C           5.1701   -5.2986   18.7273 C.3     1  UNL1        0.0112
     15 C           2.7473    0.3717   19.1512 C.3     1  UNL1        0.0495
     16 C           1.4606    1.0835   19.4470 C.3     1  UNL1        0.0376
     17 C           2.0338    2.3519   18.8881 C.3     1  UNL1        0.0059
     18 C           0.8874   -0.1849   20.0059 C.3     1  UNL1        0.0059
     19 C           0.1738    1.7954   19.7428 C.2     1  UNL1        0.0500
     20 O          -0.7104    1.3152   20.8552 O.co2   1  UNL1       -0.5492
     21 O          -0.2287    2.9874   18.9261 O.co2   1  UNL1       -0.5492
     22 C           3.7067    1.5356   22.0451 C.3     1  UNL1        0.1324
     23 C           2.4242    1.9508   22.7033 C.ar    1  UNL1        0.0004
     24 C           1.6706    0.9761   23.5588 C.ar    1  UNL1       -0.0023
     25 C           0.3882    1.3911   24.2170 C.ar    1  UNL1        0.0028
     26 C          -0.1405    2.7809   24.0196 C.ar    1  UNL1        0.0358
     27 C           0.6132    3.7556   23.1641 C.ar    1  UNL1        0.0028
     28 C           1.8956    3.3406   22.5059 C.ar    1  UNL1       -0.0023
     29 C          -1.4228    3.1960   24.6778 C.ar    1  UNL1        0.1623
     30 N          -2.5753    3.6697   23.8427 N.ar    1  UNL1       -0.2250
     31 C          -3.8578    4.0849   24.5008 C.ar    1  UNL1        0.1022
     32 C          -3.9877    4.0263   25.9940 C.ar    1  UNL1        0.0414
     33 C          -2.8352    3.5526   26.8291 C.ar    1  UNL1        0.1022
     34 N          -1.5528    3.1375   26.1711 N.ar    1  UNL1       -0.2250
     35 O           6.2527   -4.8636   23.8339 O.3     1  UNL1       -0.4690
     36 C           7.5825   -4.8700   24.5278 C.3     1  UNL1        0.2508
     37 C           7.8392   -5.8335   25.6484 C.ar    1  UNL1        0.1026
     38 C           7.7230   -7.3098   25.4096 C.ar    1  UNL1        0.0185
     39 C           7.9797   -8.2732   26.5302 C.ar    1  UNL1        0.0029
     40 C           8.3526   -7.7604   27.8896 C.ar    1  UNL1        0.0207
     41 C           8.4687   -6.2842   28.1284 C.ar    1  UNL1        0.0986
     42 N           8.2120   -5.3207   27.0078 N.ar    1  UNL1       -0.2445
@<TRIPOS>UNITY_ATOM_ATTR
20 1
charge -1
@<TRIPOS>BOND
     1    11    12    1
     2    12    13    1
     3    12    14    1
     4    12    10    1
     5    10     1    1
     6     1     2   ar
     7     2    15    1
     8    15    16    1
     9    16    17    1
    10    16    18    1
    11    16    19    1
    12    19    20   ar
    13    19    21   ar
    14     2     3   ar
    15     3    22    1
    16    22    23    1
    17    23    24   ar
    18    24    25   ar
    19    25    26   ar
    20    26    29    1
    21    29    30   ar
    22    30    31   ar
    23    31    32   ar
    24    32    33   ar
    25    33    34   ar
    26    26    27   ar
    27    27    28   ar
    28     3     4   ar
    29     4     5   ar
    30     5     6   ar
    31     6     7   ar
    32     7    35    1
    33    35    36    1
    34    36    37    1
    35    37    38   ar
    36    38    39   ar
    37    39    40   ar
    38    40    41   ar
    39    41    42   ar
    40     7     8   ar
    41     8     9   ar
    42     9     1   ar
    43    28    23   ar
    44     9     4   ar
    45    34    29   ar
    46    42    37   ar
@<TRIPOS>MOLECULE
*****
 42 46 0 0 0
SMALL
GASTEIGER

@<TRIPOS>ATOM
      1 C           3.4317   -0.8328   21.1652 C.ar    1  UNL1        0.0383
      2 C           4.8411   -1.3445   21.2077 C.ar    1  UNL1        0.0433
      3 N           5.4767   -0.8473   22.4721 N.ar    1  UNL1       -0.3260
      4 C           4.4602   -0.0283   23.2110 C.ar    1  UNL1        0.0606
      5 C           4.5222    0.7104   24.5150 C.ar    1  UNL1        0.0203
      6 C           3.3203    1.4581   25.0113 C.ar    1  UNL1        0.0384
      7 C           2.0564    1.4670   24.2035 C.ar    1  UNL1        0.1392
      8 C           1.9944    0.7283   22.8996 C.ar    1  UNL1        0.0389
      9 C           3.1963   -0.0194   22.4033 C.ar    1  UNL1        0.0256
     10 S           2.4330   -1.0895   20.0758 S.3     1  UNL1       -0.1142
     11 C           3.1703    0.2429   18.5989 C.3     1  UNL1        0.0112
     12 C           1.8574    0.0582   19.3004 C.3     1  UNL1        0.0434
     13 C           0.5443   -0.1265   20.0018 C.3     1  UNL1        0.0112
     14 C           1.2816    1.2059   18.5250 C.3     1  UNL1        0.0112
     15 C           5.4993   -2.2027   20.1683 C.3     1  UNL1        0.0495
     16 C           4.8345   -3.4661   19.7082 C.3     1  UNL1        0.0376
     17 C           4.6704   -3.8993   21.1348 C.3     1  UNL1        0.0059
     18 C           4.9986   -3.0329   18.2815 C.3     1  UNL1        0.0059
     19 C           4.1697   -4.7296   19.2480 C.2     1  UNL1        0.0500
     20 O           2.6941   -4.7457   18.9793 O.co2   1  UNL1       -0.5492
     21 O           4.9805   -5.9770   19.0567 O.co2   1  UNL1       -0.5492
     22 C           6.8822   -1.1210   22.9191 C.3     1  UNL1        0.1324
     23 C           7.1808   -2.3281   23.7581 C.ar    1  UNL1        0.0004
     24 C           6.8393   -2.3295   25.2187 C.ar    1  UNL1       -0.0023
     25 C           7.1379   -3.5365   26.0576 C.ar    1  UNL1        0.0028
     26 C           7.7779   -4.7423   25.4359 C.ar    1  UNL1        0.0358
     27 C           8.1193   -4.7409   23.9752 C.ar    1  UNL1        0.0028
     28 C           7.8208   -3.5339   23.1363 C.ar    1  UNL1       -0.0023
     29 C           8.0764   -5.9494   26.2747 C.ar    1  UNL1        0.1623
     30 N           7.3907   -7.2518   25.9857 N.ar    1  UNL1       -0.2250
     31 C           7.6892   -8.4590   26.8246 C.ar    1  UNL1        0.1022
     32 C           8.6735   -8.3637   27.9525 C.ar    1  UNL1        0.0414
     33 C           9.3592   -7.0614   28.2414 C.ar    1  UNL1        0.1022
     34 N           9.0607   -5.8542   27.4026 N.ar    1  UNL1       -0.2250
     35 O           0.8544    2.2147   24.6998 O.3     1  UNL1       -0.4690
     36 C          -0.1513    1.5236   25.5721 C.3     1  UNL1        0.2508
     37 C           0.0171    1.5319   27.0626 C.ar    1  UNL1        0.1026
     38 C          -0.8335    0.6409   27.9185 C.ar    1  UNL1        0.0185
     39 C          -0.6651    0.6492   29.4089 C.ar    1  UNL1        0.0029
     40 C           0.3540    1.5485   30.0436 C.ar    1  UNL1        0.0207
     41 C           1.2046    2.4395   29.1877 C.ar    1  UNL1        0.0986
     42 N           1.0361    2.4312   27.6973 N.ar    1  UNL1       -0.2445
@<TRIPOS>UNITY_ATOM_ATTR
20 1
charge -1
@<TRIPOS>BOND
     1    11    12    1
     2    12    13    1
     3    12    14    1
     4    12    10    1
     5    10     1    1
     6     1     2   ar
     7     2    15    1
     8    15    16    1
     9    16    17    1
    10    16    18    1
    11    16    19    1
    12    19    20   ar
    13    19    21   ar
    14     2     3   ar
    15     3    22    1
    16    22    23    1
    17    23    24   ar
    18    24    25   ar
    19    25    26   ar
    20    26    29    1
    21    29    30   ar
    22    30    31   ar
    23    31    32   ar
    24    32    33   ar
    25    33    34   ar
    26    26    27   ar
    27    27    28   ar
    28     3     4   ar
    29     4     5   ar
    30     5     6   ar
    31     6     7   ar
    32     7    35    1
    33    35    36    1
    34    36    37    1
    35    37    38   ar
    36    38    39   ar
    37    39    40   ar
    38    40    41   ar
    39    41    42   ar
    40     7     8   ar
    41     8     9   ar
    42     9     1   ar
    43    28    23   ar
    44     9     4   ar
    45    34    29   ar
    46    42    37   ar
@<TRIPOS>MOLECULE
*****
 42 46 0 0 0
SMALL
GASTEIGER

@<TRIPOS>ATOM
      1 C          -2.7650    4.4369   23.2555 C.ar    1  UNL1        0.0383
      2 C          -2.0809    4.5120   21.9227 C.ar    1  UNL1        0.0433
      3 N          -0.8281    3.6905   21.9980 N.ar    1  UNL1       -0.3260
      4 C          -0.7379    3.1078   23.3772 C.ar    1  UNL1        0.0606
      5 C           0.2795    2.2167   24.0258 C.ar    1  UNL1        0.0203
      6 C           0.0998    1.7870   25.4516 C.ar    1  UNL1        0.0384
      7 C          -1.0973    2.2483   26.2288 C.ar    1  UNL1        0.1392
      8 C          -2.1147    3.1394   25.5802 C.ar    1  UNL1        0.0389
      9 C          -1.9351    3.5691   24.1544 C.ar    1  UNL1        0.0256
     10 S          -4.0530    5.1113   23.6246 S.3     1  UNL1       -0.1142
     11 C          -5.1082    3.2902   23.3599 C.3     1  UNL1        0.0112
     12 C          -5.3294    4.7143   22.9441 C.3     1  UNL1        0.0434
     13 C          -5.5507    6.1385   22.5282 C.3     1  UNL1        0.0112
     14 C          -6.6058    4.3173   22.2636 C.3     1  UNL1        0.0112
     15 C          -2.5646    5.2746   20.7250 C.3     1  UNL1        0.0495
     16 C          -2.5954    4.6150   19.3782 C.3     1  UNL1        0.0376
     17 C          -3.5154    3.5595   19.9161 C.3     1  UNL1        0.0059
     18 C          -1.6753    5.6705   18.8403 C.3     1  UNL1        0.0059
     19 C          -2.6262    3.9554   18.0313 C.2     1  UNL1        0.0500
     20 O          -3.9404    3.6389   17.3811 O.co2   1  UNL1       -0.5492
     21 O          -1.3429    3.6122   17.3347 O.co2   1  UNL1       -0.5492
     22 C           0.1610    3.4874   20.8887 C.3     1  UNL1        0.1324
     23 C           0.9194    2.1971   20.7869 C.ar    1  UNL1        0.0004
     24 C           0.2070    0.9377   20.3913 C.ar    1  UNL1       -0.0023
     25 C           0.9653   -0.3525   20.2895 C.ar    1  UNL1        0.0028
     26 C           2.4359   -0.3833   20.5833 C.ar    1  UNL1        0.0358
     27 C           3.1482    0.8761   20.9789 C.ar    1  UNL1        0.0028
     28 C           2.3900    2.1663   21.0807 C.ar    1  UNL1       -0.0023
     29 C           3.1942   -1.6734   20.4815 C.ar    1  UNL1        0.1623
     30 N           3.2135   -2.4319   19.1876 N.ar    1  UNL1       -0.2250
     31 C           3.9718   -3.7222   19.0856 C.ar    1  UNL1        0.1022
     32 C           4.7108   -4.2539   20.2778 C.ar    1  UNL1        0.0414
     33 C           4.6915   -3.4954   21.5717 C.ar    1  UNL1        0.1022
     34 N           3.9332   -2.2052   21.6736 N.ar    1  UNL1       -0.2250
     35 O          -1.2769    1.8185   27.6547 O.3     1  UNL1       -0.4690
     36 C          -0.5959    0.5797   28.1561 C.3     1  UNL1        0.2508
     37 C           0.4143    0.6740   29.2610 C.ar    1  UNL1        0.1026
     38 C           0.4400    1.8799   30.1527 C.ar    1  UNL1        0.0185
     39 C           1.4502    1.9742   31.2575 C.ar    1  UNL1        0.0029
     40 C           2.4346    0.8626   31.4706 C.ar    1  UNL1        0.0207
     41 C           2.4088   -0.3433   30.5789 C.ar    1  UNL1        0.0986
     42 N           1.3986   -0.4376   29.4741 N.ar    1  UNL1       -0.2445
@<TRIPOS>UNITY_ATOM_ATTR
20 1
charge -1
@<TRIPOS>BOND
     1    11    12    1
     2    12    13    1
     3    12    14    1
     4    12    10    1
     5    10     1    1
     6     1     2   ar
     7     2    15    1
     8    15    16    1
     9    16    17    1
    10    16    18    1
    11    16    19    1
    12    19    20   ar
    13    19    21   ar
    14     2     3   ar
    15     3    22    1
    16    22    23    1
    17    23    24   ar
    18    24    25   ar
    19    25    26   ar
    20    26    29    1
    21    29    30   ar
    22    30    31   ar
    23    31    32   ar
    24    32    33   ar
    25    33    34   ar
    26    26    27   ar
    27    27    28   ar
    28     3     4   ar
    29     4     5   ar
    30     5     6   ar
    31     6     7   ar
    32     7    35    1
    33    35    36    1
    34    36    37    1
    35    37    38   ar
    36    38    39   ar
    37    39    40   ar
    38    40    41   ar
    39    41    42   ar
    40     7     8   ar
    41     8     9   ar
    42     9     1   ar
    43    28    23   ar
    44     9     4   ar
    45    34    29   ar
    46    42    37   ar
@<TRIPOS>MOLECULE
*****
 42 46 0 0 0
SMALL
GASTEIGER

@<TRIPOS>ATOM
      1 C           5.9398   -2.3197   23.2958 C.ar    1  UNL1        0.0383
      2 C           5.2701   -2.6452   21.9937 C.ar    1  UNL1        0.0433
      3 N           3.9348   -1.9622   21.9758 N.ar    1  UNL1       -0.3260
      4 C           3.7792   -1.2145   23.2669 C.ar    1  UNL1        0.0606
      5 C           2.6693   -0.3611   23.8050 C.ar    1  UNL1        0.0203
      6 C           2.7986    0.2715   25.1589 C.ar    1  UNL1        0.0384
      7 C           4.0378    0.0505   25.9747 C.ar    1  UNL1        0.1392
      8 C           5.1478   -0.8029   25.4366 C.ar    1  UNL1        0.0389
      9 C           5.0184   -1.4354   24.0826 C.ar    1  UNL1        0.0256
     10 S           7.2934   -2.7949   23.7341 S.3     1  UNL1       -0.1142
     11 C           8.5441   -4.2208   22.7841 C.3     1  UNL1        0.0112
     12 C           7.5528   -4.2618   23.9092 C.3     1  UNL1        0.0434
     13 C           6.5615   -4.3029   25.0342 C.3     1  UNL1        0.0112
     14 C           7.8123   -5.7288   24.0843 C.3     1  UNL1        0.0112
     15 C           5.8363   -3.5032   20.9013 C.3     1  UNL1        0.0495
     16 C           5.8455   -3.0063   19.4860 C.3     1  UNL1        0.0376
     17 C           6.7447   -1.8754   19.8890 C.3     1  UNL1        0.0059
     18 C           4.9464   -4.1373   19.0831 C.3     1  UNL1        0.0059
     19 C           5.8548   -2.5094   18.0707 C.2     1  UNL1        0.0500
     20 O           4.5605   -2.2691   17.3517 O.co2   1  UNL1       -0.5492
     21 O           7.1584   -2.2528   17.3745 O.co2   1  UNL1       -0.5492
     22 C           2.9311   -2.0172   20.8624 C.3     1  UNL1        0.1324
     23 C           2.4603   -0.7492   20.2138 C.ar    1  UNL1        0.0004
     24 C           1.0089   -0.3741   20.2662 C.ar    1  UNL1       -0.0023
     25 C           0.5380    0.8938   19.6177 C.ar    1  UNL1        0.0028
     26 C           1.5186    1.7866   18.9166 C.ar    1  UNL1        0.0358
     27 C           2.9699    1.4115   18.8642 C.ar    1  UNL1        0.0028
     28 C           3.4408    0.1436   19.5127 C.ar    1  UNL1       -0.0023
     29 C           1.0477    3.0545   18.2680 C.ar    1  UNL1        0.1623
     30 N          -0.3509    3.1495   17.7344 N.ar    1  UNL1       -0.2250
     31 C          -0.8218    4.4174   17.0858 C.ar    1  UNL1        0.1022
     32 C           0.1060    5.5904   16.9708 C.ar    1  UNL1        0.0414
     33 C           1.5046    5.4955   17.5044 C.ar    1  UNL1        0.1022
     34 N           1.9755    4.2276   18.1530 N.ar    1  UNL1       -0.2250
     35 O           4.1671    0.6831   27.3287 O.3     1  UNL1       -0.4690
     36 C           3.1735    1.7156   27.7721 C.3     1  UNL1        0.2508
     37 C           1.7351    1.3372   27.9671 C.ar    1  UNL1        0.1026
     38 C           0.6491    2.1905   27.3819 C.ar    1  UNL1        0.0185
     39 C          -0.7892    1.8121   27.5769 C.ar    1  UNL1        0.0029
     40 C          -1.1415    0.5804   28.3571 C.ar    1  UNL1        0.0207
     41 C          -0.0556   -0.2729   28.9423 C.ar    1  UNL1        0.0986
     42 N           1.3827    0.1055   28.7473 N.ar    1  UNL1       -0.2445
@<TRIPOS>UNITY_ATOM_ATTR
20 1
charge -1
@<TRIPOS>BOND
     1    11    12    1
     2    12    13    1
     3    12    14    1
     4    12    10    1
     5    10     1    1
     6     1     2   ar
     7     2    15    1
     8    15    16    1
     9    16    17    1
    10    16    18    1
    11    16    19    1
    12    19    20   ar
    13    19    21   ar
    14     2     3   ar
    15     3    22    1
    16    22    23    1
    17    23    24   ar
    18    24    25   ar
    19    25    26   ar
    20    26    29    1
    21    29    30   ar
    22    30    31   ar
    23    31    32   ar
    24    32    33   ar
    25    33    34   ar
    26    26    27   ar
    27    27    28   ar
    28     3     4   ar
    29     4     5   ar
    30     5     6   ar
    31     6     7   ar
    32     7    35    1
    33    35    36    1
    34    36    37    1
    35    37    38   ar
    36    38    39   ar
    37    39    40   ar
    38    40    41   ar
    39    41    42   ar
    40     7     8   ar
    41     8     9   ar
    42     9     1   ar
    43    28    23   ar
    44     9     4   ar
    45    34    29   ar
    46    42    37   ar
@<TRIPOS>MOLECULE
*****
 42 46 0 0 0
SMALL
GASTEIGER

@<TRIPOS>ATOM
      1 C           5.5743   -3.3369   23.1400 C.ar    1  UNL1        0.0383
      2 C           4.8387   -3.1321   21.8489 C.ar    1  UNL1        0.0433
      3 N           3.8124   -2.0598   22.0652 N.ar    1  UNL1       -0.3260
      4 C           3.9136   -1.6019   23.4900 C.ar    1  UNL1        0.0606
      5 C           3.1550   -0.5682   24.2684 C.ar    1  UNL1        0.0203
      6 C           3.4853   -0.3237   25.7110 C.ar    1  UNL1        0.0384
      7 C           4.5743   -1.1130   26.3752 C.ar    1  UNL1        0.1392
      8 C           5.3329   -2.1467   25.5969 C.ar    1  UNL1        0.0389
      9 C           5.0026   -2.3911   24.1543 C.ar    1  UNL1        0.0256
     10 S           6.6864   -4.3155   23.3755 S.3     1  UNL1       -0.1142
     11 C           7.4511   -4.9463   25.2510 C.3     1  UNL1        0.0112
     12 C           7.8585   -3.9282   24.2275 C.3     1  UNL1        0.0434
     13 C           8.2660   -2.9100   23.2040 C.3     1  UNL1        0.0112
     14 C           9.0307   -3.5408   25.0795 C.3     1  UNL1        0.0112
     15 C           5.0860   -3.8700   20.5666 C.3     1  UNL1        0.0495
     16 C           5.3840   -3.1091   19.3088 C.3     1  UNL1        0.0376
     17 C           4.1305   -3.6480   18.6858 C.3     1  UNL1        0.0059
     18 C           6.6375   -2.5701   19.9318 C.3     1  UNL1        0.0059
     19 C           5.6819   -2.3481   18.0509 C.2     1  UNL1        0.0500
     20 O           4.5737   -1.6602   17.3102 O.co2   1  UNL1       -0.5492
     21 O           7.0880   -2.2750   17.5338 O.co2   1  UNL1       -0.5492
     22 C           2.8531   -1.5372   21.0373 C.3     1  UNL1        0.1324
     23 C           3.1977   -0.3110   20.2447 C.ar    1  UNL1        0.0004
     24 C           4.5122    0.3778   20.4623 C.ar    1  UNL1       -0.0023
     25 C           4.8568    1.6038   19.6698 C.ar    1  UNL1        0.0028
     26 C           3.8867    2.1410   18.6597 C.ar    1  UNL1        0.0358
     27 C           2.5721    1.4522   18.4421 C.ar    1  UNL1        0.0028
     28 C           2.2276    0.2262   19.2346 C.ar    1  UNL1       -0.0023
     29 C           4.2312    3.3671   17.8672 C.ar    1  UNL1        0.1623
     30 N           5.6380    3.5834   17.3938 N.ar    1  UNL1       -0.2250
     31 C           5.9827    4.8094   16.6013 C.ar    1  UNL1        0.1022
     32 C           4.9203    5.8192   16.2821 C.ar    1  UNL1        0.0414
     33 C           3.5135    5.6029   16.7554 C.ar    1  UNL1        0.1022
     34 N           3.1689    4.3769   17.5479 N.ar    1  UNL1       -0.2250
     35 O           4.9045   -0.8685   27.8179 O.3     1  UNL1       -0.4690
     36 C           6.2709   -1.1994   28.3410 C.3     1  UNL1        0.2508
     37 C           6.4459   -2.3136   29.3299 C.ar    1  UNL1        0.1026
     38 C           6.3830   -2.0275   30.8010 C.ar    1  UNL1        0.0185
     39 C           6.5580   -3.1417   31.7898 C.ar    1  UNL1        0.0029
     40 C           6.7959   -4.5420   31.3076 C.ar    1  UNL1        0.0207
     41 C           6.8587   -4.8281   29.8365 C.ar    1  UNL1        0.0986
     42 N           6.6837   -3.7139   28.8476 N.ar    1  UNL1       -0.2445
@<TRIPOS>UNITY_ATOM_ATTR
20 1
charge -1
@<TRIPOS>BOND
     1    11    12    1
     2    12    13    1
     3    12    14    1
     4    12    10    1
     5    10     1    1
     6     1     2   ar
     7     2    15    1
     8    15    16    1
     9    16    17    1
    10    16    18    1
    11    16    19    1
    12    19    20   ar
    13    19    21   ar
    14     2     3   ar
    15     3    22    1
    16    22    23    1
    17    23    24   ar
    18    24    25   ar
    19    25    26   ar
    20    26    29    1
    21    29    30   ar
    22    30    31   ar
    23    31    32   ar
    24    32    33   ar
    25    33    34   ar
    26    26    27   ar
    27    27    28   ar
    28     3     4   ar
    29     4     5   ar
    30     5     6   ar
    31     6     7   ar
    32     7    35    1
    33    35    36    1
    34    36    37    1
    35    37    38   ar
    36    38    39   ar
    37    39    40   ar
    38    40    41   ar
    39    41    42   ar
    40     7     8   ar
    41     8     9   ar
    42     9     1   ar
    43    28    23   ar
    44     9     4   ar
    45    34    29   ar
    46    42    37   ar
