@<TRIPOS>MOLECULE
*****
 43 46 0 0 0
SMALL
GASTEIGER

@<TRIPOS>ATOM
      1 C          -5.3440  -18.2814   22.6090 C.ar    1  UNL1        0.2144
      2 C          -4.7967  -17.0508   23.2694 C.ar    1  UNL1        0.1822
      3 O          -3.4822  -16.4821   22.8237 O.2     1  UNL1       -0.4500
      4 C          -2.7151  -17.1438   21.7175 C.ar    1  UNL1        0.1545
      5 C          -1.4007  -16.5750   21.2717 C.ar    1  UNL1        0.0744
      6 C          -0.6336  -17.2368   20.1656 C.ar    1  UNL1        0.1397
      7 O           0.6809  -16.6680   19.7198 O.3     1  UNL1       -0.5053
      8 C          -1.1810  -18.4673   19.5051 C.ar    1  UNL1        0.0735
      9 C          -2.4954  -19.0361   19.9508 C.ar    1  UNL1        0.1428
     10 O          -3.0428  -20.2666   19.2904 O.3     1  UNL1       -0.5052
     11 C          -3.2625  -18.3743   21.0570 C.ar    1  UNL1        0.1104
     12 C          -4.5770  -18.9431   21.5028 C.ar    1  UNL1        0.2382
     13 O          -5.1244  -20.1736   20.8424 O.2     1  UNL1       -0.2830
     14 H           1.0228  -15.8993   20.1323 H       1  UNL1        0.2922
     15 H          -2.5636  -20.6800   18.5994 H       1  UNL1        0.2922
     16 C          -5.5638  -16.3891   24.3756 C.ar    1  UNL1        0.0379
     17 C          -5.1974  -16.6548   25.8057 C.ar    1  UNL1        0.0062
     18 C          -5.9645  -15.9930   26.9118 C.ar    1  UNL1        0.0367
     19 C          -7.0980  -15.0656   26.5879 C.ar    1  UNL1        0.1337
     20 O          -7.8652  -14.4038   27.6941 O.3     1  UNL1       -0.5055
     21 C          -7.4645  -14.7999   25.1579 C.ar    1  UNL1        0.0367
     22 C          -6.6974  -15.4617   24.0517 C.ar    1  UNL1        0.0062
     23 H          -7.6363  -14.5698   28.5874 H       1  UNL1        0.2922
     24 O          -6.6585  -18.8501   23.0548 O.3     1  UNL1       -0.4433
     25 C         -10.3060  -17.6098   22.1022 C.3     1  UNL1        0.2569
     26 C         -10.3861  -18.0401   20.6675 C.3     1  UNL1        0.2392
     27 C          -9.2237  -18.7404   20.0285 C.3     1  UNL1        0.1627
     28 C          -9.3038  -19.1707   18.5938 C.3     1  UNL1        0.0362
     29 O          -7.9811  -19.0104   20.8242 O.3     1  UNL1       -0.3164
     30 C          -7.9011  -18.5801   22.2590 C.3     1  UNL1        0.3334
     31 C          -9.0635  -17.8798   22.8980 C.3     1  UNL1        0.2815
     32 O         -11.4685  -16.9095   22.7411 O.3     1  UNL1       -0.4443
     33 C         -12.9333  -18.1736   24.4751 C.3     1  UNL1        0.1212
     34 C         -12.7133  -17.6760   23.0772 C.2     1  UNL1        0.3177
     35 O         -13.7381  -17.9448   22.0154 O.2     1  UNL1       -0.2501
     36 O         -11.6287  -17.7701   19.8718 O.3     1  UNL1       -0.4458
     37 C         -11.9958  -16.3616   19.5093 C.2     1  UNL1        0.3176
     38 C         -10.9591  -15.4391   18.9399 C.3     1  UNL1        0.1212
     39 O         -13.3997  -15.8756   19.7162 O.2     1  UNL1       -0.2501
     40 O          -8.9834  -17.4496   24.3326 O.3     1  UNL1       -0.4416
     41 C          -9.4149  -18.3864   25.4219 C.2     1  UNL1        0.3178
     42 C          -9.9673  -19.7369   25.0743 C.3     1  UNL1        0.1212
     43 O          -9.2940  -17.9725   26.8586 O.2     1  UNL1       -0.2501
@<TRIPOS>BOND
     1    33    34    1
     2    34    35    2
     3    34    32    1
     4    25    32    1
     5    25    26    1
     6    26    36    1
     7    36    37    1
     8    37    38    1
     9    37    39    2
    10    26    27    1
    11    27    28    1
    12    27    29    1
    13    29    30    1
    14    30    24    1
    15    24     1    1
    16     1     2   ar
    17     2    16    1
    18    16    17   ar
    19    17    18   ar
    20    18    19   ar
    21    19    20    1
    22    19    21   ar
    23    21    22   ar
    24     2     3   ar
    25     3     4   ar
    26     4     5   ar
    27     5     6   ar
    28     6     7    1
    29     6     8   ar
    30     8     9   ar
    31     9    10    1
    32     9    11   ar
    33    11    12   ar
    34    12    13    2
    35    30    31    1
    36    31    40    1
    37    40    41    1
    38    41    42    1
    39    41    43    2
    40    31    25    1
    41    12     1   ar
    42    22    16   ar
    43    11     4   ar
    44    20    23    1
    45     7    14    1
    46    10    15    1
@<TRIPOS>MOLECULE
*****
 43 46 0 0 0
SMALL
GASTEIGER

@<TRIPOS>ATOM
      1 C           6.7761   -2.8721   23.8481 C.ar    1  UNL1        0.2144
      2 C           6.2878   -2.6793   25.2532 C.ar    1  UNL1        0.1822
      3 O           6.3771   -3.8059   26.2395 O.2     1  UNL1       -0.4500
      4 C           6.9548   -5.1254   25.8207 C.ar    1  UNL1        0.1545
      5 C           7.0441   -6.2519   26.8070 C.ar    1  UNL1        0.0744
      6 C           7.6218   -7.5713   26.3882 C.ar    1  UNL1        0.1397
      7 O           7.7111   -8.6980   27.3745 O.3     1  UNL1       -0.5053
      8 C           8.1101   -7.7641   24.9831 C.ar    1  UNL1        0.0735
      9 C           8.0208   -6.6376   23.9968 C.ar    1  UNL1        0.1428
     10 O           8.5092   -6.8304   22.5917 O.3     1  UNL1       -0.5052
     11 C           7.4432   -5.3182   24.4156 C.ar    1  UNL1        0.1104
     12 C           7.3538   -4.1915   23.4293 C.ar    1  UNL1        0.2382
     13 O           7.8422   -4.3843   22.0242 O.2     1  UNL1       -0.2830
     14 H           7.4060   -8.5776   28.2522 H       1  UNL1        0.2922
     15 H           8.8701   -7.6546   22.3301 H       1  UNL1        0.2922
     16 C           5.7101   -1.3598   25.6720 C.ar    1  UNL1        0.0379
     17 C           4.2719   -1.2690   26.0882 C.ar    1  UNL1        0.0062
     18 C           3.6942    0.0504   26.5070 C.ar    1  UNL1        0.0367
     19 C           4.5548    1.2790   26.5096 C.ar    1  UNL1        0.1337
     20 O           3.9771    2.5985   26.9284 O.3     1  UNL1       -0.5055
     21 C           5.9930    1.1882   26.0934 C.ar    1  UNL1        0.0367
     22 C           6.5707   -0.1313   25.6746 C.ar    1  UNL1        0.0062
     23 H           3.0787    2.6552   27.1883 H       1  UNL1        0.2922
     24 O           6.6868   -1.7455   22.8618 O.3     1  UNL1       -0.4433
     25 C           3.8167   -1.4771   20.1342 C.3     1  UNL1        0.2569
     26 C           2.7499   -0.7672   20.9140 C.3     1  UNL1        0.2392
     27 C           2.9955   -0.3834   22.3432 C.3     1  UNL1        0.1627
     28 C           1.9287    0.3264   23.1230 C.3     1  UNL1        0.0362
     29 O           4.3078   -0.7095   22.9924 O.3     1  UNL1       -0.3164
     30 C           5.3745   -1.4194   22.2125 C.3     1  UNL1        0.3334
     31 C           5.1290   -1.8031   20.7834 C.3     1  UNL1        0.2815
     32 O           3.5711   -1.8608   18.7051 O.3     1  UNL1       -0.4443
     33 C           4.4411    0.4619   17.9316 C.3     1  UNL1        0.1212
     34 C           3.8957   -0.8963   17.6031 C.2     1  UNL1        0.3177
     35 O           3.6749   -1.2900   16.1726 O.2     1  UNL1       -0.2501
     36 O           1.4376   -0.4412   20.2647 O.3     1  UNL1       -0.4458
     37 C           1.2998    0.8003   19.4340 C.2     1  UNL1        0.3176
     38 C           1.6589    2.1355   20.0156 C.3     1  UNL1        0.1212
     39 O           0.8029    0.7064   18.0218 O.2     1  UNL1       -0.2501
     40 O           6.1957   -2.5130   20.0036 O.3     1  UNL1       -0.4416
     41 C           7.0556   -1.7484   19.0413 C.2     1  UNL1        0.3178
     42 C           7.8697   -0.5848   19.5242 C.3     1  UNL1        0.1212
     43 O           7.1015   -2.1475   17.5961 O.2     1  UNL1       -0.2501
@<TRIPOS>BOND
     1    33    34    1
     2    34    35    2
     3    34    32    1
     4    25    32    1
     5    25    26    1
     6    26    36    1
     7    36    37    1
     8    37    38    1
     9    37    39    2
    10    26    27    1
    11    27    28    1
    12    27    29    1
    13    29    30    1
    14    30    24    1
    15    24     1    1
    16     1     2   ar
    17     2    16    1
    18    16    17   ar
    19    17    18   ar
    20    18    19   ar
    21    19    20    1
    22    19    21   ar
    23    21    22   ar
    24     2     3   ar
    25     3     4   ar
    26     4     5   ar
    27     5     6   ar
    28     6     7    1
    29     6     8   ar
    30     8     9   ar
    31     9    10    1
    32     9    11   ar
    33    11    12   ar
    34    12    13    2
    35    30    31    1
    36    31    40    1
    37    40    41    1
    38    41    42    1
    39    41    43    2
    40    31    25    1
    41    12     1   ar
    42    22    16   ar
    43    11     4   ar
    44    20    23    1
    45     7    14    1
    46    10    15    1
@<TRIPOS>MOLECULE
*****
 43 46 0 0 0
SMALL
GASTEIGER

@<TRIPOS>ATOM
      1 C           0.1710    2.6272   22.5886 C.ar    1  UNL1        0.2144
      2 C           0.8481    1.6975   23.5515 C.ar    1  UNL1        0.1822
      3 O           1.6685    0.5520   23.0369 O.2     1  UNL1       -0.4500
      4 C           1.8117    0.3362   21.5594 C.ar    1  UNL1        0.1545
      5 C           2.6321   -0.8093   21.0449 C.ar    1  UNL1        0.0744
      6 C           2.7753   -1.0251   19.5674 C.ar    1  UNL1        0.1397
      7 O           3.5957   -2.1707   19.0528 O.3     1  UNL1       -0.5053
      8 C           2.0982   -0.0955   18.6045 C.ar    1  UNL1        0.0735
      9 C           1.2778    1.0500   19.1191 C.ar    1  UNL1        0.1428
     10 O           0.6006    1.9797   18.1562 O.3     1  UNL1       -0.5052
     11 C           1.1346    1.2658   20.5965 C.ar    1  UNL1        0.1104
     12 C           0.3142    2.4114   21.1112 C.ar    1  UNL1        0.2382
     13 O          -0.3630    3.3411   20.1483 O.2     1  UNL1       -0.2830
     14 H           4.0187   -2.7514   19.6543 H       1  UNL1        0.2922
     15 H           0.6901    1.8449   17.2333 H       1  UNL1        0.2922
     16 C           0.7049    1.9134   25.0290 C.ar    1  UNL1        0.0379
     17 C           1.6031    2.8849   25.7356 C.ar    1  UNL1        0.0062
     18 C           1.4598    3.1007   27.2130 C.ar    1  UNL1        0.0367
     19 C           0.4183    2.3450   27.9839 C.ar    1  UNL1        0.1337
     20 O           0.2751    2.5609   29.4614 O.3     1  UNL1       -0.5055
     21 C          -0.4799    1.3735   27.2773 C.ar    1  UNL1        0.0367
     22 C          -0.3366    1.1577   25.7998 C.ar    1  UNL1        0.0062
     23 H           0.8362    3.1678   29.9027 H       1  UNL1        0.2922
     24 O          -0.6494    3.7727   23.1032 O.3     1  UNL1       -0.4433
     25 C          -4.4441    3.7202   24.2642 C.3     1  UNL1        0.2569
     26 C          -5.1422    3.5725   22.9448 C.3     1  UNL1        0.2392
     27 C          -4.3427    3.4915   21.6781 C.3     1  UNL1        0.1627
     28 C          -5.0408    3.3438   20.3588 C.3     1  UNL1        0.0362
     29 O          -2.8451    3.5583   21.7309 O.3     1  UNL1       -0.3164
     30 C          -2.1470    3.7060   23.0504 C.3     1  UNL1        0.3334
     31 C          -2.9465    3.7870   24.3170 C.3     1  UNL1        0.2815
     32 O          -5.2436    3.8012   25.5307 O.3     1  UNL1       -0.4443
     33 C          -5.5939    6.3755   25.5594 C.3     1  UNL1        0.1212
     34 C          -5.3194    5.0936   26.2885 C.2     1  UNL1        0.3177
     35 O          -5.1206    5.1040   27.7752 O.2     1  UNL1       -0.2501
     36 O          -6.6398    3.5058   22.8920 O.3     1  UNL1       -0.4458
     37 C          -7.4483    4.7690   22.9203 C.2     1  UNL1        0.3176
     38 C          -7.0723    5.9201   22.0350 C.3     1  UNL1        0.1212
     39 O          -8.6327    4.8811   23.8339 O.2     1  UNL1       -0.2501
     40 O          -2.2484    3.9347   25.6363 O.3     1  UNL1       -0.4416
     41 C          -1.8126    5.2908   26.1066 C.2     1  UNL1        0.3178
     42 C          -1.4255    5.4987   27.5408 C.3     1  UNL1        0.1212
     43 O          -1.7641    6.4391   25.1427 O.2     1  UNL1       -0.2501
@<TRIPOS>BOND
     1    33    34    1
     2    34    35    2
     3    34    32    1
     4    25    32    1
     5    25    26    1
     6    26    36    1
     7    36    37    1
     8    37    38    1
     9    37    39    2
    10    26    27    1
    11    27    28    1
    12    27    29    1
    13    29    30    1
    14    30    24    1
    15    24     1    1
    16     1     2   ar
    17     2    16    1
    18    16    17   ar
    19    17    18   ar
    20    18    19   ar
    21    19    20    1
    22    19    21   ar
    23    21    22   ar
    24     2     3   ar
    25     3     4   ar
    26     4     5   ar
    27     5     6   ar
    28     6     7    1
    29     6     8   ar
    30     8     9   ar
    31     9    10    1
    32     9    11   ar
    33    11    12   ar
    34    12    13    2
    35    30    31    1
    36    31    40    1
    37    40    41    1
    38    41    42    1
    39    41    43    2
    40    31    25    1
    41    12     1   ar
    42    22    16   ar
    43    11     4   ar
    44    20    23    1
    45     7    14    1
    46    10    15    1
@<TRIPOS>MOLECULE
*****
 43 46 0 0 0
SMALL
GASTEIGER

@<TRIPOS>ATOM
      1 C           6.6514   -2.7662   24.2383 C.ar    1  UNL1        0.2144
      2 C           6.1223   -2.7291   25.6414 C.ar    1  UNL1        0.1822
      3 O           6.2188   -3.9470   26.5117 O.2     1  UNL1       -0.4500
      4 C           6.8444   -5.2020   25.9789 C.ar    1  UNL1        0.1545
      5 C           6.9408   -6.4198   26.8492 C.ar    1  UNL1        0.0744
      6 C           7.5664   -7.6747   26.3164 C.ar    1  UNL1        0.1397
      7 O           7.6629   -8.8926   27.1868 O.3     1  UNL1       -0.5053
      8 C           8.0955   -7.7117   24.9133 C.ar    1  UNL1        0.0735
      9 C           7.9990   -6.4939   24.0430 C.ar    1  UNL1        0.1428
     10 O           8.5280   -6.5309   22.6399 O.3     1  UNL1       -0.5052
     11 C           7.3734   -5.2390   24.5758 C.ar    1  UNL1        0.1104
     12 C           7.2769   -4.0211   23.7055 C.ar    1  UNL1        0.2382
     13 O           7.8060   -4.0581   22.3024 O.2     1  UNL1       -0.2830
     14 H           7.3324   -8.8695   28.0632 H       1  UNL1        0.2922
     15 H           8.9188   -7.3148   22.3071 H       1  UNL1        0.2922
     16 C           5.4968   -1.4742   26.1742 C.ar    1  UNL1        0.0379
     17 C           4.0088   -1.2945   26.1154 C.ar    1  UNL1        0.0062
     18 C           3.3833   -0.0395   26.6481 C.ar    1  UNL1        0.0367
     19 C           4.2458    1.0357   27.2397 C.ar    1  UNL1        0.1337
     20 O           3.6202    2.2907   27.7725 O.3     1  UNL1       -0.5055
     21 C           5.7338    0.8560   27.2985 C.ar    1  UNL1        0.0367
     22 C           6.3593   -0.3989   26.7657 C.ar    1  UNL1        0.0062
     23 H           2.6907    2.4029   27.7358 H       1  UNL1        0.2922
     24 O           6.5549   -1.5482   23.3679 O.3     1  UNL1       -0.4433
     25 C           3.3501    0.0488   21.6565 C.3     1  UNL1        0.2569
     26 C           3.0153   -1.0049   20.6429 C.3     1  UNL1        0.2392
     27 C           3.8603   -2.2398   20.5376 C.3     1  UNL1        0.1627
     28 C           3.5254   -3.2935   19.5239 C.3     1  UNL1        0.0362
     29 O           5.0402   -2.4209   21.4459 O.3     1  UNL1       -0.3164
     30 C           5.3750   -1.3671   22.4596 C.3     1  UNL1        0.3334
     31 C           4.5300   -0.1323   22.5649 C.3     1  UNL1        0.2815
     32 O           2.5051    1.2836   21.7618 O.3     1  UNL1       -0.4443
     33 C           1.0235    1.0969   23.8879 C.3     1  UNL1        0.1212
     34 C           1.1484    1.2120   22.3975 C.2     1  UNL1        0.3177
     35 O          -0.0835    1.2555   21.5428 O.2     1  UNL1       -0.2501
     36 O           1.8354   -0.8238   19.7346 O.3     1  UNL1       -0.4458
     37 C           1.9162    0.1327   18.5818 C.2     1  UNL1        0.3176
     38 C           3.2077    0.3038   17.8384 C.3     1  UNL1        0.1212
     39 O           0.7055    0.9179   18.1725 O.2     1  UNL1       -0.2501
     40 O           4.8649    0.9214   23.5785 O.3     1  UNL1       -0.4416
     41 C           5.8385    2.0098   23.2354 C.2     1  UNL1        0.3178
     42 C           6.9143    2.3882   24.2097 C.3     1  UNL1        0.1212
     43 O           5.7361    2.7196   21.9180 O.2     1  UNL1       -0.2501
@<TRIPOS>BOND
     1    33    34    1
     2    34    35    2
     3    34    32    1
     4    25    32    1
     5    25    26    1
     6    26    36    1
     7    36    37    1
     8    37    38    1
     9    37    39    2
    10    26    27    1
    11    27    28    1
    12    27    29    1
    13    29    30    1
    14    30    24    1
    15    24     1    1
    16     1     2   ar
    17     2    16    1
    18    16    17   ar
    19    17    18   ar
    20    18    19   ar
    21    19    20    1
    22    19    21   ar
    23    21    22   ar
    24     2     3   ar
    25     3     4   ar
    26     4     5   ar
    27     5     6   ar
    28     6     7    1
    29     6     8   ar
    30     8     9   ar
    31     9    10    1
    32     9    11   ar
    33    11    12   ar
    34    12    13    2
    35    30    31    1
    36    31    40    1
    37    40    41    1
    38    41    42    1
    39    41    43    2
    40    31    25    1
    41    12     1   ar
    42    22    16   ar
    43    11     4   ar
    44    20    23    1
    45     7    14    1
    46    10    15    1
@<TRIPOS>MOLECULE
*****
 43 46 0 0 0
SMALL
GASTEIGER

@<TRIPOS>ATOM
      1 C           2.6903    1.4554   24.4147 C.ar    1  UNL1        0.2144
      2 C           1.2596    1.6575   24.0120 C.ar    1  UNL1        0.1822
      3 O           0.1635    1.4708   25.0188 O.2     1  UNL1       -0.4500
      4 C           0.4982    1.0818   26.4284 C.ar    1  UNL1        0.1545
      5 C          -0.5979    0.8951   27.4352 C.ar    1  UNL1        0.0744
      6 C          -0.2632    0.5062   28.8447 C.ar    1  UNL1        0.1397
      7 O          -1.3593    0.3194   29.8516 O.3     1  UNL1       -0.5053
      8 C           1.1676    0.3040   29.2474 C.ar    1  UNL1        0.0735
      9 C           2.2636    0.4908   28.2406 C.ar    1  UNL1        0.1428
     10 O           3.6943    0.2886   28.6432 O.3     1  UNL1       -0.5052
     11 C           1.9289    0.8797   26.8311 C.ar    1  UNL1        0.1104
     12 C           3.0250    1.0664   25.8242 C.ar    1  UNL1        0.2382
     13 O           4.4557    0.8643   26.2268 O.2     1  UNL1       -0.2830
     14 H          -2.2530    0.4457   29.6001 H       1  UNL1        0.2922
     15 H           3.9034    0.0456   29.5237 H       1  UNL1        0.2922
     16 C           0.9249    2.0465   22.6024 C.ar    1  UNL1        0.0379
     17 C           1.1161    3.4637   22.1500 C.ar    1  UNL1        0.0062
     18 C           0.7814    3.8526   20.7405 C.ar    1  UNL1        0.0367
     19 C           0.2556    2.8242   19.7834 C.ar    1  UNL1        0.1337
     20 O          -0.0790    3.2131   18.3739 O.3     1  UNL1       -0.5055
     21 C           0.0645    1.4069   20.2359 C.ar    1  UNL1        0.0367
     22 C           0.3992    1.0180   21.6454 C.ar    1  UNL1        0.0062
     23 H           0.0404    4.0985   18.0912 H       1  UNL1        0.2922
     24 O           3.7864    1.6421   23.4078 O.3     1  UNL1       -0.4433
     25 C           4.7934   -0.3860   20.1485 C.3     1  UNL1        0.2569
     26 C           4.9726   -1.7630   20.7156 C.3     1  UNL1        0.2392
     27 C           4.7565   -2.0051   22.1801 C.3     1  UNL1        0.1627
     28 C           4.9357   -3.3821   22.7472 C.3     1  UNL1        0.0362
     29 O           4.3611   -0.8700   23.0775 O.3     1  UNL1       -0.3164
     30 C           4.1818    0.5071   22.5104 C.3     1  UNL1        0.3334
     31 C           4.3979    0.7490   21.0459 C.3     1  UNL1        0.2815
     32 O           5.0095   -0.1441   18.6841 O.3     1  UNL1       -0.4443
     33 C           2.5108    0.2007   18.0614 C.3     1  UNL1        0.1212
     34 C           3.8748   -0.3212   17.7191 C.2     1  UNL1        0.3177
     35 O           4.1041   -1.0203   16.4120 O.2     1  UNL1       -0.2501
     36 O           5.3680   -2.8981   19.8182 O.3     1  UNL1       -0.4458
     37 C           4.3176   -3.8053   19.2492 C.2     1  UNL1        0.3176
     38 C           4.6979   -5.1606   18.7309 C.3     1  UNL1        0.1212
     39 O           2.8870   -3.3573   19.1986 O.2     1  UNL1       -0.2501
     40 O           4.2187    2.1261   20.4788 O.3     1  UNL1       -0.4416
     41 C           5.2930    3.1573   20.6595 C.2     1  UNL1        0.3178
     42 C           4.9403    4.5293   21.1526 C.3     1  UNL1        0.1212
     43 O           6.7199    2.8165   20.3469 O.2     1  UNL1       -0.2501
@<TRIPOS>BOND
     1    33    34    1
     2    34    35    2
     3    34    32    1
     4    25    32    1
     5    25    26    1
     6    26    36    1
     7    36    37    1
     8    37    38    1
     9    37    39    2
    10    26    27    1
    11    27    28    1
    12    27    29    1
    13    29    30    1
    14    30    24    1
    15    24     1    1
    16     1     2   ar
    17     2    16    1
    18    16    17   ar
    19    17    18   ar
    20    18    19   ar
    21    19    20    1
    22    19    21   ar
    23    21    22   ar
    24     2     3   ar
    25     3     4   ar
    26     4     5   ar
    27     5     6   ar
    28     6     7    1
    29     6     8   ar
    30     8     9   ar
    31     9    10    1
    32     9    11   ar
    33    11    12   ar
    34    12    13    2
    35    30    31    1
    36    31    40    1
    37    40    41    1
    38    41    42    1
    39    41    43    2
    40    31    25    1
    41    12     1   ar
    42    22    16   ar
    43    11     4   ar
    44    20    23    1
    45     7    14    1
    46    10    15    1
@<TRIPOS>MOLECULE
*****
 43 46 0 0 0
SMALL
GASTEIGER

@<TRIPOS>ATOM
      1 C           7.4929   -2.9199   24.2368 C.ar    1  UNL1        0.2144
      2 C           7.3860   -3.9488   23.1505 C.ar    1  UNL1        0.1822
      3 O           7.4337   -5.4084   23.4927 O.2     1  UNL1       -0.4500
      4 C           7.5883   -5.8392   24.9212 C.ar    1  UNL1        0.1545
      5 C           7.6360   -7.2989   25.2634 C.ar    1  UNL1        0.0744
      6 C           7.7906   -7.7296   26.6919 C.ar    1  UNL1        0.1397
      7 O           7.8384   -9.1893   27.0341 O.3     1  UNL1       -0.5053
      8 C           7.8975   -6.7007   27.7781 C.ar    1  UNL1        0.0735
      9 C           7.8498   -5.2411   27.4359 C.ar    1  UNL1        0.1428
     10 O           7.9567   -4.2122   28.5222 O.3     1  UNL1       -0.5052
     11 C           7.6952   -4.8103   26.0075 C.ar    1  UNL1        0.1104
     12 C           7.6475   -3.3506   25.6653 C.ar    1  UNL1        0.2382
     13 O           7.7544   -2.3217   26.7515 O.2     1  UNL1       -0.2830
     14 H           7.7716   -9.8320   26.3556 H       1  UNL1        0.2922
     15 H           8.0533   -4.4813   29.4145 H       1  UNL1        0.2922
     16 C           7.2314   -3.5179   21.7220 C.ar    1  UNL1        0.0379
     17 C           5.9011   -3.6438   21.0405 C.ar    1  UNL1        0.0062
     18 C           5.7465   -3.2130   19.6121 C.ar    1  UNL1        0.0367
     19 C           6.9222   -2.6563   18.8652 C.ar    1  UNL1        0.1337
     20 O           6.7676   -2.2255   17.4367 O.3     1  UNL1       -0.5055
     21 C           8.2525   -2.5304   19.5467 C.ar    1  UNL1        0.0367
     22 C           8.4070   -2.9612   20.9751 C.ar    1  UNL1        0.0062
     23 H           5.9366   -2.3041   17.0109 H       1  UNL1        0.2922
     24 O           7.4452   -1.4602   23.8946 O.3     1  UNL1       -0.4433
     25 C           3.6846   -0.3223   23.3345 C.3     1  UNL1        0.2569
     26 C           3.7716    0.2790   21.9631 C.3     1  UNL1        0.2392
     27 C           5.0832    0.3006   21.2354 C.3     1  UNL1        0.1627
     28 C           5.1702    0.9019   19.8640 C.3     1  UNL1        0.0362
     29 O           6.3077   -0.2791   21.8793 O.3     1  UNL1       -0.3164
     30 C           6.2207   -0.8804   23.2507 C.3     1  UNL1        0.3334
     31 C           4.9091   -0.9020   23.9783 C.3     1  UNL1        0.2815
     32 O           2.3731   -0.3439   24.0621 O.3     1  UNL1       -0.4443
     33 C           0.3630    1.1026   24.8478 C.3     1  UNL1        0.1212
     34 C           1.8423    0.9113   24.6888 C.2     1  UNL1        0.3177
     35 O           2.7907    1.9751   25.1565 O.2     1  UNL1       -0.2501
     36 O           2.5471    0.8587   21.3193 O.3     1  UNL1       -0.4458
     37 C           1.5253   -0.0477   20.6992 C.2     1  UNL1        0.3176
     38 C           1.9653   -1.2466   19.9125 C.3     1  UNL1        0.1212
     39 O           0.0636    0.2449   20.8658 O.2     1  UNL1       -0.2501
     40 O           4.8221   -1.5034   25.3497 O.3     1  UNL1       -0.4416
     41 C           4.7102   -0.6144   26.5528 C.2     1  UNL1        0.3178
     42 C           3.6137   -0.8384   27.5515 C.3     1  UNL1        0.1212
     43 O           5.6949    0.4986   26.7571 O.2     1  UNL1       -0.2501
@<TRIPOS>BOND
     1    33    34    1
     2    34    35    2
     3    34    32    1
     4    25    32    1
     5    25    26    1
     6    26    36    1
     7    36    37    1
     8    37    38    1
     9    37    39    2
    10    26    27    1
    11    27    28    1
    12    27    29    1
    13    29    30    1
    14    30    24    1
    15    24     1    1
    16     1     2   ar
    17     2    16    1
    18    16    17   ar
    19    17    18   ar
    20    18    19   ar
    21    19    20    1
    22    19    21   ar
    23    21    22   ar
    24     2     3   ar
    25     3     4   ar
    26     4     5   ar
    27     5     6   ar
    28     6     7    1
    29     6     8   ar
    30     8     9   ar
    31     9    10    1
    32     9    11   ar
    33    11    12   ar
    34    12    13    2
    35    30    31    1
    36    31    40    1
    37    40    41    1
    38    41    42    1
    39    41    43    2
    40    31    25    1
    41    12     1   ar
    42    22    16   ar
    43    11     4   ar
    44    20    23    1
    45     7    14    1
    46    10    15    1
@<TRIPOS>MOLECULE
*****
 43 46 0 0 0
SMALL
GASTEIGER

@<TRIPOS>ATOM
      1 C           4.9660    1.5808   33.6099 C.ar    1  UNL1        0.2144
      2 C           5.1192    0.2726   34.3275 C.ar    1  UNL1        0.1822
      3 O           4.5185    0.0894   35.6896 O.2     1  UNL1       -0.4500
      4 C           3.7644    1.2146   36.3343 C.ar    1  UNL1        0.1545
      5 C           3.1637    1.0315   37.6964 C.ar    1  UNL1        0.0744
      6 C           2.4097    2.1567   38.3410 C.ar    1  UNL1        0.1397
      7 O           1.8089    1.9736   39.7032 O.3     1  UNL1       -0.5053
      8 C           2.2564    3.4649   37.6234 C.ar    1  UNL1        0.0735
      9 C           2.8572    3.6480   36.2612 C.ar    1  UNL1        0.1428
     10 O           2.7040    4.9563   35.5436 O.3     1  UNL1       -0.5052
     11 C           3.6112    2.5229   35.6167 C.ar    1  UNL1        0.1104
     12 C           4.2120    2.7060   34.2544 C.ar    1  UNL1        0.2382
     13 O           4.0588    4.0143   33.5368 O.2     1  UNL1       -0.2830
     14 H           1.9046    1.1563   40.1515 H       1  UNL1        0.2922
     15 H           2.2330    5.6592   35.9463 H       1  UNL1        0.2922
     16 C           5.8733   -0.8526   33.6829 C.ar    1  UNL1        0.0379
     17 C           7.3613   -0.7609   33.5183 C.ar    1  UNL1        0.0062
     18 C           8.1153   -1.8861   32.8737 C.ar    1  UNL1        0.0367
     19 C           7.3812   -3.1029   32.3937 C.ar    1  UNL1        0.1337
     20 O           8.1352   -4.2281   31.7490 O.3     1  UNL1       -0.5055
     21 C           5.8931   -3.1946   32.5582 C.ar    1  UNL1        0.0367
     22 C           5.1391   -2.0694   33.2028 C.ar    1  UNL1        0.0062
     23 H           9.0648   -4.1708   31.6462 H       1  UNL1        0.2922
     24 O           5.5668    1.7639   32.2476 O.3     1  UNL1       -0.4433
     25 C           3.2056    0.7826   29.2126 C.3     1  UNL1        0.2569
     26 C           3.8760   -0.4673   28.7245 C.3     1  UNL1        0.2392
     27 C           5.1101   -0.9735   29.4107 C.3     1  UNL1        0.1627
     28 C           5.7805   -2.2234   28.9226 C.3     1  UNL1        0.0362
     29 O           5.6737   -0.2298   30.5851 O.3     1  UNL1       -0.3164
     30 C           5.0032    1.0202   31.0733 C.3     1  UNL1        0.3334
     31 C           3.7692    1.5263   30.3870 C.3     1  UNL1        0.2815
     32 O           1.9716    1.2887   28.5263 O.3     1  UNL1       -0.4443
     33 C          -0.4433    0.7808   27.7137 C.3     1  UNL1        0.1212
     34 C           0.6682    0.5663   28.6979 C.2     1  UNL1        0.3177
     35 O           0.4764   -0.3705   29.8536 O.2     1  UNL1       -0.2501
     36 O           3.3124   -1.2110   27.5501 O.3     1  UNL1       -0.4458
     37 C           3.6467   -0.7737   26.1547 C.2     1  UNL1        0.3176
     38 C           4.7577   -1.4460   25.4039 C.3     1  UNL1        0.1212
     39 O           2.8700    0.3360   25.5102 O.2     1  UNL1       -0.2501
     40 O           3.0988    2.7762   30.8751 O.3     1  UNL1       -0.4416
     41 C           1.7102    2.7113   31.4388 C.2     1  UNL1        0.3178
     42 C           0.6813    3.7175   31.0157 C.3     1  UNL1        0.1212
     43 O           1.3506    1.6404   32.4256 O.2     1  UNL1       -0.2501
@<TRIPOS>BOND
     1    33    34    1
     2    34    35    2
     3    34    32    1
     4    25    32    1
     5    25    26    1
     6    26    36    1
     7    36    37    1
     8    37    38    1
     9    37    39    2
    10    26    27    1
    11    27    28    1
    12    27    29    1
    13    29    30    1
    14    30    24    1
    15    24     1    1
    16     1     2   ar
    17     2    16    1
    18    16    17   ar
    19    17    18   ar
    20    18    19   ar
    21    19    20    1
    22    19    21   ar
    23    21    22   ar
    24     2     3   ar
    25     3     4   ar
    26     4     5   ar
    27     5     6   ar
    28     6     7    1
    29     6     8   ar
    30     8     9   ar
    31     9    10    1
    32     9    11   ar
    33    11    12   ar
    34    12    13    2
    35    30    31    1
    36    31    40    1
    37    40    41    1
    38    41    42    1
    39    41    43    2
    40    31    25    1
    41    12     1   ar
    42    22    16   ar
    43    11     4   ar
    44    20    23    1
    45     7    14    1
    46    10    15    1
@<TRIPOS>MOLECULE
*****
 43 46 0 0 0
SMALL
GASTEIGER

@<TRIPOS>ATOM
      1 C           7.0027   -2.5428   23.5647 C.ar    1  UNL1        0.2144
      2 C           6.7913   -3.6425   22.5667 C.ar    1  UNL1        0.1822
      3 O           7.1188   -5.0600   22.9319 O.2     1  UNL1       -0.4500
      4 C           7.6578   -5.3778   24.2952 C.ar    1  UNL1        0.1545
      5 C           7.9853   -6.7953   24.6605 C.ar    1  UNL1        0.0744
      6 C           8.5242   -7.1131   26.0237 C.ar    1  UNL1        0.1397
      7 O           8.8518   -8.5306   26.3890 O.3     1  UNL1       -0.5053
      8 C           8.7356   -6.0134   27.0217 C.ar    1  UNL1        0.0735
      9 C           8.4081   -4.5959   26.6565 C.ar    1  UNL1        0.1428
     10 O           8.6195   -3.4963   27.6545 O.3     1  UNL1       -0.5052
     11 C           7.8692   -4.2781   25.2932 C.ar    1  UNL1        0.1104
     12 C           7.5416   -2.8606   24.9279 C.ar    1  UNL1        0.2382
     13 O           7.7530   -1.7609   25.9259 O.2     1  UNL1       -0.2830
     14 H           8.7198   -9.2176   25.7656 H       1  UNL1        0.2922
     15 H           8.9561   -3.6948   28.5061 H       1  UNL1        0.2922
     16 C           6.2523   -3.3246   21.2033 C.ar    1  UNL1        0.0379
     17 C           7.1563   -2.7457   20.1557 C.ar    1  UNL1        0.0062
     18 C           6.6174   -2.4279   18.7925 C.ar    1  UNL1        0.0367
     19 C           5.1744   -2.6890   18.4769 C.ar    1  UNL1        0.1337
     20 O           4.6354   -2.3711   17.1135 O.3     1  UNL1       -0.5055
     21 C           4.2704   -3.2679   19.5245 C.ar    1  UNL1        0.0367
     22 C           4.8093   -3.5857   20.8877 C.ar    1  UNL1        0.0062
     23 H           5.2002   -2.0095   16.4591 H       1  UNL1        0.2922
     24 O           6.6751   -1.1253   23.1994 O.3     1  UNL1       -0.4433
     25 C           3.1168    0.5462   22.6567 C.3     1  UNL1        0.2569
     26 C           2.5795    0.5302   24.0571 C.3     1  UNL1        0.2392
     27 C           3.4074   -0.0377   25.1716 C.3     1  UNL1        0.1627
     28 C           2.8701   -0.0537   26.5720 C.3     1  UNL1        0.0362
     29 O           4.7726   -0.5895   24.8857 O.3     1  UNL1       -0.3164
     30 C           5.3099   -0.5735   23.4853 C.3     1  UNL1        0.3334
     31 C           4.4820   -0.0056   22.3708 C.3     1  UNL1        0.2815
     32 O           2.2889    1.1141   21.5423 O.3     1  UNL1       -0.4443
     33 C           1.6182   -0.9534   20.1190 C.3     1  UNL1        0.1212
     34 C           1.2313    0.2737   20.8902 C.2     1  UNL1        0.3177
     35 O          -0.2131    0.6602   21.0092 O.2     1  UNL1       -0.2501
     36 O           1.2143    1.0820   24.3430 O.3     1  UNL1       -0.4458
     37 C           1.0365    2.5499   24.5956 C.2     1  UNL1        0.3176
     38 C          -0.2890    3.0757   25.0611 C.3     1  UNL1        0.1212
     39 O           2.1841    3.4920   24.3827 O.2     1  UNL1       -0.2501
     40 O           5.0193    0.0105   20.9705 O.3     1  UNL1       -0.4416
     41 C           5.8028    1.1924   20.4812 C.2     1  UNL1        0.3178
     42 C           7.2251    1.0179   20.0380 C.3     1  UNL1        0.1212
     43 O           5.1639    2.5487   20.4353 O.2     1  UNL1       -0.2501
@<TRIPOS>BOND
     1    33    34    1
     2    34    35    2
     3    34    32    1
     4    25    32    1
     5    25    26    1
     6    26    36    1
     7    36    37    1
     8    37    38    1
     9    37    39    2
    10    26    27    1
    11    27    28    1
    12    27    29    1
    13    29    30    1
    14    30    24    1
    15    24     1    1
    16     1     2   ar
    17     2    16    1
    18    16    17   ar
    19    17    18   ar
    20    18    19   ar
    21    19    20    1
    22    19    21   ar
    23    21    22   ar
    24     2     3   ar
    25     3     4   ar
    26     4     5   ar
    27     5     6   ar
    28     6     7    1
    29     6     8   ar
    30     8     9   ar
    31     9    10    1
    32     9    11   ar
    33    11    12   ar
    34    12    13    2
    35    30    31    1
    36    31    40    1
    37    40    41    1
    38    41    42    1
    39    41    43    2
    40    31    25    1
    41    12     1   ar
    42    22    16   ar
    43    11     4   ar
    44    20    23    1
    45     7    14    1
    46    10    15    1
@<TRIPOS>MOLECULE
*****
 43 46 0 0 0
SMALL
GASTEIGER

@<TRIPOS>ATOM
      1 C          -0.9520    3.3136   22.9897 C.ar    1  UNL1        0.2144
      2 C          -1.5245    3.2139   24.3725 C.ar    1  UNL1        0.1822
      3 O          -3.0030    3.3528   24.5840 O.2     1  UNL1       -0.4500
      4 C          -3.9090    3.5913   23.4125 C.ar    1  UNL1        0.1545
      5 C          -5.3875    3.7301   23.6239 C.ar    1  UNL1        0.0744
      6 C          -6.2935    3.9687   22.4525 C.ar    1  UNL1        0.1397
      7 O          -7.7721    4.1075   22.6638 O.3     1  UNL1       -0.5053
      8 C          -5.7209    4.0684   21.0696 C.ar    1  UNL1        0.0735
      9 C          -4.2425    3.9295   20.8582 C.ar    1  UNL1        0.1428
     10 O          -3.6699    4.0292   19.4754 O.3     1  UNL1       -0.5052
     11 C          -3.3365    3.6910   22.0296 C.ar    1  UNL1        0.1104
     12 C          -1.8579    3.5521   21.8183 C.ar    1  UNL1        0.2382
     13 O          -1.2854    3.6518   20.4354 O.2     1  UNL1       -0.2830
     14 H          -8.1297    4.0453   23.5276 H       1  UNL1        0.2922
     15 H          -4.2359    4.1782   18.7436 H       1  UNL1        0.2922
     16 C          -0.6185    2.9754   25.5440 C.ar    1  UNL1        0.0379
     17 C          -0.6351    1.6507   26.2475 C.ar    1  UNL1        0.0062
     18 C           0.2709    1.4122   27.4189 C.ar    1  UNL1        0.0367
     19 C           1.1936    2.4984   27.8868 C.ar    1  UNL1        0.1337
     20 O           2.0996    2.2599   29.0583 O.3     1  UNL1       -0.5055
     21 C           1.2102    3.8231   27.1833 C.ar    1  UNL1        0.0367
     22 C           0.3042    4.0616   26.0119 C.ar    1  UNL1        0.0062
     23 H           2.0892    1.4324   29.4977 H       1  UNL1        0.2922
     24 O           0.5266    3.1747   22.7783 O.3     1  UNL1       -0.4433
     25 C           2.3263   -0.2917   22.0752 C.3     1  UNL1        0.2569
     26 C           2.1603   -0.4009   20.5884 C.3     1  UNL1        0.2392
     27 C           1.4497    0.6819   19.8315 C.3     1  UNL1        0.1627
     28 C           1.2837    0.5727   18.3448 C.3     1  UNL1        0.0362
     29 O           0.9052    1.8737   20.5615 O.3     1  UNL1       -0.3164
     30 C           1.0712    1.9829   22.0483 C.3     1  UNL1        0.3334
     31 C           1.7818    0.9001   22.8051 C.3     1  UNL1        0.2815
     32 O           3.0369   -1.3745   22.8319 O.3     1  UNL1       -0.4443
     33 C           5.2349   -2.3909   23.7731 C.3     1  UNL1        0.1212
     34 C           4.5200   -1.2938   23.0414 C.2     1  UNL1        0.3177
     35 O           5.2882   -0.1160   22.5192 O.2     1  UNL1       -0.2501
     36 O           2.7049   -1.5928   19.8584 O.3     1  UNL1       -0.4458
     37 C           4.1312   -1.6005   19.3939 C.2     1  UNL1        0.3176
     38 C           4.8387   -2.9033   19.1659 C.3     1  UNL1        0.1212
     39 O           4.8499   -0.3053   19.1573 O.2     1  UNL1       -0.2501
     40 O           1.9478    1.0093   24.2919 O.3     1  UNL1       -0.4416
     41 C           3.1621    1.6790   24.8638 C.2     1  UNL1        0.3178
     42 C           3.9748    0.9858   25.9169 C.3     1  UNL1        0.1212
     43 O           3.5636    3.0418   24.3826 O.2     1  UNL1       -0.2501
@<TRIPOS>BOND
     1    33    34    1
     2    34    35    2
     3    34    32    1
     4    25    32    1
     5    25    26    1
     6    26    36    1
     7    36    37    1
     8    37    38    1
     9    37    39    2
    10    26    27    1
    11    27    28    1
    12    27    29    1
    13    29    30    1
    14    30    24    1
    15    24     1    1
    16     1     2   ar
    17     2    16    1
    18    16    17   ar
    19    17    18   ar
    20    18    19   ar
    21    19    20    1
    22    19    21   ar
    23    21    22   ar
    24     2     3   ar
    25     3     4   ar
    26     4     5   ar
    27     5     6   ar
    28     6     7    1
    29     6     8   ar
    30     8     9   ar
    31     9    10    1
    32     9    11   ar
    33    11    12   ar
    34    12    13    2
    35    30    31    1
    36    31    40    1
    37    40    41    1
    38    41    42    1
    39    41    43    2
    40    31    25    1
    41    12     1   ar
    42    22    16   ar
    43    11     4   ar
    44    20    23    1
    45     7    14    1
    46    10    15    1
