@<TRIPOS>MOLECULE
*****
 25 27 0 0 0
SMALL
GASTEIGER

@<TRIPOS>ATOM
      1 C           6.2211   -3.4823   21.7271 C.ar    1  UNL1        0.1511
      2 C           7.2740   -3.5674   20.6621 C.ar    1  UNL1        0.1331
      3 N           8.4759   -4.4420   20.8638 N.ar    1  UNL1       -0.2378
      4 C           8.6250   -5.2314   22.1305 C.ar    1  UNL1        0.1180
      5 C           7.5722   -5.1463   23.1956 C.ar    1  UNL1        0.1018
      6 N           6.3702   -4.2717   22.9939 N.ar    1  UNL1       -0.2275
      7 C           1.2797   -0.2499   19.5446 C.3     1  UNL1        0.0897
      8 N           2.3736   -0.8772   20.3569 N.3     1  UNL1       -0.2700
      9 C           2.3991   -0.5070   21.8104 C.3     1  UNL1        0.0739
     10 C           3.3546   -0.9600   22.8741 C.3     1  UNL1        0.0388
     11 C           4.5207   -1.8949   22.7474 C.3     1  UNL1        0.0937
     12 N           5.0193   -2.6079   21.5255 N.pl3   1  UNL1       -0.2905
     13 C           4.4748   -2.5619   20.1285 C.3     1  UNL1        0.1095
     14 C           3.2975   -1.7918   19.6085 C.3     1  UNL1        0.0939
     15 C           7.7212   -5.9357   24.4623 C.ar    1  UNL1        0.0192
     16 C           8.4035   -7.2713   24.4378 C.ar    1  UNL1        0.0015
     17 C           8.5526   -8.0607   25.7046 C.ar    1  UNL1        0.0000
     18 C           8.0194   -7.5145   26.9958 C.ar    1  UNL1        0.0000
     19 C           7.3371   -6.1788   27.0203 C.ar    1  UNL1        0.0001
     20 C           7.1880   -5.3894   25.7535 C.ar    1  UNL1        0.0015
     21 C           6.8040   -5.6326   28.3115 C.2     1  UNL1        0.0012
     22 C           7.4538   -6.0085   29.6101 C.2     1  UNL1        0.0151
     23 C           6.9206   -5.4623   30.9014 C.2     1  UNL1        0.0729
     24 O           6.5644   -4.0094   31.0109 O.co2   1  UNL1       -0.5446
     25 O           6.7437   -6.3690   32.0832 O.co2   1  UNL1       -0.5446
@<TRIPOS>UNITY_ATOM_ATTR
24 1
charge -1
@<TRIPOS>BOND
     1     7     8    1
     2     8     9    1
     3     9    10    1
     4    10    11    1
     5    11    12    1
     6    12     1    1
     7     1     2   ar
     8     2     3   ar
     9     3     4   ar
    10     4     5   ar
    11     5    15    1
    12    15    16   ar
    13    16    17   ar
    14    17    18   ar
    15    18    19   ar
    16    19    21    1
    17    21    22    2
    18    22    23    1
    19    23    24   ar
    20    23    25   ar
    21    19    20   ar
    22     5     6   ar
    23    12    13    1
    24    13    14    1
    25    14     8    1
    26     6     1   ar
    27    20    15   ar
@<TRIPOS>MOLECULE
*****
 25 27 0 0 0
SMALL
GASTEIGER

@<TRIPOS>ATOM
      1 C          -2.2190    3.2323   20.1507 C.ar    1  UNL1        0.1511
      2 C          -1.9028    3.8352   18.8140 C.ar    1  UNL1        0.1331
      3 N          -0.6209    3.4855   18.1179 N.ar    1  UNL1       -0.2378
      4 C           0.3448    2.5330   18.7584 C.ar    1  UNL1        0.1180
      5 C           0.0286    1.9301   20.0950 C.ar    1  UNL1        0.1018
      6 N          -1.2533    2.2798   20.7912 N.ar    1  UNL1       -0.2275
      7 C          -6.8122    4.5877   24.2367 C.3     1  UNL1        0.0897
      8 N          -5.9601    4.3076   23.0344 N.3     1  UNL1       -0.2700
      9 C          -6.6579    4.3880   21.7090 C.3     1  UNL1        0.0739
     10 C          -6.0907    4.1648   20.3385 C.3     1  UNL1        0.0388
     11 C          -4.6857    3.8060   19.9547 C.3     1  UNL1        0.0937
     12 N          -3.5008    3.5819   20.8468 N.pl3   1  UNL1       -0.2905
     13 C          -3.4284    3.6611   22.3429 C.3     1  UNL1        0.1095
     14 C          -4.5227    3.9841   23.3165 C.3     1  UNL1        0.0939
     15 C           0.9943    0.9776   20.7355 C.ar    1  UNL1        0.0192
     16 C           1.2725    1.0679   22.2067 C.ar    1  UNL1        0.0015
     17 C           2.2382    0.1154   22.8472 C.ar    1  UNL1        0.0000
     18 C           2.9256   -0.9273   22.0165 C.ar    1  UNL1        0.0000
     19 C           2.6473   -1.0175   20.5453 C.ar    1  UNL1        0.0001
     20 C           1.6817   -0.0651   19.9048 C.ar    1  UNL1        0.0015
     21 C           3.3348   -2.0603   19.7146 C.2     1  UNL1        0.0012
     22 C           4.7094   -1.8015   19.1730 C.2     1  UNL1        0.0151
     23 C           5.3969   -2.8443   18.3423 C.2     1  UNL1        0.0729
     24 O           4.9706   -4.2793   18.4366 O.co2   1  UNL1       -0.5446
     25 O           6.5106   -2.4520   17.4172 O.co2   1  UNL1       -0.5446
@<TRIPOS>UNITY_ATOM_ATTR
24 1
charge -1
@<TRIPOS>BOND
     1     7     8    1
     2     8     9    1
     3     9    10    1
     4    10    11    1
     5    11    12    1
     6    12     1    1
     7     1     2   ar
     8     2     3   ar
     9     3     4   ar
    10     4     5   ar
    11     5    15    1
    12    15    16   ar
    13    16    17   ar
    14    17    18   ar
    15    18    19   ar
    16    19    21    1
    17    21    22    2
    18    22    23    1
    19    23    24   ar
    20    23    25   ar
    21    19    20   ar
    22     5     6   ar
    23    12    13    1
    24    13    14    1
    25    14     8    1
    26     6     1   ar
    27    20    15   ar
@<TRIPOS>MOLECULE
*****
 25 27 0 0 0
SMALL
GASTEIGER

@<TRIPOS>ATOM
      1 C          -1.8476    3.2722   21.4815 C.ar    1  UNL1        0.1511
      2 C          -1.9762    4.0833   22.7368 C.ar    1  UNL1        0.1331
      3 N          -1.0429    3.8403   23.8858 N.ar    1  UNL1       -0.2378
      4 C           0.0189    2.7861   23.7795 C.ar    1  UNL1        0.1180
      5 C           0.1475    1.9750   22.5242 C.ar    1  UNL1        0.1018
      6 N          -0.7857    2.2181   21.3753 N.ar    1  UNL1       -0.2275
      7 C          -4.5819    4.6540   15.9821 C.3     1  UNL1        0.0897
      8 N          -4.2447    4.2551   17.3882 N.3     1  UNL1       -0.2700
      9 C          -5.4054    3.8402   18.2432 C.3     1  UNL1        0.0739
     10 C          -5.3993    3.3915   19.6744 C.3     1  UNL1        0.0388
     11 C          -4.2313    3.2469   20.6044 C.3     1  UNL1        0.0937
     12 N          -2.7807    3.5152   20.3326 N.pl3   1  UNL1       -0.2905
     13 C          -2.1400    3.9945   19.0638 C.3     1  UNL1        0.1095
     14 C          -2.7914    4.3237   17.7535 C.3     1  UNL1        0.0939
     15 C           1.2094    0.9209   22.4180 C.ar    1  UNL1        0.0192
     16 C           1.9304    0.4559   23.6483 C.ar    1  UNL1        0.0015
     17 C           2.9922   -0.5982   23.5421 C.ar    1  UNL1        0.0000
     18 C           3.3331   -1.1874   22.2054 C.ar    1  UNL1        0.0000
     19 C           2.6120   -0.7223   20.9750 C.ar    1  UNL1        0.0001
     20 C           1.5502    0.3318   21.0813 C.ar    1  UNL1        0.0015
     21 C           2.9529   -1.3115   19.6384 C.2     1  UNL1        0.0012
     22 C           4.2032   -0.8854   18.9277 C.2     1  UNL1        0.0151
     23 C           4.5441   -1.4746   17.5910 C.2     1  UNL1        0.0729
     24 O           5.5911   -2.5437   17.4876 O.co2   1  UNL1       -0.5446
     25 O           3.8379   -0.9947   16.3577 O.co2   1  UNL1       -0.5446
@<TRIPOS>UNITY_ATOM_ATTR
24 1
charge -1
@<TRIPOS>BOND
     1     7     8    1
     2     8     9    1
     3     9    10    1
     4    10    11    1
     5    11    12    1
     6    12     1    1
     7     1     2   ar
     8     2     3   ar
     9     3     4   ar
    10     4     5   ar
    11     5    15    1
    12    15    16   ar
    13    16    17   ar
    14    17    18   ar
    15    18    19   ar
    16    19    21    1
    17    21    22    2
    18    22    23    1
    19    23    24   ar
    20    23    25   ar
    21    19    20   ar
    22     5     6   ar
    23    12    13    1
    24    13    14    1
    25    14     8    1
    26     6     1   ar
    27    20    15   ar
@<TRIPOS>MOLECULE
*****
 25 27 0 0 0
SMALL
GASTEIGER

@<TRIPOS>ATOM
      1 C           4.2343   -1.2360   26.3625 C.ar    1  UNL1        0.1511
      2 C           5.4686   -1.8711   26.9312 C.ar    1  UNL1        0.1331
      3 N           6.3319   -2.7402   26.0653 N.ar    1  UNL1       -0.2378
      4 C           5.9610   -2.9740   24.6309 C.ar    1  UNL1        0.1180
      5 C           4.7268   -2.3389   24.0621 C.ar    1  UNL1        0.1018
      6 N           3.8635   -1.4699   24.9280 N.ar    1  UNL1       -0.2275
      7 C           0.5895    3.2473   28.8615 C.3     1  UNL1        0.0897
      8 N           1.4196    2.0333   28.5662 N.3     1  UNL1       -0.2700
      9 C           1.5401    1.0397   29.6836 C.3     1  UNL1        0.0739
     10 C           2.2902   -0.2590   29.7032 C.3     1  UNL1        0.0388
     11 C           3.1050   -0.8852   28.6106 C.3     1  UNL1        0.0937
     12 N           3.3711   -0.3671   27.2282 N.pl3   1  UNL1       -0.2905
     13 C           2.8879    0.9051   26.5972 C.3     1  UNL1        0.1095
     14 C           2.0195    1.9733   27.1926 C.3     1  UNL1        0.0939
     15 C           4.3559   -2.5727   22.6277 C.ar    1  UNL1        0.0192
     16 C           4.8367   -3.8048   21.9200 C.ar    1  UNL1        0.0015
     17 C           4.4658   -4.0386   20.4855 C.ar    1  UNL1        0.0000
     18 C           3.6142   -3.0405   19.7587 C.ar    1  UNL1        0.0000
     19 C           3.1334   -1.8083   20.4664 C.ar    1  UNL1        0.0001
     20 C           3.5043   -1.5745   21.9009 C.ar    1  UNL1        0.0015
     21 C           2.2818   -0.8102   19.7396 C.2     1  UNL1        0.0012
     22 C           1.2017   -0.0711   20.4724 C.2     1  UNL1        0.0151
     23 C           0.3500    0.9272   19.7455 C.2     1  UNL1        0.0729
     24 O           0.5656    1.1720   18.2815 O.co2   1  UNL1       -0.5446
     25 O          -0.7172    1.6805   20.4827 O.co2   1  UNL1       -0.5446
@<TRIPOS>UNITY_ATOM_ATTR
24 1
charge -1
@<TRIPOS>BOND
     1     7     8    1
     2     8     9    1
     3     9    10    1
     4    10    11    1
     5    11    12    1
     6    12     1    1
     7     1     2   ar
     8     2     3   ar
     9     3     4   ar
    10     4     5   ar
    11     5    15    1
    12    15    16   ar
    13    16    17   ar
    14    17    18   ar
    15    18    19   ar
    16    19    21    1
    17    21    22    2
    18    22    23    1
    19    23    24   ar
    20    23    25   ar
    21    19    20   ar
    22     5     6   ar
    23    12    13    1
    24    13    14    1
    25    14     8    1
    26     6     1   ar
    27    20    15   ar
@<TRIPOS>MOLECULE
*****
 25 27 0 0 0
SMALL
GASTEIGER

@<TRIPOS>ATOM
      1 C          -9.8516  -19.3279   20.8373 C.ar    1  UNL1        0.1511
      2 C         -10.1245  -19.8696   19.4654 C.ar    1  UNL1        0.1331
      3 N          -8.9840  -20.2621   18.5734 N.ar    1  UNL1       -0.2378
      4 C          -7.5707  -20.1128   19.0534 C.ar    1  UNL1        0.1180
      5 C          -7.2978  -19.5711   20.4253 C.ar    1  UNL1        0.1018
      6 N          -8.4383  -19.1786   21.3173 N.ar    1  UNL1       -0.2275
      7 C         -13.9444  -18.4483   25.5389 C.3     1  UNL1        0.0897
      8 N         -13.1832  -18.4645   24.2465 N.3     1  UNL1       -0.2700
      9 C         -13.7969  -17.6871   23.1198 C.3     1  UNL1        0.0739
     10 C         -13.2879  -17.5093   21.7202 C.3     1  UNL1        0.0388
     11 C         -12.0395  -18.0648   21.1012 C.3     1  UNL1        0.0937
     12 N         -10.9919  -18.9355   21.7292 N.pl3   1  UNL1       -0.2905
     13 C         -10.9339  -19.4656   23.1312 C.3     1  UNL1        0.1095
     14 C         -11.9090  -19.2561   24.2515 C.3     1  UNL1        0.0939
     15 C          -5.8845  -19.4218   20.9052 C.ar    1  UNL1        0.0192
     16 C          -4.7628  -20.0671   20.1468 C.ar    1  UNL1        0.0015
     17 C          -3.3496  -19.9178   20.6267 C.ar    1  UNL1        0.0000
     18 C          -3.0580  -19.1232   21.8651 C.ar    1  UNL1        0.0000
     19 C          -4.1798  -18.4779   22.6236 C.ar    1  UNL1        0.0001
     20 C          -5.5931  -18.6272   22.1437 C.ar    1  UNL1        0.0015
     21 C          -3.8883  -17.6834   23.8620 C.2     1  UNL1        0.0012
     22 C          -4.9342  -16.7715   24.4316 C.2     1  UNL1        0.0151
     23 C          -4.6425  -15.9769   25.6701 C.2     1  UNL1        0.0729
     24 O          -4.9676  -14.5133   25.7160 O.co2   1  UNL1       -0.5446
     25 O          -4.0258  -16.6460   26.8625 O.co2   1  UNL1       -0.5446
@<TRIPOS>UNITY_ATOM_ATTR
24 1
charge -1
@<TRIPOS>BOND
     1     7     8    1
     2     8     9    1
     3     9    10    1
     4    10    11    1
     5    11    12    1
     6    12     1    1
     7     1     2   ar
     8     2     3   ar
     9     3     4   ar
    10     4     5   ar
    11     5    15    1
    12    15    16   ar
    13    16    17   ar
    14    17    18   ar
    15    18    19   ar
    16    19    21    1
    17    21    22    2
    18    22    23    1
    19    23    24   ar
    20    23    25   ar
    21    19    20   ar
    22     5     6   ar
    23    12    13    1
    24    13    14    1
    25    14     8    1
    26     6     1   ar
    27    20    15   ar
@<TRIPOS>MOLECULE
*****
 25 27 0 0 0
SMALL
GASTEIGER

@<TRIPOS>ATOM
      1 C           8.1671   -5.0913   23.3959 C.ar    1  UNL1        0.1511
      2 C           9.4782   -4.9668   22.6777 C.ar    1  UNL1        0.1331
      3 N           9.5236   -4.3882   21.2945 N.ar    1  UNL1       -0.2378
      4 C           8.2581   -3.9342   20.6294 C.ar    1  UNL1        0.1180
      5 C           6.9470   -4.0586   21.3476 C.ar    1  UNL1        0.1018
      6 N           6.9016   -4.6372   22.7309 N.ar    1  UNL1       -0.2275
      7 C           7.9391   -6.1662   29.5945 C.3     1  UNL1        0.0897
      8 N           7.9995   -6.2453   28.0978 N.3     1  UNL1       -0.2700
      9 C           8.0444   -7.6291   27.5204 C.3     1  UNL1        0.0739
     10 C           8.1079   -8.0394   26.0792 C.3     1  UNL1        0.0388
     11 C           8.1423   -7.1675   24.8591 C.3     1  UNL1        0.0937
     12 N           8.1216   -5.6698   24.7790 N.pl3   1  UNL1       -0.2905
     13 C           8.0615   -4.6742   25.8994 C.3     1  UNL1        0.1095
     14 C           8.0071   -4.9302   27.3762 C.3     1  UNL1        0.0939
     15 C           5.6815   -3.6046   20.6825 C.ar    1  UNL1        0.0192
     16 C           5.2320   -4.2503   19.4055 C.ar    1  UNL1        0.0015
     17 C           3.9665   -3.7962   18.7405 C.ar    1  UNL1        0.0000
     18 C           3.1505   -2.6964   19.3525 C.ar    1  UNL1        0.0000
     19 C           3.6001   -2.0507   20.6296 C.ar    1  UNL1        0.0001
     20 C           4.8656   -2.5047   21.2946 C.ar    1  UNL1        0.0015
     21 C           2.7842   -0.9509   21.2415 C.2     1  UNL1        0.0012
     22 C           1.5175   -0.4983   20.5777 C.2     1  UNL1        0.0151
     23 C           0.7015    0.6016   21.1897 C.2     1  UNL1        0.0729
     24 O           1.0469    1.1218   22.5535 O.co2   1  UNL1       -0.5446
     25 O          -0.4599    1.1812   20.4379 O.co2   1  UNL1       -0.5446
@<TRIPOS>UNITY_ATOM_ATTR
24 1
charge -1
@<TRIPOS>BOND
     1     7     8    1
     2     8     9    1
     3     9    10    1
     4    10    11    1
     5    11    12    1
     6    12     1    1
     7     1     2   ar
     8     2     3   ar
     9     3     4   ar
    10     4     5   ar
    11     5    15    1
    12    15    16   ar
    13    16    17   ar
    14    17    18   ar
    15    18    19   ar
    16    19    21    1
    17    21    22    2
    18    22    23    1
    19    23    24   ar
    20    23    25   ar
    21    19    20   ar
    22     5     6   ar
    23    12    13    1
    24    13    14    1
    25    14     8    1
    26     6     1   ar
    27    20    15   ar
@<TRIPOS>MOLECULE
*****
 25 27 0 0 0
SMALL
GASTEIGER

@<TRIPOS>ATOM
      1 C          -9.4967  -18.7763   21.5323 C.ar    1  UNL1        0.1511
      2 C          -9.4803  -19.3716   20.1556 C.ar    1  UNL1        0.1331
      3 N          -8.1763  -19.5798   19.4439 N.ar    1  UNL1       -0.2378
      4 C          -6.8887  -19.1928   20.1091 C.ar    1  UNL1        0.1180
      5 C          -6.9051  -18.5975   21.4859 C.ar    1  UNL1        0.1018
      6 N          -8.2091  -18.3893   22.1975 N.ar    1  UNL1       -0.2275
      7 C         -14.2788  -18.4605   25.6141 C.3     1  UNL1        0.0897
      8 N         -13.3610  -18.3990   24.4293 N.3     1  UNL1       -0.2700
      9 C         -13.9531  -17.8250   23.1763 C.3     1  UNL1        0.0739
     10 C         -13.3028  -17.6300   21.8388 C.3     1  UNL1        0.0388
     11 C         -11.8998  -17.9607   21.4238 C.3     1  UNL1        0.0937
     12 N         -10.8006  -18.5681   22.2439 N.pl3   1  UNL1       -0.2905
     13 C         -10.8329  -18.9949   23.6816 C.3     1  UNL1        0.1095
     14 C         -11.9722  -18.9197   24.6542 C.3     1  UNL1        0.0939
     15 C          -5.6175  -18.2105   22.1510 C.ar    1  UNL1        0.0192
     16 C          -5.6398  -17.4932   23.4681 C.ar    1  UNL1        0.0015
     17 C          -4.3523  -17.1062   24.1332 C.ar    1  UNL1        0.0000
     18 C          -3.0424  -17.4365   23.4813 C.ar    1  UNL1        0.0000
     19 C          -3.0202  -18.1539   22.1640 C.ar    1  UNL1        0.0001
     20 C          -4.3077  -18.5409   21.4989 C.ar    1  UNL1        0.0015
     21 C          -1.7103  -18.4842   21.5121 C.2     1  UNL1        0.0012
     22 C          -1.0396  -17.4782   20.6244 C.2     1  UNL1        0.0151
     23 C           0.2704  -17.8086   19.9724 C.2     1  UNL1        0.0729
     24 O           0.5608  -19.2164   19.5438 O.co2   1  UNL1       -0.5446
     25 O           1.2898  -16.7312   19.7491 O.co2   1  UNL1       -0.5446
@<TRIPOS>UNITY_ATOM_ATTR
24 1
charge -1
@<TRIPOS>BOND
     1     7     8    1
     2     8     9    1
     3     9    10    1
     4    10    11    1
     5    11    12    1
     6    12     1    1
     7     1     2   ar
     8     2     3   ar
     9     3     4   ar
    10     4     5   ar
    11     5    15    1
    12    15    16   ar
    13    16    17   ar
    14    17    18   ar
    15    18    19   ar
    16    19    21    1
    17    21    22    2
    18    22    23    1
    19    23    24   ar
    20    23    25   ar
    21    19    20   ar
    22     5     6   ar
    23    12    13    1
    24    13    14    1
    25    14     8    1
    26     6     1   ar
    27    20    15   ar
@<TRIPOS>MOLECULE
*****
 25 27 0 0 0
SMALL
GASTEIGER

@<TRIPOS>ATOM
      1 C          -2.0503    3.2702   21.8934 C.ar    1  UNL1        0.1511
      2 C          -1.5642    3.6768   23.2530 C.ar    1  UNL1        0.1331
      3 N          -0.1827    3.2996   23.6994 N.ar    1  UNL1       -0.2378
      4 C           0.7127    2.5158   22.7862 C.ar    1  UNL1        0.1180
      5 C           0.2267    2.1092   21.4266 C.ar    1  UNL1        0.1018
      6 N          -1.1549    2.4864   20.9802 N.ar    1  UNL1       -0.2275
      7 C          -7.3656    4.4863   18.7472 C.3     1  UNL1        0.0897
      8 N          -6.2776    4.2984   19.7625 N.3     1  UNL1       -0.2700
      9 C          -6.6386    4.6486   21.1758 C.3     1  UNL1        0.0739
     10 C          -5.7836    4.5721   22.4057 C.3     1  UNL1        0.0388
     11 C          -4.3564    4.1265   22.5265 C.3     1  UNL1        0.0937
     12 N          -3.4317    3.6473   21.4470 N.pl3   1  UNL1       -0.2905
     13 C          -3.7059    3.4955   19.9801 C.3     1  UNL1        0.1095
     14 C          -4.9723    3.7852   19.2305 C.3     1  UNL1        0.0939
     15 C           1.1221    1.3253   20.5135 C.ar    1  UNL1        0.0192
     16 C           1.3944    1.8200   19.1239 C.ar    1  UNL1        0.0015
     17 C           2.2898    1.0362   18.2107 C.ar    1  UNL1        0.0000
     18 C           2.9129   -0.2423   18.6872 C.ar    1  UNL1        0.0000
     19 C           2.6406   -0.7370   20.0769 C.ar    1  UNL1        0.0001
     20 C           1.7451    0.0468   20.9900 C.ar    1  UNL1        0.0015
     21 C           3.2637   -2.0155   20.5533 C.2     1  UNL1        0.0012
     22 C           3.6343   -3.0826   19.5664 C.2     1  UNL1        0.0151
     23 C           4.2575   -4.3612   20.0429 C.2     1  UNL1        0.0729
     24 O           4.5673   -4.5475   21.4986 O.co2   1  UNL1       -0.5446
     25 O           4.5708   -5.4533   19.0636 O.co2   1  UNL1       -0.5446
@<TRIPOS>UNITY_ATOM_ATTR
24 1
charge -1
@<TRIPOS>BOND
     1     7     8    1
     2     8     9    1
     3     9    10    1
     4    10    11    1
     5    11    12    1
     6    12     1    1
     7     1     2   ar
     8     2     3   ar
     9     3     4   ar
    10     4     5   ar
    11     5    15    1
    12    15    16   ar
    13    16    17   ar
    14    17    18   ar
    15    18    19   ar
    16    19    21    1
    17    21    22    2
    18    22    23    1
    19    23    24   ar
    20    23    25   ar
    21    19    20   ar
    22     5     6   ar
    23    12    13    1
    24    13    14    1
    25    14     8    1
    26     6     1   ar
    27    20    15   ar
@<TRIPOS>MOLECULE
*****
 25 27 0 0 0
SMALL
GASTEIGER

@<TRIPOS>ATOM
      1 C           1.2164    1.0912   20.2225 C.ar    1  UNL1        0.1511
      2 C           0.4745    2.0714   19.3629 C.ar    1  UNL1        0.1331
      3 N          -0.4674    3.0562   19.9900 N.ar    1  UNL1       -0.2378
      4 C          -0.6674    3.0607   21.4766 C.ar    1  UNL1        0.1180
      5 C           0.0745    2.0805   22.3362 C.ar    1  UNL1        0.1018
      6 N           1.0164    1.0957   21.7091 N.ar    1  UNL1       -0.2275
      7 C           4.9621   -3.7603   18.7860 C.3     1  UNL1        0.0897
      8 N           4.1637   -2.4910   18.8264 N.3     1  UNL1       -0.2700
      9 C           4.2795   -1.6105   17.6175 C.3     1  UNL1        0.0739
     10 C           3.6153   -0.2917   17.3541 C.3     1  UNL1        0.0388
     11 C           2.6712    0.4725   18.2343 C.3     1  UNL1        0.0937
     12 N           2.1583    0.1065   19.5956 N.pl3   1  UNL1       -0.2905
     13 C           2.4627   -1.1141   20.4126 C.3     1  UNL1        0.1095
     14 C           3.3551   -2.2700   20.0704 C.3     1  UNL1        0.0939
     15 C          -0.1255    2.0851   23.8228 C.ar    1  UNL1        0.0192
     16 C           0.8117    1.3184   24.7080 C.ar    1  UNL1        0.0015
     17 C           0.6117    1.3230   26.1946 C.ar    1  UNL1        0.0000
     18 C          -0.5255    2.0942   26.7960 C.ar    1  UNL1        0.0000
     19 C          -1.4628    2.8610   25.9107 C.ar    1  UNL1        0.0001
     20 C          -1.2628    2.8564   24.4241 C.ar    1  UNL1        0.0015
     21 C          -2.6001    3.6323   26.5121 C.2     1  UNL1        0.0012
     22 C          -3.8363    3.8974   25.7050 C.2     1  UNL1        0.0151
     23 C          -4.9736    4.6687   26.3065 C.2     1  UNL1        0.0729
     24 O          -6.1803    4.9946   25.4773 O.co2   1  UNL1       -0.5446
     25 O          -4.9041    5.1141   27.7372 O.co2   1  UNL1       -0.5446
@<TRIPOS>UNITY_ATOM_ATTR
24 1
charge -1
@<TRIPOS>BOND
     1     7     8    1
     2     8     9    1
     3     9    10    1
     4    10    11    1
     5    11    12    1
     6    12     1    1
     7     1     2   ar
     8     2     3   ar
     9     3     4   ar
    10     4     5   ar
    11     5    15    1
    12    15    16   ar
    13    16    17   ar
    14    17    18   ar
    15    18    19   ar
    16    19    21    1
    17    21    22    2
    18    22    23    1
    19    23    24   ar
    20    23    25   ar
    21    19    20   ar
    22     5     6   ar
    23    12    13    1
    24    13    14    1
    25    14     8    1
    26     6     1   ar
    27    20    15   ar
