@<TRIPOS>MOLECULE
*****
 33 37 0 0 0
SMALL
GASTEIGER

@<TRIPOS>ATOM
      1 N          -7.7108  -19.6553   21.4205 N.3     1  UNL1       -0.2679
      2 C          -8.4956  -19.2585   22.6355 C.3     1  UNL1        0.0978
      3 C          -9.4131  -20.2472   23.2918 C.3     1  UNL1        0.0224
      4 C         -10.1980  -19.8503   24.5069 C.3     1  UNL1        0.0065
      5 C         -10.0654  -18.4646   25.0657 C.3     1  UNL1        0.0277
      6 C          -9.1480  -17.4758   24.4095 C.ar    1  UNL1       -0.0073
      7 C          -9.0154  -16.0902   24.9683 C.ar    1  UNL1       -0.0015
      8 C          -8.0980  -15.1014   24.3121 C.ar    1  UNL1        0.0203
      9 C          -7.3131  -15.4983   23.0970 C.ar    1  UNL1        0.0985
     10 N          -7.4456  -16.8840   22.5382 N.ar    1  UNL1       -0.2471
     11 C          -8.3631  -17.8727   23.1944 C.ar    1  UNL1        0.0695
     12 C          -6.3670  -20.3041   21.5745 C.3     1  UNL1        0.0886
     13 C          -0.5097  -16.9983   20.1555 C.ar    1  UNL1        0.0204
     14 C          -0.8807  -17.8633   18.9876 C.ar    1  UNL1        0.0984
     15 N          -2.1263  -18.6974   19.0378 N.ar    1  UNL1       -0.2484
     16 C          -3.0010  -18.6666   20.2559 C.ar    1  UNL1        0.0577
     17 C          -2.6300  -17.8017   21.4239 C.ar    1  UNL1        0.0073
     18 C          -1.3843  -16.9675   21.3737 C.ar    1  UNL1       -0.0002
     19 C          -3.5047  -17.7708   22.6421 C.3     1  UNL1        0.0968
     20 N          -4.7504  -18.6049   22.6923 N.3     1  UNL1       -0.2934
     21 C          -5.1214  -19.4699   21.5243 C.3     1  UNL1        0.0764
     22 C          -4.2467  -19.5007   20.3061 C.3     1  UNL1        0.0626
     23 H          -5.5287  -17.9630   22.8423 H       1  UNL1        0.1236
     24 C          -8.2695  -19.4036   20.0514 C.3     1  UNL1        0.0724
     25 C          -9.6421  -19.8955   19.6994 C.3     1  UNL1        0.0173
     26 C         -10.7511  -18.9149   19.4572 C.3     1  UNL1        0.0015
     27 C         -11.2562  -18.0610   20.5823 C.3     1  UNL1        0.0028
     28 C         -12.2674  -18.6097   21.5447 C.3     1  UNL1        0.0171
     29 C         -12.7724  -17.7557   22.6697 C.3     1  UNL1        0.0686
     30 N         -12.2663  -16.3531   22.8323 N.3     1  UNL1       -0.2975
     31 C         -11.2550  -15.8044   21.8699 C.3     1  UNL1        0.0686
     32 C         -10.7500  -16.6584   20.7449 C.3     1  UNL1        0.0171
     33 H         -11.8494  -16.2964   23.7615 H       1  UNL1        0.1232
@<TRIPOS>BOND
     1    13    14   ar
     2    14    15   ar
     3    15    16   ar
     4    16    17   ar
     5    17    18   ar
     6    17    19    1
     7    19    20    1
     8    20    21    1
     9    21    12    1
    10    12     1    1
    11     1    24    1
    12    24    25    1
    13    25    26    1
    14    26    27    1
    15    27    28    1
    16    28    29    1
    17    29    30    1
    18    30    31    1
    19    31    32    1
    20     2     1    1
    21     2     3    1
    22     3     4    1
    23     4     5    1
    24     5     6    1
    25     6     7   ar
    26     7     8   ar
    27     8     9   ar
    28     9    10   ar
    29    10    11   ar
    30    21    22    1
    31    18    13   ar
    32    32    27    1
    33    11     2    1
    34    22    16    1
    35    11     6   ar
    36    20    23    1
    37    30    33    1
@<TRIPOS>MOLECULE
*****
 33 37 0 0 0
SMALL
GASTEIGER

@<TRIPOS>ATOM
      1 N          -7.6844  -19.0410   21.3800 N.3     1  UNL1       -0.2679
      2 C          -8.9356  -19.2192   22.1879 C.3     1  UNL1        0.0978
      3 C          -8.9472  -20.1621   23.3544 C.3     1  UNL1        0.0224
      4 C         -10.1985  -20.3404   24.1622 C.3     1  UNL1        0.0065
      5 C         -11.4381  -19.5757   23.8036 C.3     1  UNL1        0.0277
      6 C         -11.4264  -18.6328   22.6371 C.ar    1  UNL1       -0.0073
      7 C         -12.6660  -17.8681   22.2784 C.ar    1  UNL1       -0.0015
      8 C         -12.6544  -16.9252   21.1119 C.ar    1  UNL1        0.0203
      9 C         -11.4032  -16.7469   20.3040 C.ar    1  UNL1        0.0985
     10 N         -10.1636  -17.5116   20.6627 N.ar    1  UNL1       -0.2471
     11 C         -10.1752  -18.4545   21.8292 C.ar    1  UNL1        0.0695
     12 C          -6.9400  -17.7395   21.4274 C.3     1  UNL1        0.0886
     13 C          -6.9386  -14.7939   27.6381 C.ar    1  UNL1        0.0204
     14 C          -8.3500  -15.1222   27.2507 C.ar    1  UNL1        0.0984
     15 N          -8.6325  -15.7769   25.9311 N.ar    1  UNL1       -0.2484
     16 C          -7.5037  -16.1034   24.9989 C.ar    1  UNL1        0.0577
     17 C          -6.0923  -15.7751   25.3863 C.ar    1  UNL1        0.0073
     18 C          -5.8097  -15.1204   26.7059 C.ar    1  UNL1       -0.0002
     19 C          -4.9634  -16.1016   24.4540 C.3     1  UNL1        0.0968
     20 N          -5.2460  -16.7564   23.1344 N.3     1  UNL1       -0.2934
     21 C          -6.6575  -17.0847   22.7470 C.3     1  UNL1        0.0764
     22 C          -7.7863  -16.7582   23.6792 C.3     1  UNL1        0.0626
     23 H          -4.7260  -17.6339   23.1237 H       1  UNL1        0.1236
     24 C          -7.1774  -20.1642   20.5248 C.3     1  UNL1        0.0724
     25 C          -5.8427  -20.7841   20.8147 C.3     1  UNL1        0.0173
     26 C          -4.6779  -20.5148   19.9088 C.3     1  UNL1        0.0015
     27 C          -3.5823  -19.5902   20.3504 C.3     1  UNL1        0.0028
     28 C          -3.2417  -19.4724   21.8064 C.3     1  UNL1        0.0171
     29 C          -2.1462  -18.5479   22.2480 C.3     1  UNL1        0.0686
     30 N          -1.3913  -17.7411   21.2335 N.3     1  UNL1       -0.2975
     31 C          -1.7319  -17.8589   19.7775 C.3     1  UNL1        0.0686
     32 C          -2.8274  -18.7834   19.3359 C.3     1  UNL1        0.0171
     33 H          -0.4080  -17.9956   21.3274 H       1  UNL1        0.1232
@<TRIPOS>BOND
     1    13    14   ar
     2    14    15   ar
     3    15    16   ar
     4    16    17   ar
     5    17    18   ar
     6    17    19    1
     7    19    20    1
     8    20    21    1
     9    21    12    1
    10    12     1    1
    11     1    24    1
    12    24    25    1
    13    25    26    1
    14    26    27    1
    15    27    28    1
    16    28    29    1
    17    29    30    1
    18    30    31    1
    19    31    32    1
    20     2     1    1
    21     2     3    1
    22     3     4    1
    23     4     5    1
    24     5     6    1
    25     6     7   ar
    26     7     8   ar
    27     8     9   ar
    28     9    10   ar
    29    10    11   ar
    30    21    22    1
    31    18    13   ar
    32    32    27    1
    33    11     2    1
    34    22    16    1
    35    11     6   ar
    36    20    23    1
    37    30    33    1
@<TRIPOS>MOLECULE
*****
 33 37 0 0 0
SMALL
GASTEIGER

@<TRIPOS>ATOM
      1 N          -7.8231  -18.2424   22.5007 N.3     1  UNL1       -0.2679
      2 C          -9.2363  -18.4353   22.9649 C.3     1  UNL1        0.0978
      3 C          -9.5115  -19.1566   24.2510 C.3     1  UNL1        0.0224
      4 C         -10.9248  -19.3495   24.7152 C.3     1  UNL1        0.0065
      5 C         -12.0629  -18.8212   23.8932 C.3     1  UNL1        0.0277
      6 C         -11.7877  -18.0999   22.6071 C.ar    1  UNL1       -0.0073
      7 C         -12.9257  -17.5716   21.7851 C.ar    1  UNL1       -0.0015
      8 C         -12.6505  -16.8504   20.4990 C.ar    1  UNL1        0.0203
      9 C         -11.2373  -16.6575   20.0348 C.ar    1  UNL1        0.0985
     10 N         -10.0993  -17.1858   20.8568 N.ar    1  UNL1       -0.2471
     11 C         -10.3744  -17.9070   22.1429 C.ar    1  UNL1        0.0695
     12 C          -7.0921  -19.3699   21.8339 C.3     1  UNL1        0.0886
     13 C          -0.7731  -18.2157   19.3868 C.ar    1  UNL1        0.0204
     14 C          -1.7819  -17.6917   18.4082 C.ar    1  UNL1        0.0984
     15 N          -3.2475  -17.8178   18.7019 N.ar    1  UNL1       -0.2484
     16 C          -3.7042  -18.4678   19.9742 C.ar    1  UNL1        0.0577
     17 C          -2.6954  -18.9918   20.9528 C.ar    1  UNL1        0.0073
     18 C          -1.2299  -18.8657   20.6591 C.ar    1  UNL1       -0.0002
     19 C          -3.1522  -19.6419   22.2252 C.3     1  UNL1        0.0968
     20 N          -4.6177  -19.7679   22.5189 N.3     1  UNL1       -0.2934
     21 C          -5.6265  -19.2439   21.5402 C.3     1  UNL1        0.0764
     22 C          -5.1698  -18.5938   20.2679 C.3     1  UNL1        0.0626
     23 H          -4.7840  -19.2835   23.4010 H       1  UNL1        0.1236
     24 C          -7.1407  -16.9221   22.7034 C.3     1  UNL1        0.0724
     25 C          -7.9225  -15.6476   22.5838 C.3     1  UNL1        0.0173
     26 C          -8.1581  -14.7957   23.7957 C.3     1  UNL1        0.0015
     27 C          -7.7082  -15.2709   25.1455 C.3     1  UNL1        0.0028
     28 C          -6.2631  -15.1672   25.5338 C.3     1  UNL1        0.0171
     29 C          -5.8132  -15.6424   26.8835 C.3     1  UNL1        0.0686
     30 N          -6.8085  -16.2212   27.8449 N.3     1  UNL1       -0.2975
     31 C          -8.2536  -16.3249   27.4566 C.3     1  UNL1        0.0686
     32 C          -8.7035  -15.8497   26.1069 C.3     1  UNL1        0.0171
     33 H          -6.7706  -15.6487   28.6883 H       1  UNL1        0.1232
@<TRIPOS>BOND
     1    13    14   ar
     2    14    15   ar
     3    15    16   ar
     4    16    17   ar
     5    17    18   ar
     6    17    19    1
     7    19    20    1
     8    20    21    1
     9    21    12    1
    10    12     1    1
    11     1    24    1
    12    24    25    1
    13    25    26    1
    14    26    27    1
    15    27    28    1
    16    28    29    1
    17    29    30    1
    18    30    31    1
    19    31    32    1
    20     2     1    1
    21     2     3    1
    22     3     4    1
    23     4     5    1
    24     5     6    1
    25     6     7   ar
    26     7     8   ar
    27     8     9   ar
    28     9    10   ar
    29    10    11   ar
    30    21    22    1
    31    18    13   ar
    32    32    27    1
    33    11     2    1
    34    22    16    1
    35    11     6   ar
    36    20    23    1
    37    30    33    1
@<TRIPOS>MOLECULE
*****
 33 37 0 0 0
SMALL
GASTEIGER

@<TRIPOS>ATOM
      1 N          -8.4666  -17.8674   21.6924 N.3     1  UNL1       -0.2679
      2 C          -9.9318  -17.6548   21.4517 C.3     1  UNL1        0.0978
      3 C         -10.4053  -17.1185   20.1333 C.3     1  UNL1        0.0224
      4 C         -11.8705  -16.9058   19.8927 C.3     1  UNL1        0.0065
      5 C         -12.8623  -17.2294   20.9705 C.3     1  UNL1        0.0277
      6 C         -12.3888  -17.7657   22.2889 C.ar    1  UNL1       -0.0073
      7 C         -13.3806  -18.0894   23.3667 C.ar    1  UNL1       -0.0015
      8 C         -12.9071  -18.6257   24.6851 C.ar    1  UNL1        0.0203
      9 C         -11.4420  -18.8384   24.9257 C.ar    1  UNL1        0.0985
     10 N         -10.4502  -18.5147   23.8480 N.ar    1  UNL1       -0.2471
     11 C         -10.9237  -17.9784   22.5295 C.ar    1  UNL1        0.0695
     12 C          -7.7703  -19.0486   21.0840 C.3     1  UNL1        0.0886
     13 C          -1.0147  -18.6283   19.8864 C.ar    1  UNL1        0.0204
     14 C          -1.7526  -17.9163   18.7916 C.ar    1  UNL1        0.0984
     15 N          -3.2513  -17.8580   18.8122 N.ar    1  UNL1       -0.2484
     16 C          -4.0121  -18.5116   19.9275 C.ar    1  UNL1        0.0577
     17 C          -3.2742  -19.2236   21.0222 C.ar    1  UNL1        0.0073
     18 C          -1.7754  -19.2819   21.0017 C.ar    1  UNL1       -0.0002
     19 C          -4.0349  -19.8773   22.1376 C.3     1  UNL1        0.0968
     20 N          -5.5336  -19.8190   22.1582 N.3     1  UNL1       -0.2934
     21 C          -6.2716  -19.1069   21.0634 C.3     1  UNL1        0.0764
     22 C          -5.5108  -18.4533   19.9481 C.3     1  UNL1        0.0626
     23 H          -5.7988  -19.3678   23.0338 H       1  UNL1        0.1236
     24 C          -7.6977  -16.8990   22.5414 C.3     1  UNL1        0.0724
     25 C          -7.9741  -15.4283   22.4392 C.3     1  UNL1        0.0173
     26 C          -7.6439  -14.5215   23.5875 C.3     1  UNL1        0.0015
     27 C          -7.3588  -15.0999   24.9419 C.3     1  UNL1        0.0028
     28 C          -5.9413  -15.2608   25.4054 C.3     1  UNL1        0.0171
     29 C          -5.6562  -15.8392   26.7597 C.3     1  UNL1        0.0686
     30 N          -6.7886  -16.2566   27.6505 N.3     1  UNL1       -0.2975
     31 C          -8.2060  -16.0956   27.1870 C.3     1  UNL1        0.0686
     32 C          -8.4911  -15.5172   25.8327 C.3     1  UNL1        0.0171
     33 H          -6.6980  -15.7196   28.5130 H       1  UNL1        0.1232
@<TRIPOS>BOND
     1    13    14   ar
     2    14    15   ar
     3    15    16   ar
     4    16    17   ar
     5    17    18   ar
     6    17    19    1
     7    19    20    1
     8    20    21    1
     9    21    12    1
    10    12     1    1
    11     1    24    1
    12    24    25    1
    13    25    26    1
    14    26    27    1
    15    27    28    1
    16    28    29    1
    17    29    30    1
    18    30    31    1
    19    31    32    1
    20     2     1    1
    21     2     3    1
    22     3     4    1
    23     4     5    1
    24     5     6    1
    25     6     7   ar
    26     7     8   ar
    27     8     9   ar
    28     9    10   ar
    29    10    11   ar
    30    21    22    1
    31    18    13   ar
    32    32    27    1
    33    11     2    1
    34    22    16    1
    35    11     6   ar
    36    20    23    1
    37    30    33    1
@<TRIPOS>MOLECULE
*****
 33 37 0 0 0
SMALL
GASTEIGER

@<TRIPOS>ATOM
      1 N          -6.5709  -18.9628   22.1964 N.3     1  UNL1       -0.2679
      2 C          -5.3688  -19.3558   21.3899 C.3     1  UNL1        0.0978
      3 C          -5.4261  -20.5588   20.4957 C.3     1  UNL1        0.0224
      4 C          -4.2239  -20.9518   19.6892 C.3     1  UNL1        0.0065
      5 C          -2.9645  -20.1418   19.7770 C.3     1  UNL1        0.0277
      6 C          -2.9072  -18.9388   20.6712 C.ar    1  UNL1       -0.0073
      7 C          -1.6478  -18.1289   20.7589 C.ar    1  UNL1       -0.0015
      8 C          -1.5905  -16.9259   21.6531 C.ar    1  UNL1        0.0203
      9 C          -2.7926  -16.5329   22.4596 C.ar    1  UNL1        0.0985
     10 N          -4.0520  -17.3429   22.3718 N.ar    1  UNL1       -0.2471
     11 C          -4.1093  -18.5458   21.4776 C.ar    1  UNL1        0.0695
     12 C          -7.7028  -19.9307   22.3759 C.3     1  UNL1        0.0886
     13 C         -14.1287  -17.9545   23.8082 C.ar    1  UNL1        0.0204
     14 C         -13.4829  -18.4698   25.0602 C.ar    1  UNL1        0.0984
     15 N         -12.0686  -18.9681   25.0241 N.ar    1  UNL1       -0.2484
     16 C         -11.3000  -18.9511   23.7361 C.ar    1  UNL1        0.0577
     17 C         -11.9458  -18.4358   22.4842 C.ar    1  UNL1        0.0073
     18 C         -13.3602  -17.9375   22.5202 C.ar    1  UNL1       -0.0002
     19 C         -11.1773  -18.4188   21.1961 C.3     1  UNL1        0.0968
     20 N          -9.7629  -18.9171   21.1600 N.3     1  UNL1       -0.2934
     21 C          -9.1171  -19.4324   22.4120 C.3     1  UNL1        0.0764
     22 C          -9.8857  -19.4494   23.7000 C.3     1  UNL1        0.0626
     23 H          -9.1866  -18.1437   20.8283 H       1  UNL1        0.1236
     24 C          -6.6413  -17.6020   22.8233 C.3     1  UNL1        0.0724
     25 C          -7.6068  -16.5823   22.2961 C.3     1  UNL1        0.0173
     26 C          -7.9370  -15.3689   23.1137 C.3     1  UNL1        0.0015
     27 C          -7.5264  -15.3011   24.5549 C.3     1  UNL1        0.0028
     28 C          -8.5556  -15.4507   25.6358 C.3     1  UNL1        0.0171
     29 C          -8.1450  -15.3830   27.0769 C.3     1  UNL1        0.0686
     30 N          -6.7052  -15.1656   27.4371 N.3     1  UNL1       -0.2975
     31 C          -5.6760  -15.0160   26.3562 C.3     1  UNL1        0.0686
     32 C          -6.0866  -15.0838   24.9151 C.3     1  UNL1        0.0171
     33 H          -6.4205  -15.9627   28.0064 H       1  UNL1        0.1232
@<TRIPOS>BOND
     1    13    14   ar
     2    14    15   ar
     3    15    16   ar
     4    16    17   ar
     5    17    18   ar
     6    17    19    1
     7    19    20    1
     8    20    21    1
     9    21    12    1
    10    12     1    1
    11     1    24    1
    12    24    25    1
    13    25    26    1
    14    26    27    1
    15    27    28    1
    16    28    29    1
    17    29    30    1
    18    30    31    1
    19    31    32    1
    20     2     1    1
    21     2     3    1
    22     3     4    1
    23     4     5    1
    24     5     6    1
    25     6     7   ar
    26     7     8   ar
    27     8     9   ar
    28     9    10   ar
    29    10    11   ar
    30    21    22    1
    31    18    13   ar
    32    32    27    1
    33    11     2    1
    34    22    16    1
    35    11     6   ar
    36    20    23    1
    37    30    33    1
