@<TRIPOS>MOLECULE
*****
 33 37 0 0 0
SMALL
GASTEIGER

@<TRIPOS>ATOM
      1 C           4.5306    0.0016   34.3972 C.2     1  UNL1        0.3243
      2 N           3.4241    0.9162   33.9622 N.2     1  UNL1       -0.1927
      3 C           3.1152    0.6189   32.5248 C.2     1  UNL1        0.0999
      4 C           2.1185    1.2064   31.5701 C.2     1  UNL1        0.0210
      5 C           2.0374    0.6956   30.1621 C.2     1  UNL1        0.0085
      6 C           2.9529   -0.4026   29.7088 C.2     1  UNL1        0.0415
      7 CL          2.8718   -0.9135   28.3007 Cl      1  UNL1       -0.0865
      8 C           3.9496   -0.9902   30.6634 C.3     1  UNL1        0.0853
      9 C           4.0308   -0.4794   32.0714 C.2     1  UNL1        0.0866
     10 N           4.9055   -0.8609   33.2287 N.2     1  UNL1       -0.1964
     11 C           1.0406    1.2831   29.2073 C.ar    1  UNL1        0.0006
     12 C           1.3621    2.5514   28.4738 C.ar    1  UNL1        0.0000
     13 C           0.3654    3.1389   27.5191 C.ar    1  UNL1        0.0000
     14 C          -0.9528    2.4582   27.2980 C.ar    1  UNL1        0.0000
     15 C          -1.2743    1.1899   28.0316 C.ar    1  UNL1        0.0000
     16 C          -0.2776    0.6024   28.9862 C.ar    1  UNL1        0.0000
     17 C          -1.9494    3.0457   26.3433 C.ar    1  UNL1        0.0000
     18 C          -3.2512    3.5860   26.8565 C.ar    1  UNL1        0.0000
     19 C          -4.2478    4.1736   25.9017 C.ar    1  UNL1        0.0000
     20 C          -3.9426    4.2209   24.4338 C.ar    1  UNL1        0.0000
     21 C          -2.6408    3.6806   23.9207 C.ar    1  UNL1        0.0000
     22 C          -1.6442    3.0930   24.8754 C.ar    1  UNL1        0.0000
     23 O           5.1529   -0.0427   35.7613 O.3     1  UNL1       -0.4223
     24 C           3.5704    3.9893   39.9132 C.3     1  UNL1        0.0311
     25 C           3.9660    2.9813   38.8753 C.ar    1  UNL1       -0.0205
     26 C           5.3441    3.0152   38.2839 C.ar    1  UNL1       -0.0011
     27 C           5.7397    2.0071   37.2459 C.ar    1  UNL1        0.0373
     28 C           4.7572    0.9653   36.7993 C.ar    1  UNL1        0.1487
     29 C           3.3791    0.9315   37.3908 C.ar    1  UNL1        0.0384
     30 C           2.9836    1.9395   38.4287 C.ar    1  UNL1        0.0131
     31 C           1.6055    1.9057   39.0201 C.2     1  UNL1        0.0727
     32 O           1.2969    0.9681   40.1496 O.co2   1  UNL1       -0.5446
     33 O           0.5361    2.8094   38.4821 O.co2   1  UNL1       -0.5446
@<TRIPOS>UNITY_ATOM_ATTR
32 1
charge -1
@<TRIPOS>BOND
     1    24    25    1
     2    25    26   ar
     3    26    27   ar
     4    27    28   ar
     5    28    23    1
     6    23     1    1
     7     1     2    2
     8     2     3    1
     9     3     4    2
    10     4     5    1
    11     5    11    1
    12    11    12   ar
    13    12    13   ar
    14    13    14   ar
    15    14    17    1
    16    17    18   ar
    17    18    19   ar
    18    19    20   ar
    19    20    21   ar
    20    21    22   ar
    21    14    15   ar
    22    15    16   ar
    23     5     6    2
    24     6     7    1
    25     6     8    1
    26     8     9    1
    27     9    10    2
    28    28    29   ar
    29    29    30   ar
    30    30    31    1
    31    31    32   ar
    32    31    33   ar
    33    30    25   ar
    34    10     1    1
    35     9     3    1
    36    16    11   ar
    37    22    17   ar
@<TRIPOS>MOLECULE
*****
 33 37 0 0 0
SMALL
GASTEIGER

@<TRIPOS>ATOM
      1 C           6.6409   -4.2604   25.3875 C.2     1  UNL1        0.3243
      2 N           6.4246   -3.0242   26.2092 N.2     1  UNL1       -0.1927
      3 C           6.4983   -3.4111   27.6565 C.2     1  UNL1        0.0999
      4 C           6.3608   -2.6106   28.9176 C.2     1  UNL1        0.0210
      5 C           6.4851   -3.2854   30.2515 C.2     1  UNL1        0.0085
      6 C           6.7468   -4.7605   30.3243 C.2     1  UNL1        0.0415
      7 CL          6.8711   -5.4353   31.6583 Cl      1  UNL1       -0.0865
      8 C           6.8843   -5.5610   29.0633 C.3     1  UNL1        0.0853
      9 C           6.7600   -4.8863   27.7294 C.2     1  UNL1        0.0866
     10 N           6.8481   -5.4112   26.3270 N.2     1  UNL1       -0.1964
     11 C           6.3476   -2.4849   31.5127 C.ar    1  UNL1        0.0006
     12 C           5.0255   -2.4178   32.2180 C.ar    1  UNL1        0.0000
     13 C           4.8880   -1.6173   33.4791 C.ar    1  UNL1        0.0000
     14 C           6.0726   -0.8840   34.0348 C.ar    1  UNL1        0.0000
     15 C           7.3947   -0.9511   33.3295 C.ar    1  UNL1        0.0000
     16 C           7.5322   -1.7515   32.0684 C.ar    1  UNL1        0.0000
     17 C           5.9351   -0.0835   35.2959 C.ar    1  UNL1        0.0000
     18 C           4.6749   -0.1692   36.1050 C.ar    1  UNL1        0.0000
     19 C           4.5374    0.6313   37.3660 C.ar    1  UNL1        0.0000
     20 C           5.6601    1.5175   37.8181 C.ar    1  UNL1        0.0000
     21 C           6.9203    1.6031   37.0091 C.ar    1  UNL1        0.0000
     22 C           7.0578    0.8026   35.7480 C.ar    1  UNL1        0.0000
     23 O           6.6485   -4.3330   23.8892 O.3     1  UNL1       -0.4223
     24 C           2.6268   -1.2115   20.7139 C.3     1  UNL1        0.0311
     25 C           3.6322   -1.9919   21.5078 C.ar    1  UNL1       -0.0205
     26 C           3.8719   -1.6573   22.9502 C.ar    1  UNL1       -0.0011
     27 C           4.8774   -2.4378   23.7440 C.ar    1  UNL1        0.0373
     28 C           5.6431   -3.5527   23.0954 C.ar    1  UNL1        0.1487
     29 C           5.4033   -3.8871   21.6529 C.ar    1  UNL1        0.0384
     30 C           4.3979   -3.1067   20.8592 C.ar    1  UNL1        0.0131
     31 C           4.1582   -3.4413   19.4167 C.2     1  UNL1        0.0727
     32 O           3.0303   -4.3537   19.0358 O.co2   1  UNL1       -0.5446
     33 O           5.0465   -2.8633   18.3551 O.co2   1  UNL1       -0.5446
@<TRIPOS>UNITY_ATOM_ATTR
32 1
charge -1
@<TRIPOS>BOND
     1    24    25    1
     2    25    26   ar
     3    26    27   ar
     4    27    28   ar
     5    28    23    1
     6    23     1    1
     7     1     2    2
     8     2     3    1
     9     3     4    2
    10     4     5    1
    11     5    11    1
    12    11    12   ar
    13    12    13   ar
    14    13    14   ar
    15    14    17    1
    16    17    18   ar
    17    18    19   ar
    18    19    20   ar
    19    20    21   ar
    20    21    22   ar
    21    14    15   ar
    22    15    16   ar
    23     5     6    2
    24     6     7    1
    25     6     8    1
    26     8     9    1
    27     9    10    2
    28    28    29   ar
    29    29    30   ar
    30    30    31    1
    31    31    32   ar
    32    31    33   ar
    33    30    25   ar
    34    10     1    1
    35     9     3    1
    36    16    11   ar
    37    22    17   ar
@<TRIPOS>MOLECULE
*****
 33 37 0 0 0
SMALL
GASTEIGER

@<TRIPOS>ATOM
      1 C           1.5974    1.0524   21.9793 C.2     1  UNL1        0.3243
      2 N           2.5973    0.6997   23.0403 N.2     1  UNL1       -0.1927
      3 C           1.9478    0.9067   24.3764 C.2     1  UNL1        0.0999
      4 C           2.4513    0.7197   25.7769 C.2     1  UNL1        0.0210
      5 C           1.5534    1.0133   26.9422 C.2     1  UNL1        0.0085
      6 C           0.1522    1.4940   26.7069 C.2     1  UNL1        0.0415
      7 CL         -0.7457    1.7876   27.8721 Cl      1  UNL1       -0.0865
      8 C          -0.3513    1.6811   25.3064 C.3     1  UNL1        0.0853
      9 C           0.5465    1.3874   24.1412 C.2     1  UNL1        0.0866
     10 N           0.3300    1.4775   22.6596 N.2     1  UNL1       -0.1964
     11 C           2.0569    0.8262   28.3428 C.ar    1  UNL1        0.0006
     12 C           2.6032    1.9963   29.1060 C.ar    1  UNL1        0.0000
     13 C           3.1067    1.8092   30.5065 C.ar    1  UNL1        0.0000
     14 C           3.0639    0.4521   31.1438 C.ar    1  UNL1        0.0000
     15 C           2.5176   -0.7180   30.3807 C.ar    1  UNL1        0.0000
     16 C           2.0141   -0.5310   28.9802 C.ar    1  UNL1        0.0000
     17 C           3.5674    0.2651   32.5444 C.ar    1  UNL1        0.0000
     18 C           4.1356   -1.0573   32.9668 C.ar    1  UNL1        0.0000
     19 C           4.6391   -1.2442   34.3674 C.ar    1  UNL1        0.0000
     20 C           4.5744   -0.1088   35.3455 C.ar    1  UNL1        0.0000
     21 C           4.0062    1.2136   34.9230 C.ar    1  UNL1        0.0000
     22 C           3.5027    1.4005   33.5225 C.ar    1  UNL1        0.0000
     23 O           1.8251    0.9909   20.4979 O.3     1  UNL1       -0.4223
     24 C           6.0480   -2.6364   18.2596 C.3     1  UNL1        0.0311
     25 C           4.9923   -1.7296   18.8191 C.ar    1  UNL1       -0.0205
     26 C           5.0746   -0.2499   18.5871 C.ar    1  UNL1       -0.0011
     27 C           4.0188    0.6569   19.1467 C.ar    1  UNL1        0.0373
     28 C           2.8808    0.0841   19.9383 C.ar    1  UNL1        0.1487
     29 C           2.7985   -1.3956   20.1703 C.ar    1  UNL1        0.0384
     30 C           3.8542   -2.3024   19.6107 C.ar    1  UNL1        0.0131
     31 C           3.7718   -3.7820   19.8428 C.2     1  UNL1        0.0727
     32 O           4.5030   -4.4021   20.9964 O.co2   1  UNL1       -0.5446
     33 O           2.9583   -4.6416   18.9212 O.co2   1  UNL1       -0.5446
@<TRIPOS>UNITY_ATOM_ATTR
32 1
charge -1
@<TRIPOS>BOND
     1    24    25    1
     2    25    26   ar
     3    26    27   ar
     4    27    28   ar
     5    28    23    1
     6    23     1    1
     7     1     2    2
     8     2     3    1
     9     3     4    2
    10     4     5    1
    11     5    11    1
    12    11    12   ar
    13    12    13   ar
    14    13    14   ar
    15    14    17    1
    16    17    18   ar
    17    18    19   ar
    18    19    20   ar
    19    20    21   ar
    20    21    22   ar
    21    14    15   ar
    22    15    16   ar
    23     5     6    2
    24     6     7    1
    25     6     8    1
    26     8     9    1
    27     9    10    2
    28    28    29   ar
    29    29    30   ar
    30    30    31    1
    31    31    32   ar
    32    31    33   ar
    33    30    25   ar
    34    10     1    1
    35     9     3    1
    36    16    11   ar
    37    22    17   ar
@<TRIPOS>MOLECULE
*****
 33 37 0 0 0
SMALL
GASTEIGER

@<TRIPOS>ATOM
      1 C           8.1708   -4.6761   29.4122 C.2     1  UNL1        0.3243
      2 N           7.3767   -3.6658   28.6383 N.2     1  UNL1       -0.1927
      3 C           7.4213   -4.0524   27.1897 C.2     1  UNL1        0.0999
      4 C           6.8199   -3.4283   25.9655 C.2     1  UNL1        0.0210
      5 C           7.0401   -4.0533   24.6197 C.2     1  UNL1        0.0085
      6 C           7.8616   -5.3024   24.4983 C.2     1  UNL1        0.0415
      7 CL          8.0818   -5.9275   23.1526 Cl      1  UNL1       -0.0865
      8 C           8.4630   -5.9265   25.7225 C.3     1  UNL1        0.0853
      9 C           8.2429   -5.3015   27.0682 C.2     1  UNL1        0.0866
     10 N           8.7061   -5.6869   28.4418 N.2     1  UNL1       -0.1964
     11 C           6.4386   -3.4292   23.3954 C.ar    1  UNL1        0.0006
     12 C           7.3000   -2.6371   22.4571 C.ar    1  UNL1        0.0000
     13 C           6.6986   -2.0130   21.2329 C.ar    1  UNL1        0.0000
     14 C           5.2357   -2.1811   20.9469 C.ar    1  UNL1        0.0000
     15 C           4.3743   -2.9732   21.8852 C.ar    1  UNL1        0.0000
     16 C           4.9757   -3.5973   23.1095 C.ar    1  UNL1        0.0000
     17 C           4.6344   -1.5570   19.7227 C.ar    1  UNL1        0.0000
     18 C           3.3224   -0.8358   19.8158 C.ar    1  UNL1        0.0000
     19 C           2.7211   -0.2118   18.5915 C.ar    1  UNL1        0.0000
     20 C           3.4318   -0.3088   17.2740 C.ar    1  UNL1        0.0000
     21 C           4.7437   -1.0299   17.1809 C.ar    1  UNL1        0.0000
     22 C           5.3450   -1.6540   18.4052 C.ar    1  UNL1        0.0000
     23 O           8.3909   -4.6755   30.8960 O.3     1  UNL1       -0.4223
     24 C           6.1464   -0.2435   34.2603 C.3     1  UNL1        0.0311
     25 C           6.7076   -1.3515   33.4193 C.ar    1  UNL1       -0.0205
     26 C           8.1912   -1.4774   33.2375 C.ar    1  UNL1       -0.0011
     27 C           8.7522   -2.5855   32.3964 C.ar    1  UNL1        0.0373
     28 C           7.8298   -3.5675   31.7370 C.ar    1  UNL1        0.1487
     29 C           6.3462   -3.4415   31.9189 C.ar    1  UNL1        0.0384
     30 C           5.7851   -2.3335   32.7599 C.ar    1  UNL1        0.0131
     31 C           4.3015   -2.2075   32.9417 C.2     1  UNL1        0.0727
     32 O           3.5235   -1.2345   32.1062 O.co2   1  UNL1       -0.5446
     33 O           3.5959   -3.0544   33.9589 O.co2   1  UNL1       -0.5446
@<TRIPOS>UNITY_ATOM_ATTR
32 1
charge -1
@<TRIPOS>BOND
     1    24    25    1
     2    25    26   ar
     3    26    27   ar
     4    27    28   ar
     5    28    23    1
     6    23     1    1
     7     1     2    2
     8     2     3    1
     9     3     4    2
    10     4     5    1
    11     5    11    1
    12    11    12   ar
    13    12    13   ar
    14    13    14   ar
    15    14    17    1
    16    17    18   ar
    17    18    19   ar
    18    19    20   ar
    19    20    21   ar
    20    21    22   ar
    21    14    15   ar
    22    15    16   ar
    23     5     6    2
    24     6     7    1
    25     6     8    1
    26     8     9    1
    27     9    10    2
    28    28    29   ar
    29    29    30   ar
    30    30    31    1
    31    31    32   ar
    32    31    33   ar
    33    30    25   ar
    34    10     1    1
    35     9     3    1
    36    16    11   ar
    37    22    17   ar
@<TRIPOS>MOLECULE
*****
 33 37 0 0 0
SMALL
GASTEIGER

@<TRIPOS>ATOM
      1 C           5.2875   -0.5920   32.8670 C.2     1  UNL1        0.3243
      2 N           4.6219   -1.4180   31.8065 N.2     1  UNL1       -0.1927
      3 C           5.0920   -0.9236   30.4707 C.2     1  UNL1        0.0999
      4 C           4.7730   -1.3576   29.0708 C.2     1  UNL1        0.0210
      5 C           5.4101   -0.6599   27.9057 C.2     1  UNL1        0.0085
      6 C           6.3662    0.4717   28.1405 C.2     1  UNL1        0.0415
      7 CL          7.0034    1.1694   26.9754 Cl      1  UNL1       -0.0865
      8 C           6.6853    0.9057   29.5404 C.3     1  UNL1        0.0853
      9 C           6.0482    0.2081   30.7055 C.2     1  UNL1        0.0866
     10 N           6.1690    0.4130   32.1865 N.2     1  UNL1       -0.1964
     11 C           5.0911   -1.0940   26.5056 C.ar    1  UNL1        0.0006
     12 C           3.9212   -0.4948   25.7829 C.ar    1  UNL1        0.0000
     13 C           3.6022   -0.9288   24.3830 C.ar    1  UNL1        0.0000
     14 C           4.4530   -1.9620   23.7058 C.ar    1  UNL1        0.0000
     15 C           5.6229   -2.5612   24.4286 C.ar    1  UNL1        0.0000
     16 C           5.9419   -2.1272   25.8285 C.ar    1  UNL1        0.0000
     17 C           4.1339   -2.3960   22.3059 C.ar    1  UNL1        0.0000
     18 C           3.3854   -1.4760   21.3876 C.ar    1  UNL1        0.0000
     19 C           3.0663   -1.9101   19.9877 C.ar    1  UNL1        0.0000
     20 C           3.4958   -3.2642   19.5060 C.ar    1  UNL1        0.0000
     21 C           4.2443   -4.1842   20.4242 C.ar    1  UNL1        0.0000
     22 C           4.5634   -3.7501   21.8241 C.ar    1  UNL1        0.0000
     23 O           5.1039   -0.7441   34.3479 O.3     1  UNL1       -0.4223
     24 C           2.0866    3.4193   37.4402 C.3     1  UNL1        0.0311
     25 C           2.8409    2.3785   36.6671 C.ar    1  UNL1       -0.0205
     26 C           2.8308    2.4042   35.1673 C.ar    1  UNL1       -0.0011
     27 C           3.5852    1.3633   34.3943 C.ar    1  UNL1        0.0373
     28 C           4.3496    0.2967   35.1210 C.ar    1  UNL1        0.1487
     29 C           4.3596    0.2710   36.6208 C.ar    1  UNL1        0.0384
     30 C           3.6053    1.3119   37.3937 C.ar    1  UNL1        0.0131
     31 C           3.6154    1.2861   38.8935 C.2     1  UNL1        0.0727
     32 O           4.7171    1.9694   39.6479 O.co2   1  UNL1       -0.5446
     33 O           2.5238    0.5770   39.6388 O.co2   1  UNL1       -0.5446
@<TRIPOS>UNITY_ATOM_ATTR
32 1
charge -1
@<TRIPOS>BOND
     1    24    25    1
     2    25    26   ar
     3    26    27   ar
     4    27    28   ar
     5    28    23    1
     6    23     1    1
     7     1     2    2
     8     2     3    1
     9     3     4    2
    10     4     5    1
    11     5    11    1
    12    11    12   ar
    13    12    13   ar
    14    13    14   ar
    15    14    17    1
    16    17    18   ar
    17    18    19   ar
    18    19    20   ar
    19    20    21   ar
    20    21    22   ar
    21    14    15   ar
    22    15    16   ar
    23     5     6    2
    24     6     7    1
    25     6     8    1
    26     8     9    1
    27     9    10    2
    28    28    29   ar
    29    29    30   ar
    30    30    31    1
    31    31    32   ar
    32    31    33   ar
    33    30    25   ar
    34    10     1    1
    35     9     3    1
    36    16    11   ar
    37    22    17   ar
@<TRIPOS>MOLECULE
*****
 33 37 0 0 0
SMALL
GASTEIGER

@<TRIPOS>ATOM
      1 C           1.9461   -0.1304   30.3639 C.2     1  UNL1        0.3243
      2 N           0.7723   -0.3446   29.4549 N.2     1  UNL1       -0.1927
      3 C           0.4494    0.9650   28.7985 C.2     1  UNL1        0.0999
      4 C          -0.6060    1.3576   27.8076 C.2     1  UNL1        0.0210
      5 C          -0.6871    2.7739   27.3199 C.2     1  UNL1        0.0085
      6 C           0.2870    3.7973   27.8232 C.2     1  UNL1        0.0415
      7 CL          0.2059    5.2136   27.3355 Cl      1  UNL1       -0.0865
      8 C           1.3424    3.4047   28.8142 C.3     1  UNL1        0.0853
      9 C           1.4236    1.9885   29.3018 C.2     1  UNL1        0.0866
     10 N           2.3486    1.3115   30.2693 N.2     1  UNL1       -0.1964
     11 C          -1.7425    3.1665   26.3289 C.ar    1  UNL1        0.0006
     12 C          -3.0901    3.6188   26.8079 C.ar    1  UNL1        0.0000
     13 C          -4.1454    4.0114   25.8169 C.ar    1  UNL1        0.0000
     14 C          -3.8532    3.9518   24.3469 C.ar    1  UNL1        0.0000
     15 C          -2.5056    3.4996   23.8678 C.ar    1  UNL1        0.0000
     16 C          -1.4503    3.1070   24.8588 C.ar    1  UNL1        0.0000
     17 C          -4.9085    4.3445   23.3560 C.ar    1  UNL1        0.0000
     18 C          -6.3536    4.3404   23.7581 C.ar    1  UNL1        0.0000
     19 C          -7.4089    4.7331   22.7671 C.ar    1  UNL1        0.0000
     20 C          -7.0193    5.1299   21.3739 C.ar    1  UNL1        0.0000
     21 C          -5.5742    5.1340   20.9718 C.ar    1  UNL1        0.0000
     22 C          -4.5189    4.7413   21.9628 C.ar    1  UNL1        0.0000
     23 O           2.6023   -1.1747   31.2176 O.3     1  UNL1       -0.4223
     24 C           7.8307    0.0057   33.9140 C.3     1  UNL1        0.0311
     25 C           6.5236   -0.2894   33.2399 C.ar    1  UNL1       -0.0205
     26 C           6.5049   -0.7831   31.8236 C.ar    1  UNL1       -0.0011
     27 C           5.1977   -1.0782   31.1495 C.ar    1  UNL1        0.0373
     28 C           3.9094   -0.8796   31.8917 C.ar    1  UNL1        0.1487
     29 C           3.9283   -0.3859   33.3081 C.ar    1  UNL1        0.0384
     30 C           5.2354   -0.0909   33.9821 C.ar    1  UNL1        0.0131
     31 C           5.2541    0.4028   35.3984 C.2     1  UNL1        0.0727
     32 O           5.4824   -0.5604   36.5254 O.co2   1  UNL1       -0.5446
     33 O           5.0446    1.8596   35.6877 O.co2   1  UNL1       -0.5446
@<TRIPOS>UNITY_ATOM_ATTR
32 1
charge -1
@<TRIPOS>BOND
     1    24    25    1
     2    25    26   ar
     3    26    27   ar
     4    27    28   ar
     5    28    23    1
     6    23     1    1
     7     1     2    2
     8     2     3    1
     9     3     4    2
    10     4     5    1
    11     5    11    1
    12    11    12   ar
    13    12    13   ar
    14    13    14   ar
    15    14    17    1
    16    17    18   ar
    17    18    19   ar
    18    19    20   ar
    19    20    21   ar
    20    21    22   ar
    21    14    15   ar
    22    15    16   ar
    23     5     6    2
    24     6     7    1
    25     6     8    1
    26     8     9    1
    27     9    10    2
    28    28    29   ar
    29    29    30   ar
    30    30    31    1
    31    31    32   ar
    32    31    33   ar
    33    30    25   ar
    34    10     1    1
    35     9     3    1
    36    16    11   ar
    37    22    17   ar
@<TRIPOS>MOLECULE
*****
 33 37 0 0 0
SMALL
GASTEIGER

@<TRIPOS>ATOM
      1 C           2.4511   -0.0885   30.4544 C.2     1  UNL1        0.3243
      2 N           1.0949   -0.2457   29.8331 N.2     1  UNL1       -0.1927
      3 C           0.8527    0.9374   28.9434 C.2     1  UNL1        0.0999
      4 C          -0.3106    1.3205   28.0775 C.2     1  UNL1        0.0210
      5 C          -0.2673    2.5922   27.2829 C.2     1  UNL1        0.0085
      6 C           0.9391    3.4805   27.3544 C.2     1  UNL1        0.0415
      7 CL          0.9824    4.7521   26.5598 Cl      1  UNL1       -0.0865
      8 C           2.1024    3.0973   28.2203 C.3     1  UNL1        0.0853
      9 C           2.0592    1.8258   29.0149 C.2     1  UNL1        0.0866
     10 N           3.0471    1.1917   29.9487 N.2     1  UNL1       -0.1964
     11 C          -1.4307    2.9753   26.4169 C.ar    1  UNL1        0.0006
     12 C          -1.3094    2.9044   24.9235 C.ar    1  UNL1        0.0000
     13 C          -2.4727    3.2876   24.0576 C.ar    1  UNL1        0.0000
     14 C          -3.7573    3.7417   24.6850 C.ar    1  UNL1        0.0000
     15 C          -3.8786    3.8126   26.1784 C.ar    1  UNL1        0.0000
     16 C          -2.7152    3.4294   27.0444 C.ar    1  UNL1        0.0000
     17 C          -4.9205    4.1248   23.8190 C.ar    1  UNL1        0.0000
     18 C          -6.1999    4.5940   24.4459 C.ar    1  UNL1        0.0000
     19 C          -7.3631    4.9771   23.5798 C.ar    1  UNL1        0.0000
     20 C          -7.2470    4.8911   22.0867 C.ar    1  UNL1        0.0000
     21 C          -5.9676    4.4219   21.4598 C.ar    1  UNL1        0.0000
     22 C          -4.8044    4.0387   22.3259 C.ar    1  UNL1        0.0000
     23 O           3.0978   -1.0439   31.4131 O.3     1  UNL1       -0.4223
     24 C           5.1388    0.9310   36.6984 C.3     1  UNL1        0.0311
     25 C           4.6285    0.4373   35.3771 C.ar    1  UNL1       -0.0205
     26 C           5.0338   -0.9169   34.8752 C.ar    1  UNL1       -0.0011
     27 C           4.5235   -1.4106   33.5538 C.ar    1  UNL1        0.0373
     28 C           3.6080   -0.5501   32.7344 C.ar    1  UNL1        0.1487
     29 C           3.2028    0.8041   33.2364 C.ar    1  UNL1        0.0384
     30 C           3.7130    1.2977   34.5577 C.ar    1  UNL1        0.0131
     31 C           3.3077    2.6519   35.0596 C.2     1  UNL1        0.0727
     32 O           2.0794    2.8008   35.9076 O.co2   1  UNL1       -0.5446
     33 O           4.1307    3.8573   34.7135 O.co2   1  UNL1       -0.5446
@<TRIPOS>UNITY_ATOM_ATTR
32 1
charge -1
@<TRIPOS>BOND
     1    24    25    1
     2    25    26   ar
     3    26    27   ar
     4    27    28   ar
     5    28    23    1
     6    23     1    1
     7     1     2    2
     8     2     3    1
     9     3     4    2
    10     4     5    1
    11     5    11    1
    12    11    12   ar
    13    12    13   ar
    14    13    14   ar
    15    14    17    1
    16    17    18   ar
    17    18    19   ar
    18    19    20   ar
    19    20    21   ar
    20    21    22   ar
    21    14    15   ar
    22    15    16   ar
    23     5     6    2
    24     6     7    1
    25     6     8    1
    26     8     9    1
    27     9    10    2
    28    28    29   ar
    29    29    30   ar
    30    30    31    1
    31    31    32   ar
    32    31    33   ar
    33    30    25   ar
    34    10     1    1
    35     9     3    1
    36    16    11   ar
    37    22    17   ar
@<TRIPOS>MOLECULE
*****
 33 37 0 0 0
SMALL
GASTEIGER

@<TRIPOS>ATOM
      1 C           2.0830    0.5977   31.0275 C.2     1  UNL1        0.3243
      2 N           1.0232    0.1948   30.0454 N.2     1  UNL1       -0.1927
      3 C           0.6492    1.4065   29.2442 C.2     1  UNL1        0.0999
      4 C          -0.3389    1.6099   28.1341 C.2     1  UNL1        0.0210
      5 C          -0.4983    2.9650   27.5109 C.2     1  UNL1        0.0085
      6 C           0.3303    4.1166   27.9978 C.2     1  UNL1        0.0415
      7 CL          0.1709    5.4717   27.3746 Cl      1  UNL1       -0.0865
      8 C           1.3184    3.9132   29.1078 C.3     1  UNL1        0.0853
      9 C           1.4778    2.5581   29.7310 C.2     1  UNL1        0.0866
     10 N           2.3640    2.0583   30.8332 N.2     1  UNL1       -0.1964
     11 C          -1.4865    3.1684   26.4008 C.ar    1  UNL1        0.0006
     12 C          -2.9046    3.5405   26.7179 C.ar    1  UNL1        0.0000
     13 C          -3.8927    3.7439   25.6078 C.ar    1  UNL1        0.0000
     14 C          -3.4627    3.5753   24.1807 C.ar    1  UNL1        0.0000
     15 C          -2.0446    3.2032   23.8636 C.ar    1  UNL1        0.0000
     16 C          -1.0565    2.9998   24.9737 C.ar    1  UNL1        0.0000
     17 C          -4.4508    3.7787   23.0707 C.ar    1  UNL1        0.0000
     18 C          -4.0517    3.5032   21.6513 C.ar    1  UNL1        0.0000
     19 C          -5.0399    3.7066   20.5413 C.ar    1  UNL1        0.0000
     20 C          -6.4274    4.1856   20.8507 C.ar    1  UNL1        0.0000
     21 C          -6.8265    4.4611   22.2701 C.ar    1  UNL1        0.0000
     22 C          -5.8383    4.2577   23.3801 C.ar    1  UNL1        0.0000
     23 O           2.7456   -0.3021   32.0282 O.3     1  UNL1       -0.4223
     24 C           7.5391   -3.5418   30.4386 C.3     1  UNL1        0.0311
     25 C           6.3407   -2.7319   30.8360 C.ar    1  UNL1       -0.0205
     26 C           5.7443   -2.8959   32.2026 C.ar    1  UNL1       -0.0011
     27 C           4.5459   -2.0859   32.5999 C.ar    1  UNL1        0.0373
     28 C           3.9439   -1.1120   31.6308 C.ar    1  UNL1        0.1487
     29 C           4.5405   -0.9481   30.2643 C.ar    1  UNL1        0.0384
     30 C           5.7388   -1.7580   29.8669 C.ar    1  UNL1        0.0131
     31 C           6.3353   -1.5940   28.5004 C.2     1  UNL1        0.0727
     32 O           7.5101   -0.6834   28.2992 O.co2   1  UNL1       -0.5446
     33 O           5.7568   -2.3406   27.3351 O.co2   1  UNL1       -0.5446
@<TRIPOS>UNITY_ATOM_ATTR
32 1
charge -1
@<TRIPOS>BOND
     1    24    25    1
     2    25    26   ar
     3    26    27   ar
     4    27    28   ar
     5    28    23    1
     6    23     1    1
     7     1     2    2
     8     2     3    1
     9     3     4    2
    10     4     5    1
    11     5    11    1
    12    11    12   ar
    13    12    13   ar
    14    13    14   ar
    15    14    17    1
    16    17    18   ar
    17    18    19   ar
    18    19    20   ar
    19    20    21   ar
    20    21    22   ar
    21    14    15   ar
    22    15    16   ar
    23     5     6    2
    24     6     7    1
    25     6     8    1
    26     8     9    1
    27     9    10    2
    28    28    29   ar
    29    29    30   ar
    30    30    31    1
    31    31    32   ar
    32    31    33   ar
    33    30    25   ar
    34    10     1    1
    35     9     3    1
    36    16    11   ar
    37    22    17   ar
@<TRIPOS>MOLECULE
*****
 33 37 0 0 0
SMALL
GASTEIGER

@<TRIPOS>ATOM
      1 C           1.7558   -0.1379   30.2313 C.2     1  UNL1        0.3243
      2 N           0.6110   -0.3527   29.2861 N.2     1  UNL1       -0.1927
      3 C           0.2627    0.9706   28.6717 C.2     1  UNL1        0.0999
      4 C          -0.7807    1.3687   27.6703 C.2     1  UNL1        0.0210
      5 C          -0.8947    2.7995   27.2345 C.2     1  UNL1        0.0085
      6 C           0.0347    3.8321   27.7999 C.2     1  UNL1        0.0415
      7 CL         -0.0793    5.2629   27.3641 Cl      1  UNL1       -0.0865
      8 C           1.0781    3.4340   28.8013 C.3     1  UNL1        0.0853
      9 C           1.1922    2.0033   29.2371 C.2     1  UNL1        0.0866
     10 N           2.1149    1.3182   30.2011 N.2     1  UNL1       -0.1964
     11 C          -1.9382    3.1976   26.2331 C.ar    1  UNL1        0.0006
     12 C          -3.3116    3.5855   26.6949 C.ar    1  UNL1        0.0000
     13 C          -4.3551    3.9836   25.6936 C.ar    1  UNL1        0.0000
     14 C          -4.0251    3.9938   24.2304 C.ar    1  UNL1        0.0000
     15 C          -2.6517    3.6059   23.7685 C.ar    1  UNL1        0.0000
     16 C          -1.6083    3.2078   24.7698 C.ar    1  UNL1        0.0000
     17 C          -5.0686    4.3919   23.2291 C.ar    1  UNL1        0.0000
     18 C          -5.1223    3.7143   21.8919 C.ar    1  UNL1        0.0000
     19 C          -6.1658    4.1124   20.8907 C.ar    1  UNL1        0.0000
     20 C          -7.1558    5.1882   21.2266 C.ar    1  UNL1        0.0000
     21 C          -7.1021    5.8658   22.5637 C.ar    1  UNL1        0.0000
     22 C          -6.0586    5.4676   23.5649 C.ar    1  UNL1        0.0000
     23 O           2.4241   -1.1937   31.0611 O.3     1  UNL1       -0.4223
     24 C           7.3121    0.1579   34.2674 C.3     1  UNL1        0.0311
     25 C           6.0901   -0.1800   33.4659 C.ar    1  UNL1       -0.0205
     26 C           4.7581    0.3915   33.8522 C.ar    1  UNL1       -0.0011
     27 C           3.5361    0.0535   33.0505 C.ar    1  UNL1        0.0373
     28 C           3.6461   -0.8558   31.8626 C.ar    1  UNL1        0.1487
     29 C           4.9781   -1.4272   31.4764 C.ar    1  UNL1        0.0384
     30 C           6.2001   -1.0893   32.2780 C.ar    1  UNL1        0.0131
     31 C           7.5321   -1.6607   31.8917 C.2     1  UNL1        0.0727
     32 O           8.4074   -0.9302   30.9169 O.co2   1  UNL1       -0.5446
     33 O           7.9888   -2.9627   32.4801 O.co2   1  UNL1       -0.5446
@<TRIPOS>UNITY_ATOM_ATTR
32 1
charge -1
@<TRIPOS>BOND
     1    24    25    1
     2    25    26   ar
     3    26    27   ar
     4    27    28   ar
     5    28    23    1
     6    23     1    1
     7     1     2    2
     8     2     3    1
     9     3     4    2
    10     4     5    1
    11     5    11    1
    12    11    12   ar
    13    12    13   ar
    14    13    14   ar
    15    14    17    1
    16    17    18   ar
    17    18    19   ar
    18    19    20   ar
    19    20    21   ar
    20    21    22   ar
    21    14    15   ar
    22    15    16   ar
    23     5     6    2
    24     6     7    1
    25     6     8    1
    26     8     9    1
    27     9    10    2
    28    28    29   ar
    29    29    30   ar
    30    30    31    1
    31    31    32   ar
    32    31    33   ar
    33    30    25   ar
    34    10     1    1
    35     9     3    1
    36    16    11   ar
    37    22    17   ar
